REMARK  Name = ZINC21076392
REMARK  10 active torsions:
REMARK  status: ('A' for Active; 'I' for Inactive)
REMARK    1  A    between atoms: C_1  and  C_2
REMARK    2  A    between atoms: C_5  and  N_8
REMARK    3  A    between atoms: N_8  and  S_9
REMARK    4  A    between atoms: S_9  and  C_12
REMARK    5  A    between atoms: C_15  and  N_18
REMARK    6  A    between atoms: C_19  and  C_21
REMARK    7  A    between atoms: C_21  and  S_22
REMARK    8  A    between atoms: S_22  and  C_23
REMARK    9  A    between atoms: N_28  and  N_29
REMARK   10  A    between atoms: C_30  and  C_31
REMARK                            x       y       z     vdW  Elec       q    Type
REMARK                         _______ _______ _______ _____ _____    ______ ____
ROOT
ATOM      1  N   UNL     1      -1.773   6.421   0.494  0.00  0.00    -0.285 N 
ATOM      2  C   UNL     1      -0.651   6.758   1.161  0.00  0.00    +0.227 C 
ATOM      3  O   UNL     1      -0.566   7.844   1.694  0.00  0.00    -0.275 OA
ATOM      4  H   UNL     1      -1.822   5.469  -0.055  0.00  0.00    +0.155 HD
ENDROOT
BRANCH   1   8
ATOM      5  C   UNL     1      -5.055   8.987   0.509  0.00  0.00    +0.109 A 
ATOM      6  C   UNL     1      -3.773   9.506   0.499  0.00  0.00    +0.030 A 
ATOM      7  C   UNL     1      -2.683   8.658   0.494  0.00  0.00    +0.025 A 
ATOM      8  C   UNL     1      -2.875   7.283   0.499  0.00  0.00    +0.034 A 
ATOM      9  C   UNL     1      -4.164   6.765   0.502  0.00  0.00    +0.025 A 
ATOM     10  C   UNL     1      -5.250   7.618   0.513  0.00  0.00    +0.030 A 
BRANCH   5  11
ATOM     11  S   UNL     1      -6.443  10.072   0.515  0.00  0.00    +0.072 S 
ATOM     12  O   UNL     1      -7.495   9.383   1.176  0.00  0.00    -0.150 OA
ATOM     13  O   UNL     1      -5.968  11.338   0.954  0.00  0.00    -0.150 OA
BRANCH  11  14
ATOM     14  N   UNL     1      -6.920  10.266  -1.059  0.00  0.00    -0.216 N 
ATOM     15  H   UNL     1      -6.873  11.259  -1.530  0.00  0.00    +0.174 HD
BRANCH  14  20
ATOM     16  C   UNL     1      -8.800   5.811  -4.022  0.00  0.00    +0.044 C 
ATOM     17  C   UNL     1      -8.300   6.995  -3.235  0.00  0.00    -0.050 A 
ATOM     18  C   UNL     1      -9.106   7.572  -2.270  0.00  0.00    +0.005 A 
ATOM     19  C   UNL     1      -8.652   8.657  -1.547  0.00  0.00    +0.025 A 
ATOM     20  C   UNL     1      -7.383   9.169  -1.788  0.00  0.00    +0.048 A 
ATOM     21  C   UNL     1      -6.578   8.591  -2.762  0.00  0.00    +0.025 A 
ATOM     22  C   UNL     1      -7.037   7.503  -3.478  0.00  0.00    +0.005 A 
ENDBRANCH  14  20
ENDBRANCH  11  14
ENDBRANCH   5  11
ENDBRANCH   1   8
BRANCH   2  23
ATOM     23  C   UNL     1       0.497   5.785   1.244  0.00  0.00    +0.173 C 
BRANCH  23  24
ATOM     24  S   UNL     1       1.849   6.526   2.200  0.00  0.00    -0.075 S 
BRANCH  24  25
ATOM     25  C   UNL     1       3.097   5.282   2.206  0.00  0.00    +0.211 A 
ATOM     26  N   UNL     1       4.320   5.375   2.808  0.00  0.00    -0.186 NA
ATOM     27  C   UNL     1       4.989   4.203   2.589  0.00  0.00    +0.232 A 
ATOM     28  N   UNL     1       4.212   3.420   1.881  0.00  0.00    -0.245 N 
ATOM     29  N   UNL     1       3.014   4.103   1.638  0.00  0.00    -0.144 NA
ATOM     30  N   UNL     1       6.266   3.897   3.037  0.00  0.00    -0.205 N 
ATOM     31  H   UNL     1       6.832   4.632   3.627  0.00  0.00    +0.177 HD
ATOM     32  H   UNL     1       4.560   2.417   1.590  0.00  0.00    +0.192 HD
BRANCH  30  33
ATOM     33  N   UNL     1       6.833   2.652   2.737  0.00  0.00    -0.184 NA
ATOM     34  C   UNL     1       8.031   2.365   3.158  0.00  0.00    +0.176 C 
BRANCH  34  35
ATOM     35  C   UNL     1       8.625   1.061   2.844  0.00  0.00    +0.147 A 
ATOM     36  C   UNL     1       9.865   0.634   3.221  0.00  0.00    +0.051 A 
ATOM     37  C   UNL     1      10.018  -0.668   2.707  0.00  0.00    +0.042 A 
ATOM     38  C   UNL     1       8.881  -0.971   2.049  0.00  0.00    +0.196 A 
ATOM     39  O   UNL     1       8.039   0.073   2.139  0.00  0.00    -0.462 OA
ENDBRANCH  34  35
ENDBRANCH  30  33
ENDBRANCH  24  25
ENDBRANCH  23  24
ENDBRANCH   2  23
TORSDOF 9
