REMARK  Name = ZINC13111091
REMARK  7 active torsions:
REMARK  status: ('A' for Active; 'I' for Inactive)
REMARK    1  A    between atoms: C_1  and  O_2
REMARK    2  A    between atoms: O_2  and  C_3
REMARK    3  A    between atoms: C_6  and  C_9
REMARK    4  A    between atoms: C_11  and  C_15
REMARK    5  A    between atoms: C_17  and  O_22
REMARK    6  A    between atoms: C_20  and  O_21
REMARK    7  A    between atoms: O_22  and  C_23
REMARK                            x       y       z     vdW  Elec       q    Type
REMARK                         _______ _______ _______ _____ _____    ______ ____
ROOT
ATOM      1  C   UNL     1      -4.964  -2.620   0.037  0.00  0.00    +0.093 A 
ATOM      2  C   UNL     1      -5.161  -4.011   0.042  0.00  0.00    +0.058 A 
ATOM      3  C   UNL     1      -6.506  -4.241   0.051  0.00  0.00    +0.070 A 
ATOM      4  N   UNL     1      -7.130  -3.029   0.051  0.00  0.00    -0.276 N 
ATOM      5  H   UNL     1      -8.089  -2.881   0.056  0.00  0.00    +0.189 HD
ATOM      6  N   UNL     1      -6.144  -2.035   0.048  0.00  0.00    -0.173 NA
ENDROOT
BRANCH   1  10
ATOM      7  C   UNL     1      -1.200  -0.637   0.010  0.00  0.00    +0.120 A 
ATOM      8  C   UNL     1      -2.374   0.104   0.020  0.00  0.00    +0.046 A 
ATOM      9  C   UNL     1      -3.595  -0.536   0.028  0.00  0.00    +0.013 A 
ATOM     10  C   UNL     1      -3.651  -1.928   0.027  0.00  0.00    +0.002 A 
ATOM     11  C   UNL     1      -2.471  -2.670   0.017  0.00  0.00    +0.013 A 
ATOM     12  C   UNL     1      -1.252  -2.025   0.003  0.00  0.00    +0.046 A 
BRANCH   7  14
ATOM     13  C   UNL     1      -0.017   1.425   0.010  0.00  0.00    +0.277 C 
ATOM     14  O   UNL     1       0.002  -0.004   0.002  0.00  0.00    -0.495 OA
ENDBRANCH   7  14
ENDBRANCH   1  10
BRANCH   3  15
ATOM     15  C   UNL     1      -7.167  -5.565   0.059  0.00  0.00    +0.045 A 
ATOM     16  C   UNL     1      -8.305  -5.775   0.837  0.00  0.00    +0.059 A 
ATOM     17  C   UNL     1      -8.918  -7.016   0.839  0.00  0.00    +0.121 A 
ATOM     18  C   UNL     1      -8.402  -8.050   0.070  0.00  0.00    +0.049 A 
ATOM     19  C   UNL     1      -7.275  -7.849  -0.703  0.00  0.00    +0.049 A 
ATOM     20  C   UNL     1      -6.656  -6.610  -0.719  0.00  0.00    +0.126 A 
BRANCH  20  21
ATOM     21  O   UNL     1      -5.550  -6.411  -1.485  0.00  0.00    -0.506 OA
ATOM     22  H   UNL     1      -4.718  -6.605  -1.032  0.00  0.00    +0.292 HD
ENDBRANCH  20  21
BRANCH  17  23
ATOM     23  O   UNL     1     -10.028  -7.222   1.598  0.00  0.00    -0.495 OA
ATOM     24  C   UNL     1     -10.610  -8.527   1.554  0.00  0.00    +0.277 C 
ENDBRANCH  17  23
ENDBRANCH   3  15
TORSDOF 5
