REMARK  Name = ZINC04767720
REMARK  6 active torsions:
REMARK  status: ('A' for Active; 'I' for Inactive)
REMARK    1  A    between atoms: C_1  and  C_2
REMARK    2  A    between atoms: C_2  and  O_3
REMARK    3  A    between atoms: O_3  and  C_4
REMARK    4  A    between atoms: C_7  and  N_10
REMARK    5  A    between atoms: C_23  and  C_27
REMARK    6  A    between atoms: C_24  and  C_26
REMARK                            x       y       z     vdW  Elec       q    Type
REMARK                         _______ _______ _______ _____ _____    ______ ____
ROOT
ATOM      1  N   UNL     1      -2.369   5.355   1.683  0.00  0.00    -0.244 N 
ATOM      2  C   UNL     1      -1.159   5.255   2.255  0.00  0.00    +0.141 C 
ATOM      3  S   UNL     1      -1.064   5.065   3.954  0.00  0.00    -0.018 S 
ATOM      4  N   UNL     1      -0.001   5.297   1.543  0.00  0.00    -0.319 N 
ATOM      5  C   UNL     1      -0.080   5.385   0.075  0.00  0.00    +0.114 C 
ATOM      6  C   UNL     1      -0.365   3.995  -0.446  0.00  0.00    +0.016 A 
ATOM      7  C   UNL     1       0.697   3.146  -0.706  0.00  0.00    +0.024 A 
ATOM      8  C   UNL     1       0.464   1.867  -1.175  0.00  0.00    +0.018 A 
ATOM      9  C   UNL     1      -0.834   1.433  -1.381  0.00  0.00    +0.019 A 
ATOM     10  C   UNL     1      -1.894   2.279  -1.129  0.00  0.00    +0.047 A 
ATOM     11  C   UNL     1      -1.664   3.567  -0.656  0.00  0.00    +0.128 A 
ATOM     12  O   UNL     1      -2.730   4.385  -0.456  0.00  0.00    -0.468 OA
ATOM     13  C   UNL     1      -2.531   5.604   0.253  0.00  0.00    +0.185 C 
ATOM     14  C   UNL     1      -1.269   6.289  -0.289  0.00  0.00    +0.074 C 
ATOM     15  C   UNL     1      -1.366   6.437  -1.809  0.00  0.00    +0.015 C 
ATOM     16  C   UNL     1      -3.739   6.516   0.031  0.00  0.00    +0.079 C 
ATOM     17 BR   UNL     1       1.917   0.710  -1.532  0.00  0.00    -0.050 Br
ATOM     18  H   UNL     1       0.863   5.276   1.984  0.00  0.00    +0.148 HD
ENDROOT
BRANCH   1  22
ATOM     19  C   UNL     1      -5.769   4.936   4.060  0.00  0.00    +0.121 A 
ATOM     20  C   UNL     1      -5.141   6.168   3.959  0.00  0.00    +0.047 A 
ATOM     21  C   UNL     1      -4.015   6.308   3.172  0.00  0.00    +0.027 A 
ATOM     22  C   UNL     1      -3.511   5.214   2.481  0.00  0.00    +0.039 A 
ATOM     23  C   UNL     1      -4.144   3.982   2.578  0.00  0.00    +0.027 A 
ATOM     24  C   UNL     1      -5.266   3.842   3.370  0.00  0.00    +0.047 A 
BRANCH  19  25
ATOM     25  O   UNL     1      -6.877   4.799   4.836  0.00  0.00    -0.492 OA
BRANCH  25  27
ATOM     26  C   UNL     1      -8.698   3.542   5.808  0.00  0.00    +0.048 C 
ATOM     27  C   UNL     1      -7.472   3.501   4.894  0.00  0.00    +0.225 C 
ENDBRANCH  25  27
ENDBRANCH  19  25
ENDBRANCH   1  22
TORSDOF 3
