REMARK  Name = ZINC01216799
REMARK  5 active torsions:
REMARK  status: ('A' for Active; 'I' for Inactive)
REMARK    1  A    between atoms: C_10  and  C_11
REMARK    2  A    between atoms: C_11  and  O_12
REMARK    3  A    between atoms: O_12  and  C_13
REMARK    4  A    between atoms: C_18  and  C_19
REMARK    5  A    between atoms: N_20  and  N_21
REMARK                            x       y       z     vdW  Elec       q    Type
REMARK                         _______ _______ _______ _____ _____    ______ ____
ROOT
ATOM      1  C   UNL     1       1.268   3.284  -0.110  0.00  0.00    +0.130 A 
ATOM      2  C   UNL     1       2.455   3.998  -0.113  0.00  0.00    +0.047 A 
ATOM      3  C   UNL     1       3.663   3.333  -0.025  0.00  0.00    +0.019 A 
ATOM      4  C   UNL     1       3.697   1.951   0.071  0.00  0.00    +0.019 A 
ATOM      5  C   UNL     1       2.523   1.226   0.081  0.00  0.00    +0.028 A 
ATOM      6  C   UNL     1       1.296   1.887  -0.007  0.00  0.00    +0.037 A 
ATOM      7 BR   UNL     1       5.358   1.056   0.190  0.00  0.00    -0.050 Br
ENDROOT
BRANCH   6   8
ATOM      8  C   UNL     1       0.038   1.119   0.003  0.00  0.00    +0.142 C 
ATOM      9  N   UNL     1       0.070  -0.178  -0.006  0.00  0.00    -0.186 NA
BRANCH   9  10
ATOM     10  N   UNL     1      -1.123  -0.907  -0.097  0.00  0.00    -0.191 N 
ATOM     11  C   UNL     1      -1.099  -2.252  -0.004  0.00  0.00    +0.317 C 
ATOM     12  O   UNL     1      -2.120  -2.891  -0.175  0.00  0.00    -0.251 OA
ATOM     13  N   UNL     1       0.055  -2.888   0.277  0.00  0.00    -0.312 N 
ATOM     14  H   UNL     1      -1.966  -0.445  -0.227  0.00  0.00    +0.179 HD
ATOM     15  H   UNL     1       0.853  -2.376   0.484  0.00  0.00    +0.147 HD
ATOM     16  H   UNL     1       0.088  -3.857   0.272  0.00  0.00    +0.147 HD
ENDBRANCH   9  10
ENDBRANCH   6   8
BRANCH   1  17
ATOM     17  O   UNL     1       0.080   3.937  -0.201  0.00  0.00    -0.487 OA
BRANCH  17  18
ATOM     18  C   UNL     1       0.131   5.349  -0.414  0.00  0.00    +0.265 C 
BRANCH  18  28
ATOM     19  C   UNL     1      -1.926   9.884  -1.603  0.00  0.00    +0.001 A 
ATOM     20  C   UNL     1      -0.626   9.413  -1.426  0.00  0.00    +0.001 A 
ATOM     21  C   UNL     1      -0.390   8.112  -1.103  0.00  0.00    +0.009 A 
ATOM     22  C   UNL     1      -1.471   7.228  -0.943  0.00  0.00    -0.011 A 
ATOM     23  C   UNL     1      -2.793   7.707  -1.123  0.00  0.00    -0.018 A 
ATOM     24  C   UNL     1      -2.997   9.057  -1.457  0.00  0.00    +0.008 A 
ATOM     25  C   UNL     1      -3.873   6.823  -0.964  0.00  0.00    +0.008 A 
ATOM     26  C   UNL     1      -3.638   5.522  -0.640  0.00  0.00    +0.001 A 
ATOM     27  C   UNL     1      -2.338   5.050  -0.470  0.00  0.00    +0.007 A 
ATOM     28  C   UNL     1      -1.267   5.878  -0.610  0.00  0.00    -0.003 A 
ENDBRANCH  18  28
ENDBRANCH  17  18
ENDBRANCH   1  17
TORSDOF 5
