REMARK  Name = ZINC23855891
REMARK  9 active torsions:
REMARK  status: ('A' for Active; 'I' for Inactive)
REMARK    1  A    between atoms: C_1  and  O_2
REMARK    2  A    between atoms: O_2  and  C_3
REMARK    3  A    between atoms: C_6  and  C_9
REMARK    4  A    between atoms: C_9  and  N_10
REMARK    5  A    between atoms: N_13  and  C_16
REMARK    6  A    between atoms: C_16  and  N_17
REMARK    7  A    between atoms: C_20  and  C_24
REMARK    8  A    between atoms: C_20  and  C_31
REMARK    9  A    between atoms: C_24  and  C_25
REMARK                            x       y       z     vdW  Elec       q    Type
REMARK                         _______ _______ _______ _____ _____    ______ ____
ROOT
ATOM      1  N   UNL     1      -1.137   1.940   0.018  0.00  0.00    -0.210 N 
ATOM      2  C   UNL     1      -0.871   3.261   0.028  0.00  0.00    +0.252 C 
ATOM      3  O   UNL     1      -1.675   4.169   0.040  0.00  0.00    -0.272 OA
ATOM      4  C   UNL     1       0.640   3.376   0.014  0.00  0.00    +0.142 C 
ATOM      5  N   UNL     1       1.094   1.974   0.002  0.00  0.00    -0.281 N 
ATOM      6  C   UNL     1      -0.014   1.211   0.009  0.00  0.00    +0.311 C 
ATOM      7  O   UNL     1       0.002  -0.004   0.002  0.00  0.00    -0.252 OA
ATOM      8  H   UNL     1       2.169   1.744  -0.009  0.00  0.00    +0.152 HD
ENDROOT
BRANCH   4   9
ATOM      9  C   UNL     1       1.133   4.082   1.251  0.00  0.00    -0.015 A 
ATOM     10  C   UNL     1       1.379   5.442   1.218  0.00  0.00    +0.006 A 
ATOM     11  C   UNL     1       1.827   6.090   2.354  0.00  0.00    +0.000 A 
ATOM     12  C   UNL     1       2.038   5.377   3.519  0.00  0.00    +0.000 A 
ATOM     13  C   UNL     1       1.796   4.017   3.550  0.00  0.00    +0.000 A 
ATOM     14  C   UNL     1       1.344   3.369   2.416  0.00  0.00    +0.006 A 
ENDBRANCH   4   9
BRANCH   1  15
ATOM     15  C   UNL     1      -2.487   1.371   0.020  0.00  0.00    +0.205 C 
BRANCH  15  19
ATOM     16  N   UNL     1      -4.273  -0.188   3.516  0.00  0.00    +0.384 N 
ATOM     17  C   UNL     1      -4.821   1.056   2.959  0.00  0.00    -0.063 C 
ATOM     18  C   UNL     1      -4.400   1.185   1.493  0.00  0.00    +0.067 C 
ATOM     19  N   UNL     1      -2.933   1.173   1.405  0.00  0.00    -0.290 NA
ATOM     20  C   UNL     1      -2.384  -0.071   1.963  0.00  0.00    +0.067 C 
ATOM     21  C   UNL     1      -2.806  -0.199   3.428  0.00  0.00    -0.063 C 
ATOM     22  H   UNL     1      -4.655  -1.027   2.916  0.00  0.00    -0.081 HD
BRANCH  16  23
ATOM     23  C   UNL     1      -4.719  -0.386   4.902  0.00  0.00    -0.043 C 
BRANCH  23  27
ATOM     24  C   UNL     1      -3.662  -4.321   6.190  0.00  0.00    +0.120 A 
ATOM     25  C   UNL     1      -2.779  -3.268   6.379  0.00  0.00    +0.046 A 
ATOM     26  C   UNL     1      -3.123  -1.996   5.962  0.00  0.00    +0.005 A 
ATOM     27  C   UNL     1      -4.346  -1.774   5.356  0.00  0.00    -0.064 A 
ATOM     28  C   UNL     1      -5.230  -2.821   5.172  0.00  0.00    +0.005 A 
ATOM     29  C   UNL     1      -4.888  -4.095   5.582  0.00  0.00    +0.046 A 
BRANCH  24  31
ATOM     30  C   UNL     1      -4.283  -6.609   6.373  0.00  0.00    +0.277 C 
ATOM     31  O   UNL     1      -3.325  -5.573   6.600  0.00  0.00    -0.495 OA
ENDBRANCH  24  31
ENDBRANCH  23  27
ENDBRANCH  16  23
ENDBRANCH  15  19
ENDBRANCH   1  15
BRANCH   4  32
ATOM     32  C   UNL     1       1.113   4.105  -1.245  0.00  0.00    +0.075 C 
BRANCH  32  33
ATOM     33  C   UNL     1       0.565   3.410  -2.464  0.00  0.00    -0.045 A 
ATOM     34  C   UNL     1       1.287   2.397  -3.066  0.00  0.00    +0.004 A 
ATOM     35  C   UNL     1       0.782   1.756  -4.182  0.00  0.00    +0.000 A 
ATOM     36  C   UNL     1      -0.442   2.135  -4.702  0.00  0.00    +0.000 A 
ATOM     37  C   UNL     1      -1.162   3.152  -4.103  0.00  0.00    +0.000 A 
ATOM     38  C   UNL     1      -0.659   3.789  -2.984  0.00  0.00    +0.004 A 
ENDBRANCH  32  33
ENDBRANCH   4  32
TORSDOF 8
