REMARK  Name = ZINC63701471
REMARK  5 active torsions:
REMARK  status: ('A' for Active; 'I' for Inactive)
REMARK    1  A    between atoms: C_1  and  C_2
REMARK    2  A    between atoms: C_2  and  C_3
REMARK    3  A    between atoms: C_3  and  C_4
REMARK    4  A    between atoms: C_4  and  C_5
REMARK    5  A    between atoms: C_4  and  N_22
REMARK                            x       y       z     vdW  Elec       q    Type
REMARK                         _______ _______ _______ _____ _____    ______ ____
ROOT
ATOM      1  C   UNL     1       1.230  -2.476  -2.617  0.00  0.00    +0.236 C 
ATOM      2  O   UNL     1       2.187  -3.217  -2.700  0.00  0.00    -0.274 OA
ATOM      3  N   UNL     1       0.609  -2.050  -3.735  0.00  0.00    -0.295 N 
ATOM      4  C   UNL     1      -0.475  -1.059  -3.667  0.00  0.00    +0.114 C 
ATOM      5  C   UNL     1      -0.031   0.220  -4.385  0.00  0.00    +0.072 C 
ATOM      6  C   UNL     1       0.604  -0.152  -5.704  0.00  0.00    +0.023 A 
ATOM      7  C   UNL     1       1.065  -1.386  -6.001  0.00  0.00    -0.002 A 
ATOM      8  C   UNL     1       1.599  -1.332  -7.345  0.00  0.00    +0.006 A 
ATOM      9  C   UNL     1       2.201  -2.290  -8.167  0.00  0.00    +0.010 A 
ATOM     10  C   UNL     1       2.597  -1.877  -9.415  0.00  0.00    +0.002 A 
ATOM     11  C   UNL     1       2.414  -0.576  -9.853  0.00  0.00    +0.017 A 
ATOM     12  C   UNL     1       1.821   0.393  -9.061  0.00  0.00    +0.042 A 
ATOM     13  C   UNL     1       1.410   0.002  -7.787  0.00  0.00    +0.061 A 
ATOM     14  N   UNL     1       0.806   0.685  -6.771  0.00  0.00    -0.357 N 
ATOM     15  H   UNL     1       0.557   1.622  -6.800  0.00  0.00    +0.166 HD
ATOM     16 BR   UNL     1       1.581   2.164  -9.677  0.00  0.00    -0.048 Br
ATOM     17  C   UNL     1       1.002  -2.560  -5.061  0.00  0.00    +0.145 C 
ENDROOT
BRANCH   1  18
ATOM     18  C   UNL     1       0.737  -2.030  -1.265  0.00  0.00    +0.160 C 
BRANCH  18  19
ATOM     19  N   UNL     1       1.119  -3.020  -0.255  0.00  0.00    -0.288 N 
ATOM     20  C   UNL     1       0.406  -3.132   0.883  0.00  0.00    +0.298 C 
ATOM     21  O   UNL     1      -0.555  -2.411   1.071  0.00  0.00    -0.253 OA
ATOM     22  N   UNL     1       0.757  -4.043   1.812  0.00  0.00    -0.313 N 
ATOM     23  H   UNL     1       1.885  -3.596  -0.406  0.00  0.00    +0.151 HD
ATOM     24  H   UNL     1       1.523  -4.618   1.661  0.00  0.00    +0.146 HD
ATOM     25  H   UNL     1       0.243  -4.123   2.631  0.00  0.00    +0.146 HD
ENDBRANCH  18  19
BRANCH  18  26
ATOM     26  C   UNL     1       1.361  -0.678  -0.915  0.00  0.00    +0.031 C 
BRANCH  26  28
ATOM     27  C   UNL     1       1.377   1.194   0.741  0.00  0.00    +0.004 C 
ATOM     28  C   UNL     1       0.754  -0.159   0.390  0.00  0.00    -0.001 C 
ENDBRANCH  26  28
ENDBRANCH  18  26
ENDBRANCH   1  18
TORSDOF 4
