REMARK  Name = ZINC09344960
REMARK  9 active torsions:
REMARK  status: ('A' for Active; 'I' for Inactive)
REMARK    1  A    between atoms: C_1  and  C_2
REMARK    2  A    between atoms: C_10  and  C_20
REMARK    3  A    between atoms: C_16  and  S_18
REMARK    4  A    between atoms: S_18  and  C_19
REMARK    5  A    between atoms: C_23  and  O_26
REMARK    6  A    between atoms: O_26  and  C_27
REMARK    7  A    between atoms: C_28  and  C_31
REMARK    8  A    between atoms: C_35  and  O_37
REMARK    9  A    between atoms: O_37  and  C_38
REMARK                            x       y       z     vdW  Elec       q    Type
REMARK                         _______ _______ _______ _____ _____    ______ ____
ROOT
ATOM      1  C   UNL     1       0.032   1.422  -0.380  0.00  0.00    +0.044 C 
ATOM      2  C   UNL     1       0.039  -0.083  -0.295  0.00  0.00    -0.050 A 
ATOM      3  C   UNL     1       0.031  -0.839  -1.454  0.00  0.00    +0.007 A 
ATOM      4  C   UNL     1       0.037  -2.220  -1.392  0.00  0.00    +0.046 A 
ATOM      5  C   UNL     1       0.053  -2.854  -0.163  0.00  0.00    +0.131 A 
ATOM      6  C   UNL     1       0.061  -2.089   1.010  0.00  0.00    +0.040 A 
ATOM      7  C   UNL     1       0.060  -0.703   0.940  0.00  0.00    +0.017 A 
ATOM      8  C   UNL     1       0.072  -2.800   2.315  0.00  0.00    +0.058 C 
ATOM      9  C   UNL     1      -0.250  -4.109   2.312  0.00  0.00    +0.025 C 
ATOM     10  C   UNL     1      -0.235  -4.850   3.631  0.00  0.00    +0.159 C 
ATOM     11  N   UNL     1       0.136  -4.057   4.810  0.00  0.00    -0.209 N 
ATOM     12  C   UNL     1       0.436  -2.719   4.647  0.00  0.00    +0.216 C 
ATOM     13  N   UNL     1       0.396  -2.152   3.460  0.00  0.00    -0.326 N 
ATOM     14  N   UNL     1       0.737  -2.227   5.863  0.00  0.00    -0.192 NA
ATOM     15  C   UNL     1       0.646  -3.174   6.775  0.00  0.00    +0.174 C 
ATOM     16  N   UNL     1       0.272  -4.345   6.170  0.00  0.00    -0.239 N 
ATOM     17  C   UNL     1      -0.622  -4.802   1.033  0.00  0.00    +0.234 C 
ATOM     18  O   UNL     1       0.063  -4.209  -0.072  0.00  0.00    -0.479 OA
ATOM     19  H   UNL     1       0.614  -1.208   3.401  0.00  0.00    +0.169 HD
ATOM     20  H   UNL     1       0.130  -5.202   6.600  0.00  0.00    +0.172 HD
ENDROOT
BRANCH  10  21
ATOM     21  C   UNL     1       0.737  -5.995   3.515  0.00  0.00    -0.021 A 
ATOM     22  C   UNL     1       2.094  -5.766   3.654  0.00  0.00    +0.009 A 
ATOM     23  C   UNL     1       2.987  -6.815   3.548  0.00  0.00    +0.046 A 
ATOM     24  C   UNL     1       2.522  -8.098   3.302  0.00  0.00    +0.120 A 
ATOM     25  C   UNL     1       1.161  -8.326   3.164  0.00  0.00    +0.046 A 
ATOM     26  C   UNL     1       0.271  -7.275   3.276  0.00  0.00    +0.009 A 
BRANCH  24  27
ATOM     27  O   UNL     1       3.399  -9.131   3.197  0.00  0.00    -0.495 OA
ATOM     28  C   UNL     1       2.849 -10.426   2.943  0.00  0.00    +0.277 C 
ENDBRANCH  24  27
ENDBRANCH  10  21
BRANCH  17  29
ATOM     29  C   UNL     1      -2.108  -4.684   0.816  0.00  0.00    +0.000 A 
ATOM     30  C   UNL     1      -2.648  -3.494   0.364  0.00  0.00    +0.008 A 
ATOM     31  C   UNL     1      -4.011  -3.383   0.164  0.00  0.00    +0.004 A 
ATOM     32  C   UNL     1      -4.838  -4.461   0.414  0.00  0.00    +0.045 A 
ATOM     33  C   UNL     1      -4.299  -5.656   0.867  0.00  0.00    +0.120 A 
ATOM     34  C   UNL     1      -2.929  -5.767   1.062  0.00  0.00    +0.053 A 
BRANCH  33  35
ATOM     35  O   UNL     1      -5.110  -6.719   1.114  0.00  0.00    -0.495 OA
ATOM     36  C   UNL     1      -6.508  -6.534   0.886  0.00  0.00    +0.277 C 
ENDBRANCH  33  35
ENDBRANCH  17  29
BRANCH  15  37
ATOM     37  S   UNL     1       0.956  -2.967   8.498  0.00  0.00    -0.092 S 
ATOM     38  C   UNL     1       1.401  -1.216   8.656  0.00  0.00    +0.093 C 
ENDBRANCH  15  37
TORSDOF 5
