REMARK  Name = ZINC38154853
REMARK  5 active torsions:
REMARK  status: ('A' for Active; 'I' for Inactive)
REMARK    1  A    between atoms: C_1  and  C_2
REMARK    2  A    between atoms: C_7  and  C_8
REMARK    3  A    between atoms: C_7  and  C_9
REMARK    4  A    between atoms: N_12  and  C_18
REMARK    5  A    between atoms: C_14  and  C_15
REMARK                            x       y       z     vdW  Elec       q    Type
REMARK                         _______ _______ _______ _____ _____    ______ ____
ROOT
ATOM      1  C   UNL     1      -0.001   1.492  -0.121  0.00  0.00    +0.018 C 
ATOM      2  C   UNL     1       0.003  -0.038  -0.100  0.00  0.00    +0.016 C 
ATOM      3  C   UNL     1       0.588  -0.744  -1.365  0.00  0.00    +0.014 C 
ATOM      4  C   UNL     1       0.875  -2.188  -0.885  0.00  0.00    +0.010 C 
ATOM      5  C   UNL     1       0.427  -2.180   0.612  0.00  0.00    +0.030 C 
ATOM      6  C   UNL     1       0.861  -0.725   1.026  0.00  0.00    -0.017 C 
ATOM      7  C   UNL     1       2.363  -0.506   0.831  0.00  0.00    +0.012 C 
ATOM      8  C   UNL     1       0.400  -0.336   2.432  0.00  0.00    +0.012 C 
ATOM      9  C   UNL     1      -1.089  -2.018   0.552  0.00  0.00    +0.012 A 
ATOM     10  C   UNL     1      -1.346  -0.714   0.145  0.00  0.00    +0.056 A 
ATOM     11  N   UNL     1      -2.687  -0.560   0.107  0.00  0.00    -0.235 N 
ATOM     12  N   UNL     1      -3.268  -1.645   0.484  0.00  0.00    -0.159 NA
ATOM     13  C   UNL     1      -2.337  -2.633   0.755  0.00  0.00    +0.177 A 
ENDROOT
BRANCH  11  14
ATOM     14  C   UNL     1      -3.350   0.611  -0.285  0.00  0.00    +0.066 A 
ATOM     15  C   UNL     1      -4.446   1.065   0.437  0.00  0.00    +0.030 A 
ATOM     16  C   UNL     1      -5.098   2.219   0.050  0.00  0.00    +0.040 A 
ATOM     17  C   UNL     1      -4.659   2.924  -1.059  0.00  0.00    +0.124 A 
ATOM     18  C   UNL     1      -3.566   2.473  -1.781  0.00  0.00    +0.040 A 
ATOM     19  C   UNL     1      -2.909   1.322  -1.393  0.00  0.00    +0.030 A 
ATOM     20  F   UNL     1      -5.298   4.052  -1.437  0.00  0.00    -0.205 F 
ENDBRANCH  11  14
BRANCH  13  21
ATOM     21  C   UNL     1      -2.570  -4.011   1.218  0.00  0.00    +0.407 C 
ATOM     22  O   UNL     1      -1.621  -4.742   1.467  0.00  0.00    -0.239 OA
ATOM     23  O   UNL     1      -3.713  -4.426   1.354  0.00  0.00    -0.239 OA
ENDBRANCH  13  21
TORSDOF 2
