REMARK  Name = ZINC23136263
REMARK  8 active torsions:
REMARK  status: ('A' for Active; 'I' for Inactive)
REMARK    1  A    between atoms: C_1  and  C_2
REMARK    2  A    between atoms: C_2  and  N_3
REMARK    3  A    between atoms: C_4  and  C_22
REMARK    4  A    between atoms: C_7  and  S_8
REMARK    5  A    between atoms: S_8  and  C_9
REMARK    6  A    between atoms: C_9  and  C_10
REMARK    7  A    between atoms: N_12  and  C_13
REMARK    8  A    between atoms: N_26  and  C_29
REMARK                            x       y       z     vdW  Elec       q    Type
REMARK                         _______ _______ _______ _____ _____    ______ ____
ROOT
ATOM      1  N   UNL     1       9.174  -4.196   5.795  0.00  0.00    -0.302 N 
ATOM      2  C   UNL     1      10.407  -3.649   6.070  0.00  0.00    +0.170 A 
ATOM      3  N   UNL     1      10.443  -2.470   5.491  0.00  0.00    -0.128 NA
ATOM      4  N   UNL     1       9.336  -2.248   4.878  0.00  0.00    -0.122 NA
ATOM      5  C   UNL     1       8.520  -3.267   5.035  0.00  0.00    +0.192 A 
ENDROOT
BRANCH   2   6
ATOM      6  C   UNL     1      11.484  -4.270   6.864  0.00  0.00    +0.084 A 
ATOM      7  C   UNL     1      11.264  -4.641   8.185  0.00  0.00    +0.018 A 
ATOM      8  C   UNL     1      12.307  -5.227   8.908  0.00  0.00    +0.019 A 
ATOM      9  C   UNL     1      13.513  -5.426   8.322  0.00  0.00    +0.089 A 
ATOM     10  N   UNL     1      13.735  -5.064   7.032  0.00  0.00    -0.318 N 
ATOM     11  C   UNL     1      12.760  -4.503   6.291  0.00  0.00    +0.262 A 
ATOM     12  O   UNL     1      12.976  -4.190   5.132  0.00  0.00    -0.267 OA
ATOM     13  C   UNL     1      15.052  -5.296   6.434  0.00  0.00    +0.152 C 
ENDBRANCH   2   6
BRANCH   1  15
ATOM     14  C   UNL     1       9.119  -6.577   5.239  0.00  0.00    +0.027 C 
ATOM     15  C   UNL     1       8.667  -5.500   6.228  0.00  0.00    +0.122 C 
ENDBRANCH   1  15
BRANCH   5  16
ATOM     16  S   UNL     1       6.891  -3.411   4.380  0.00  0.00    -0.077 S 
BRANCH  16  17
ATOM     17  C   UNL     1       6.756  -1.824   3.520  0.00  0.00    +0.173 C 
BRANCH  17  18
ATOM     18  C   UNL     1       5.403  -1.722   2.864  0.00  0.00    +0.227 C 
ATOM     19  O   UNL     1       4.608  -2.632   2.969  0.00  0.00    -0.275 OA
ATOM     20  N   UNL     1       5.076  -0.619   2.162  0.00  0.00    -0.285 N 
ATOM     21  H   UNL     1       5.826   0.169   1.996  0.00  0.00    +0.155 HD
BRANCH  20  22
ATOM     22  C   UNL     1       3.783  -0.476   1.644  0.00  0.00    +0.037 A 
ATOM     23  C   UNL     1       2.697  -1.002   2.332  0.00  0.00    +0.027 A 
ATOM     24  C   UNL     1       1.421  -0.862   1.822  0.00  0.00    +0.051 A 
ATOM     25  C   UNL     1       1.220  -0.196   0.623  0.00  0.00    +0.166 A 
ATOM     26  C   UNL     1       2.307   0.333  -0.069  0.00  0.00    +0.168 A 
ATOM     27  C   UNL     1       3.586   0.192   0.443  0.00  0.00    +0.072 A 
ATOM     28  O   UNL     1       1.849   0.933  -1.206  0.00  0.00    -0.453 OA
ATOM     29  C   UNL     1       0.437   1.124  -1.000  0.00  0.00    +0.466 C 
ATOM     30  O   UNL     1       0.081   0.073  -0.082  0.00  0.00    -0.453 OA
ENDBRANCH  20  22
ENDBRANCH  17  18
ENDBRANCH  16  17
ENDBRANCH   5  16
TORSDOF 6
