REMARK  Name = ZINC63375761
REMARK  4 active torsions:
REMARK  status: ('A' for Active; 'I' for Inactive)
REMARK    1  A    between atoms: C_1  and  C_2
REMARK    2  A    between atoms: C_16  and  C_19
REMARK    3  A    between atoms: C_19  and  C_20
REMARK    4  A    between atoms: N_31  and  C_34
REMARK                            x       y       z     vdW  Elec       q    Type
REMARK                         _______ _______ _______ _____ _____    ______ ____
ROOT
ATOM      1  C   UNL     1       1.059   1.678   0.830  0.00  0.00    +0.046 C 
ATOM      2  C   UNL     1       0.862   0.198   0.624  0.00  0.00    -0.028 A 
ATOM      3  C   UNL     1       0.873  -0.325  -0.653  0.00  0.00    +0.025 A 
ATOM      4  C   UNL     1       0.693  -1.683  -0.852  0.00  0.00    +0.042 A 
ATOM      5  C   UNL     1       0.502  -2.519   0.235  0.00  0.00    +0.027 A 
ATOM      6  C   UNL     1       0.490  -2.000   1.510  0.00  0.00    +0.005 A 
ATOM      7  C   UNL     1       0.675  -0.637   1.722  0.00  0.00    +0.042 A 
ATOM      8  N   UNL     1       0.631  -0.351   3.089  0.00  0.00    -0.283 N 
ATOM      9  C   UNL     1       0.429  -1.456   3.833  0.00  0.00    +0.243 C 
ATOM     10  O   UNL     1       0.345  -1.509   5.042  0.00  0.00    -0.273 OA
ATOM     11  C   UNL     1       0.314  -2.608   2.872  0.00  0.00    +0.136 C 
ATOM     12  C   UNL     1      -1.033  -3.328   2.998  0.00  0.00    +0.123 C 
ATOM     13  C   UNL     1      -0.737  -4.561   3.898  0.00  0.00    +0.107 C 
ATOM     14  C   UNL     1       0.767  -4.455   4.230  0.00  0.00    +0.072 C 
ATOM     15  N   UNL     1       1.345  -3.625   3.148  0.00  0.00    -0.295 NA
ATOM     16  C   UNL     1      -1.554  -4.289   5.141  0.00  0.00    +0.232 C 
ATOM     17  O   UNL     1      -1.614  -5.013   6.112  0.00  0.00    -0.274 OA
ATOM     18  N   UNL     1      -2.200  -3.126   5.003  0.00  0.00    -0.210 N 
ATOM     19  C   UNL     1      -1.984  -2.494   3.827  0.00  0.00    +0.233 C 
ATOM     20  O   UNL     1      -2.467  -1.436   3.485  0.00  0.00    -0.274 OA
ATOM     21 CL   UNL     1       0.707  -2.335  -2.461  0.00  0.00    -0.084 Cl
ATOM     22  H   UNL     1       0.733   0.540   3.459  0.00  0.00    +0.155 HD
ATOM     23  H   UNL     1       1.524  -4.189   2.330  0.00  0.00    +0.124 HD
ENDROOT
BRANCH  18  24
ATOM     24  C   UNL     1      -3.041  -2.603   5.996  0.00  0.00    +0.044 A 
ATOM     25  C   UNL     1      -2.508  -2.177   7.205  0.00  0.00    +0.024 A 
ATOM     26  C   UNL     1      -3.338  -1.662   8.181  0.00  0.00    +0.002 A 
ATOM     27  C   UNL     1      -4.700  -1.572   7.955  0.00  0.00    +0.000 A 
ATOM     28  C   UNL     1      -5.233  -1.995   6.752  0.00  0.00    +0.002 A 
ATOM     29  C   UNL     1      -4.407  -2.505   5.770  0.00  0.00    +0.024 A 
ENDBRANCH  18  24
BRANCH  14  30
ATOM     30  C   UNL     1       1.405  -5.845   4.259  0.00  0.00    +0.052 C 
BRANCH  30  31
ATOM     31  C   UNL     1       2.841  -5.730   4.704  0.00  0.00    -0.040 C 
ATOM     32  C   UNL     1       3.318  -5.886   5.959  0.00  0.00    -0.001 A 
ATOM     33  C   UNL     1       2.668  -6.198   7.238  0.00  0.00    +0.010 A 
ATOM     34  C   UNL     1       3.427  -6.291   8.354  0.00  0.00    +0.001 A 
ATOM     35  C   UNL     1       4.815  -6.098   8.319  0.00  0.00    +0.002 A 
ATOM     36  C   UNL     1       5.483  -5.809   7.183  0.00  0.00    +0.026 A 
ATOM     37  C   UNL     1       4.785  -5.688   5.950  0.00  0.00    +0.043 A 
ATOM     38  N   UNL     1       5.198  -5.418   4.735  0.00  0.00    -0.380 N 
ATOM     39  C   UNL     1       4.040  -5.422   3.835  0.00  0.00    +0.144 C 
ATOM     40  H   UNL     1       6.117  -5.249   4.475  0.00  0.00    +0.160 HD
ENDBRANCH  30  31
ENDBRANCH  14  30
TORSDOF 3
