REMARK  Name = ZINC66465881
REMARK  3 active torsions:
REMARK  status: ('A' for Active; 'I' for Inactive)
REMARK    1  A    between atoms: C_6  and  C_19
REMARK    2  A    between atoms: N_10  and  O_11
REMARK    3  A    between atoms: O_11  and  C_12
REMARK                            x       y       z     vdW  Elec       q    Type
REMARK                         _______ _______ _______ _____ _____    ______ ____
ROOT
ATOM      1  C   UNL     1      -0.017   1.404   0.010  0.00  0.00    +0.053 A 
ATOM      2  C   UNL     1       1.150   2.102   0.002  0.00  0.00    +0.054 A 
ATOM      3  C   UNL     1       2.369   1.400  -0.013  0.00  0.00    +0.178 A 
ATOM      4  N   UNL     1       3.640   1.774  -0.023  0.00  0.00    -0.128 NA
ATOM      5  N   UNL     1       4.397   0.734  -0.036  0.00  0.00    -0.127 NA
ATOM      6  C   UNL     1       3.660  -0.362  -0.035  0.00  0.00    +0.185 A 
ATOM      7  N   UNL     1       2.354   0.027  -0.020  0.00  0.00    -0.191 N 
ATOM      8  N   UNL     1       1.139  -0.660  -0.013  0.00  0.00    -0.144 NA
ATOM      9  C   UNL     1       0.002  -0.004   0.002  0.00  0.00    +0.171 A 
ATOM     10  N   UNL     1      -1.198  -0.708   0.010  0.00  0.00    -0.244 N 
ATOM     11  H   UNL     1      -2.041  -0.228   0.020  0.00  0.00    +0.196 HD
ENDROOT
BRANCH   6  12
ATOM     12  C   UNL     1       4.160  -1.753  -0.048  0.00  0.00    +0.024 A 
ATOM     13  C   UNL     1       3.297  -2.804  -0.364  0.00  0.00    +0.031 A 
ATOM     14  C   UNL     1       3.769  -4.102  -0.374  0.00  0.00    +0.043 A 
ATOM     15  C   UNL     1       5.095  -4.361  -0.072  0.00  0.00    +0.040 A 
ATOM     16  C   UNL     1       5.956  -3.323   0.242  0.00  0.00    +0.043 A 
ATOM     17  C   UNL     1       5.497  -2.021   0.250  0.00  0.00    +0.031 A 
ATOM     18 CL   UNL     1       7.617  -3.659   0.619  0.00  0.00    -0.083 Cl
ATOM     19 CL   UNL     1       2.698  -5.410  -0.766  0.00  0.00    -0.083 Cl
ENDBRANCH   6  12
BRANCH  10  20
ATOM     20  O   UNL     1      -1.188  -2.124   0.002  0.00  0.00    -0.241 OA
BRANCH  20  21
ATOM     21  C   UNL     1      -2.489  -2.714   0.011  0.00  0.00    +0.278 C 
ATOM     22  C   UNL     1      -2.431  -4.067   0.725  0.00  0.00    +0.064 C 
ATOM     23  C   UNL     1      -3.816  -4.720   0.677  0.00  0.00    +0.007 C 
ATOM     24  C   UNL     1      -4.257  -4.852  -0.783  0.00  0.00    +0.028 C 
ATOM     25  C   UNL     1      -4.245  -3.468  -1.439  0.00  0.00    +0.163 C 
ATOM     26  O   UNL     1      -2.936  -2.904  -1.333  0.00  0.00    -0.349 OA
ENDBRANCH  20  21
ENDBRANCH  10  20
TORSDOF 3
