REMARK  Name = ZINC39883280
REMARK  4 active torsions:
REMARK  status: ('A' for Active; 'I' for Inactive)
REMARK    1  A    between atoms: C_8  and  C_11
REMARK    2  A    between atoms: C_11  and  C_12
REMARK    3  A    between atoms: N_14  and  C_15
REMARK    4  A    between atoms: C_16  and  C_24
REMARK                            x       y       z     vdW  Elec       q    Type
REMARK                         _______ _______ _______ _____ _____    ______ ____
ROOT
ATOM      1  C   UNL     1       4.446  -2.239  -1.469  0.00  0.00    +0.222 C 
ATOM      2  O   UNL     1       4.065  -1.534  -2.380  0.00  0.00    -0.275 OA
ATOM      3  N   UNL     1       4.924  -3.473  -1.726  0.00  0.00    -0.279 N 
ATOM      4  H   UNL     1       5.229  -4.036  -0.997  0.00  0.00    +0.155 HD
ENDROOT
BRANCH   3   5
ATOM      5  C   UNL     1       4.980  -3.937  -3.032  0.00  0.00    +0.090 A 
ATOM      6  C   UNL     1       5.431  -5.168  -3.480  0.00  0.00    +0.084 A 
ATOM      7  C   UNL     1       5.385  -5.413  -4.910  0.00  0.00    -0.018 A 
ATOM      8  C   UNL     1       4.896  -4.380  -5.632  0.00  0.00    -0.004 A 
ATOM      9  S   UNL     1       4.510  -3.139  -4.433  0.00  0.00    -0.077 S 
ATOM     10  C   UNL     1       4.725  -4.323  -7.119  0.00  0.00    +0.043 C 
ATOM     11  C   UNL     1       5.537  -5.468  -7.742  0.00  0.00    +0.005 C 
ATOM     12  C   UNL     1       5.229  -6.763  -6.985  0.00  0.00    +0.005 C 
ATOM     13  C   UNL     1       5.835  -6.702  -5.581  0.00  0.00    +0.037 C 
BRANCH   6  14
ATOM     14  C   UNL     1       5.922  -6.158  -2.570  0.00  0.00    +0.102 C 
ATOM     15  N   UNL     1       6.312  -6.944  -1.847  0.00  0.00    -0.191 NA
ENDBRANCH   6  14
ENDBRANCH   3   5
BRANCH   1  16
ATOM     16  C   UNL     1       4.386  -1.735  -0.050  0.00  0.00    +0.135 C 
BRANCH  16  24
ATOM     17  C   UNL     1      -0.017   1.384   0.010  0.00  0.00    +0.019 A 
ATOM     18  C   UNL     1       1.159   2.103   0.002  0.00  0.00    +0.048 A 
ATOM     19  C   UNL     1       2.379   1.439  -0.013  0.00  0.00    +0.135 A 
ATOM     20  C   UNL     1       2.398   0.034  -0.021  0.00  0.00    +0.025 A 
ATOM     21  C   UNL     1       1.202  -0.682  -0.012  0.00  0.00    +0.027 A 
ATOM     22  C   UNL     1       0.002  -0.004   0.002  0.00  0.00    +0.019 A 
ATOM     23 BR   UNL     1      -1.625  -0.968   0.012  0.00  0.00    -0.050 Br
ATOM     24  C   UNL     1       3.817  -0.339  -0.037  0.00  0.00    +0.007 A 
ATOM     25  C   UNL     1       4.506   0.810  -0.038  0.00  0.00    +0.200 A 
ATOM     26  O   UNL     1       3.661   1.856  -0.024  0.00  0.00    -0.463 OA
ENDBRANCH  16  24
ENDBRANCH   1  16
TORSDOF 4
