REMARK  Name = ZINC00924939
REMARK  10 active torsions:
REMARK  status: ('A' for Active; 'I' for Inactive)
REMARK    1  A    between atoms: C_1  and  C_2
REMARK    2  A    between atoms: C_6  and  C_8
REMARK    3  A    between atoms: C_8  and  C_9
REMARK    4  A    between atoms: C_9  and  N_10
REMARK    5  A    between atoms: N_10  and  C_11
REMARK    6  A    between atoms: N_10  and  S_26
REMARK    7  A    between atoms: C_11  and  C_12
REMARK    8  A    between atoms: C_16  and  C_25
REMARK    9  A    between atoms: C_17  and  C_24
REMARK   10  A    between atoms: S_26  and  C_29
REMARK                            x       y       z     vdW  Elec       q    Type
REMARK                         _______ _______ _______ _____ _____    ______ ____
ROOT
ATOM      1  N   UNL     1       4.113  -1.260  -1.532  0.00  0.00    -0.172 NA
ENDROOT
BRANCH   1   2
ATOM      2  S   UNL     1       3.871  -1.266   0.106  0.00  0.00    +0.061 S 
ATOM      3  O   UNL     1       4.981  -0.592   0.683  0.00  0.00    -0.153 OA
ATOM      4  O   UNL     1       3.520  -2.597   0.459  0.00  0.00    -0.153 OA
BRANCH   2   5
ATOM      5  C   UNL     1       2.454  -0.270   0.427  0.00  0.00    +0.109 A 
ATOM      6  C   UNL     1       1.189  -0.822   0.345  0.00  0.00    +0.032 A 
ATOM      7  C   UNL     1       0.075  -0.043   0.594  0.00  0.00    +0.051 A 
ATOM      8  C   UNL     1       0.223   1.296   0.926  0.00  0.00    +0.162 A 
ATOM      9  C   UNL     1       1.495   1.850   1.012  0.00  0.00    +0.164 A 
ATOM     10  C   UNL     1       2.609   1.063   0.759  0.00  0.00    +0.078 A 
ATOM     11  O   UNL     1       1.663   3.159   1.344  0.00  0.00    -0.485 OA
ATOM     12  C   UNL     1       0.516   4.006   1.224  0.00  0.00    +0.270 C 
ATOM     13  C   UNL     1      -0.682   3.287   1.858  0.00  0.00    +0.270 C 
ATOM     14  O   UNL     1      -0.883   2.053   1.160  0.00  0.00    -0.485 OA
ENDBRANCH   2   5
ENDBRANCH   1   2
BRANCH   1  15
ATOM     15  C   UNL     1       5.047  -0.304  -2.131  0.00  0.00    +0.114 C 
BRANCH  15  16
ATOM     16  C   UNL     1       6.437  -0.937  -2.221  0.00  0.00    +0.052 C 
BRANCH  16  22
ATOM     17  C   UNL     1       9.744   2.702  -1.288  0.00  0.00    +0.044 C 
ATOM     18  C   UNL     1       9.007   1.829  -2.271  0.00  0.00    -0.050 A 
ATOM     19  C   UNL     1       9.237   1.968  -3.627  0.00  0.00    +0.003 A 
ATOM     20  C   UNL     1       8.561   1.166  -4.528  0.00  0.00    +0.001 A 
ATOM     21  C   UNL     1       7.658   0.224  -4.073  0.00  0.00    +0.004 A 
ATOM     22  C   UNL     1       7.425   0.088  -2.717  0.00  0.00    -0.046 A 
ATOM     23  C   UNL     1       8.101   0.889  -1.816  0.00  0.00    +0.007 A 
ENDBRANCH  16  22
ENDBRANCH  15  16
ENDBRANCH   1  15
BRANCH   1  24
ATOM     24  C   UNL     1       3.393  -2.211  -2.383  0.00  0.00    +0.150 C 
BRANCH  24  25
ATOM     25  C   UNL     1       4.298  -3.368  -2.720  0.00  0.00    +0.033 A 
ATOM     26  C   UNL     1       4.277  -4.487  -1.955  0.00  0.00    +0.020 A 
ATOM     27  C   UNL     1       5.168  -5.594  -2.310  0.00  0.00    -0.001 A 
ATOM     28  C   UNL     1       5.192  -6.773  -1.559  0.00  0.00    +0.013 A 
ATOM     29  C   UNL     1       6.035  -7.787  -1.915  0.00  0.00    -0.047 A 
ATOM     30  C   UNL     1       6.869  -7.657  -3.018  0.00  0.00    -0.046 A 
ATOM     31  C   UNL     1       6.862  -6.504  -3.773  0.00  0.00    +0.030 A 
ATOM     32  C   UNL     1       6.012  -5.458  -3.428  0.00  0.00    +0.049 A 
ATOM     33  N   UNL     1       5.985  -4.294  -4.166  0.00  0.00    -0.322 N 
ATOM     34  H   UNL     1       6.588  -4.198  -4.958  0.00  0.00    +0.169 HD
ATOM     35  C   UNL     1       5.159  -3.285  -3.835  0.00  0.00    +0.254 A 
ATOM     36  O   UNL     1       5.158  -2.272  -4.513  0.00  0.00    -0.268 OA
ATOM     37  C   UNL     1       7.791  -8.788  -3.393  0.00  0.00    +0.044 C 
ATOM     38  C   UNL     1       6.060  -9.058  -1.106  0.00  0.00    +0.044 C 
ENDBRANCH  24  25
ENDBRANCH   1  24
TORSDOF 7
