REMARK  Name = ZINC12592109
REMARK  4 active torsions:
REMARK  status: ('A' for Active; 'I' for Inactive)
REMARK    1  A    between atoms: N_8  and  C_11
REMARK    2  A    between atoms: C_15  and  S_17
REMARK    3  A    between atoms: S_17  and  N_20
REMARK    4  A    between atoms: N_20  and  C_21
REMARK                            x       y       z     vdW  Elec       q    Type
REMARK                         _______ _______ _______ _____ _____    ______ ____
ROOT
ATOM      1  C   UNL     1       3.663  -3.444   0.293  0.00  0.00    +0.037 A 
ATOM      2  C   UNL     1       2.966  -4.631   0.475  0.00  0.00    +0.025 A 
ATOM      3  C   UNL     1       3.654  -5.816   0.645  0.00  0.00    +0.024 A 
ATOM      4  C   UNL     1       5.038  -5.821   0.634  0.00  0.00    +0.068 A 
ATOM      5  C   UNL     1       5.736  -4.639   0.452  0.00  0.00    +0.130 A 
ATOM      6  C   UNL     1       5.052  -3.452   0.277  0.00  0.00    +0.053 A 
ATOM      7 CL   UNL     1       5.901  -7.312   0.848  0.00  0.00    -0.082 Cl
ENDROOT
BRANCH   1  15
ATOM      8  C   UNL     1       0.451   1.740   0.110  0.00  0.00    +0.000 A 
ATOM      9  C   UNL     1       0.927   1.775  -1.189  0.00  0.00    +0.001 A 
ATOM     10  C   UNL     1       1.744   0.768  -1.658  0.00  0.00    +0.011 A 
ATOM     11  C   UNL     1       2.092  -0.292  -0.818  0.00  0.00    +0.018 A 
ATOM     12  C   UNL     1       1.608  -0.318   0.489  0.00  0.00    -0.019 A 
ATOM     13  C   UNL     1       0.792   0.693   0.948  0.00  0.00    +0.006 A 
ATOM     14  C   UNL     1       2.151  -1.568   1.136  0.00  0.00    +0.148 C 
ATOM     15  N   UNL     1       2.968  -2.242   0.120  0.00  0.00    -0.282 N 
ATOM     16  C   UNL     1       2.933  -1.489  -1.032  0.00  0.00    +0.104 C 
ATOM     17  N   UNL     1       3.546  -1.787  -2.141  0.00  0.00    -0.386 N 
ATOM     18  H   UNL     1       3.533  -1.164  -2.885  0.00  0.00    +0.157 HD
ATOM     19  H   UNL     1       4.016  -2.632  -2.224  0.00  0.00    +0.157 HD
ENDBRANCH   1  15
BRANCH   5  20
ATOM     20  S   UNL     1       7.497  -4.651   0.438  0.00  0.00    +0.093 S 
ATOM     21  O   UNL     1       7.890  -5.690  -0.448  0.00  0.00    -0.148 OA
ATOM     22  O   UNL     1       7.911  -3.302   0.262  0.00  0.00    -0.148 OA
BRANCH  20  23
ATOM     23  N   UNL     1       7.996  -5.104   1.950  0.00  0.00    -0.098 NA
BRANCH  23  24
ATOM     24  C   UNL     1       9.360  -5.201   2.236  0.00  0.00    +0.076 A 
ATOM     25  C   UNL     1      10.299  -4.911   1.254  0.00  0.00    +0.027 A 
ATOM     26  C   UNL     1      11.647  -5.007   1.540  0.00  0.00    +0.003 A 
ATOM     27  C   UNL     1      12.063  -5.392   2.801  0.00  0.00    +0.020 A 
ATOM     28  C   UNL     1      11.130  -5.681   3.782  0.00  0.00    +0.043 A 
ATOM     29  C   UNL     1       9.780  -5.581   3.504  0.00  0.00    +0.046 A 
ATOM     30 CL   UNL     1      11.657  -6.164   5.364  0.00  0.00    -0.083 Cl
ENDBRANCH  23  24
ENDBRANCH  20  23
ENDBRANCH   5  20
TORSDOF 4
