REMARK  Name = ZINC39436230
REMARK  11 active torsions:
REMARK  status: ('A' for Active; 'I' for Inactive)
REMARK    1  A    between atoms: C_1  and  C_2
REMARK    2  A    between atoms: C_2  and  O_3
REMARK    3  A    between atoms: O_3  and  C_4
REMARK    4  A    between atoms: C_4  and  C_6
REMARK    5  A    between atoms: C_8  and  N_15
REMARK    6  A    between atoms: C_11  and  C_14
REMARK    7  A    between atoms: C_12  and  C_13
REMARK    8  A    between atoms: C_16  and  C_18
REMARK    9  A    between atoms: C_18  and  S_19
REMARK   10  A    between atoms: S_19  and  C_20
REMARK   11  A    between atoms: C_23  and  C_26
REMARK                            x       y       z     vdW  Elec       q    Type
REMARK                         _______ _______ _______ _____ _____    ______ ____
ROOT
ATOM      1  N   UNL     1       1.376  -4.523   3.770  0.00  0.00    -0.301 N 
ATOM      2  C   UNL     1       0.502  -5.520   4.008  0.00  0.00    +0.224 C 
ATOM      3  O   UNL     1      -0.212  -5.927   3.116  0.00  0.00    -0.275 OA
ATOM      4  H   UNL     1       1.947  -4.198   4.483  0.00  0.00    +0.150 HD
ENDROOT
BRANCH   1   6
ATOM      5  C   UNL     1       1.516  -2.381   2.500  0.00  0.00    +0.155 C 
ATOM      6  C   UNL     1       1.464  -3.930   2.433  0.00  0.00    +0.153 C 
ATOM      7  S   UNL     1       3.110  -4.236   1.663  0.00  0.00    -0.106 S 
ATOM      8  C   UNL     1       3.899  -2.698   2.103  0.00  0.00    -0.016 C 
ATOM      9  C   UNL     1       2.932  -1.899   2.504  0.00  0.00    -0.047 C 
ATOM     10  C   UNL     1       3.253  -0.502   2.967  0.00  0.00    +0.041 C 
ATOM     11  C   UNL     1       5.370  -2.378   2.030  0.00  0.00    +0.051 C 
BRANCH   5  12
ATOM     12  C   UNL     1       0.801  -1.808   1.304  0.00  0.00    +0.317 C 
ATOM     13  O   UNL     1       0.324  -2.546   0.475  0.00  0.00    -0.250 OA
BRANCH  12  14
ATOM     14  O   UNL     1       0.693  -0.477   1.160  0.00  0.00    -0.464 OA
BRANCH  14  16
ATOM     15  C   UNL     1      -0.019   1.526   0.010  0.00  0.00    +0.048 C 
ATOM     16  C   UNL     1       0.002  -0.004   0.002  0.00  0.00    +0.229 C 
ENDBRANCH  14  16
ENDBRANCH  12  14
ENDBRANCH   5  12
ENDBRANCH   1   6
BRANCH   2  17
ATOM     17  C   UNL     1       0.411  -6.130   5.383  0.00  0.00    +0.173 C 
BRANCH  17  18
ATOM     18  S   UNL     1      -0.847  -7.437   5.383  0.00  0.00    -0.077 S 
BRANCH  18  19
ATOM     19  C   UNL     1      -0.833  -8.043   7.038  0.00  0.00    +0.185 A 
ATOM     20  H   UNL     1      -2.283  -9.537   7.043  0.00  0.00    +0.191 HD
ATOM     21  N   UNL     1      -0.064  -7.609   8.012  0.00  0.00    -0.201 NA
ATOM     22  C   UNL     1      -0.323  -8.299   9.133  0.00  0.00    +0.182 A 
ATOM     23  N   UNL     1      -1.263  -9.181   8.880  0.00  0.00    -0.152 NA
ATOM     24  N   UNL     1      -1.614  -9.030   7.529  0.00  0.00    -0.253 N 
BRANCH  22  25
ATOM     25  C   UNL     1       0.343  -8.099  10.443  0.00  0.00    +0.021 A 
ATOM     26  C   UNL     1       1.327  -7.123  10.585  0.00  0.00    +0.013 A 
ATOM     27  C   UNL     1       1.943  -6.941  11.806  0.00  0.00    +0.021 A 
ATOM     28  C   UNL     1       1.586  -7.726  12.889  0.00  0.00    +0.041 A 
ATOM     29  C   UNL     1       0.610  -8.698  12.752  0.00  0.00    +0.021 A 
ATOM     30  C   UNL     1      -0.017  -8.884  11.537  0.00  0.00    +0.013 A 
ATOM     31 CL   UNL     1       2.366  -7.492  14.422  0.00  0.00    -0.084 Cl
ENDBRANCH  22  25
ENDBRANCH  18  19
ENDBRANCH  17  18
ENDBRANCH   2  17
TORSDOF 8
