REMARK  Name = ZINC39639340
REMARK  10 active torsions:
REMARK  status: ('A' for Active; 'I' for Inactive)
REMARK    1  A    between atoms: C_1  and  C_2
REMARK    2  A    between atoms: C_5  and  C_8
REMARK    3  A    between atoms: C_8  and  C_10
REMARK    4  A    between atoms: C_8  and  N_11
REMARK    5  A    between atoms: C_12  and  C_14
REMARK    6  A    between atoms: C_25  and  C_27
REMARK    7  A    between atoms: C_31  and  O_34
REMARK    8  A    between atoms: C_32  and  C_33
REMARK    9  A    between atoms: O_34  and  C_35
REMARK   10  A    between atoms: C_35  and  C_37
REMARK                            x       y       z     vdW  Elec       q    Type
REMARK                         _______ _______ _______ _____ _____    ______ ____
ROOT
ATOM      1  C   UNL     1       2.200  -7.216   1.733  0.00  0.00    +0.100 C 
ATOM      2  C   UNL     1       1.577  -7.065   3.139  0.00  0.00    +0.121 C 
ATOM      3  N   UNL     1       0.924  -8.369   3.401  0.00  0.00    -0.296 N 
ATOM      4  C   UNL     1       1.865  -9.371   2.846  0.00  0.00    +0.115 C 
ATOM      5  C   UNL     1       2.392  -8.730   1.546  0.00  0.00    -0.004 C 
ATOM      6  C   UNL     1       3.870  -9.057   1.357  0.00  0.00    -0.010 C 
ATOM      7  C   UNL     1       4.029 -10.561   1.115  0.00  0.00    -0.082 C 
ATOM      8  N   UNL     1       3.264 -10.950  -0.076  0.00  0.00    +0.379 N 
ATOM      9  C   UNL     1       1.833 -10.719   0.150  0.00  0.00    -0.082 C 
ATOM     10  C   UNL     1       1.581  -9.222   0.351  0.00  0.00    -0.010 C 
ATOM     11  C   UNL     1      -0.259  -8.593   4.007  0.00  0.00    +0.247 C 
ATOM     12  O   UNL     1      -0.619  -9.732   4.234  0.00  0.00    -0.270 OA
ATOM     13  H   UNL     1       3.572 -10.402  -0.865  0.00  0.00    -0.086 HD
ATOM     14  H   UNL     1       3.419 -11.929  -0.268  0.00  0.00    -0.086 HD
ENDROOT
BRANCH  11  15
ATOM     15  C   UNL     1      -1.118  -7.454   4.396  0.00  0.00    +0.043 A 
ATOM     16  C   UNL     1      -0.543  -6.267   4.852  0.00  0.00    +0.013 A 
ATOM     17  C   UNL     1      -1.348  -5.206   5.213  0.00  0.00    +0.004 A 
ATOM     18  C   UNL     1      -2.724  -5.315   5.125  0.00  0.00    +0.047 A 
ATOM     19  C   UNL     1      -3.304  -6.492   4.673  0.00  0.00    +0.135 A 
ATOM     20  C   UNL     1      -2.506  -7.561   4.303  0.00  0.00    +0.004 A 
ATOM     21  C   UNL     1      -3.134  -8.838   3.806  0.00  0.00    +0.048 C 
BRANCH  19  22
ATOM     22  O   UNL     1      -4.657  -6.593   4.589  0.00  0.00    -0.426 OA
BRANCH  22  23
ATOM     23  C   UNL     1      -5.316  -7.120   5.634  0.00  0.00    +0.309 C 
ATOM     24  O   UNL     1      -4.718  -7.400   6.646  0.00  0.00    -0.251 OA
ATOM     25  C   UNL     1      -6.801  -7.361   5.545  0.00  0.00    +0.136 C 
ENDBRANCH  22  23
ENDBRANCH  19  22
ENDBRANCH  11  15
BRANCH   1  27
ATOM     26  N   UNL     1       1.760  -6.192  -0.475  0.00  0.00    -0.308 N 
ATOM     27  C   UNL     1       1.266  -6.672   0.683  0.00  0.00    +0.219 C 
ATOM     28  O   UNL     1       0.069  -6.665   0.881  0.00  0.00    -0.275 OA
ATOM     29  H   UNL     1       2.717  -6.198  -0.634  0.00  0.00    +0.149 HD
BRANCH  26  30
ATOM     30  C   UNL     1       0.851  -5.663  -1.496  0.00  0.00    +0.100 C 
ATOM     31  C   UNL     1       0.541  -4.197  -1.191  0.00  0.00    +0.033 C 
BRANCH  30  36
ATOM     32  C   UNL     1       3.346  -6.063  -6.693  0.00  0.00    +0.044 C 
ATOM     33  C   UNL     1       2.696  -5.959  -5.338  0.00  0.00    -0.050 A 
ATOM     34  C   UNL     1       1.350  -6.239  -5.194  0.00  0.00    +0.004 A 
ATOM     35  C   UNL     1       0.753  -6.144  -3.950  0.00  0.00    +0.006 A 
ATOM     36  C   UNL     1       1.502  -5.769  -2.851  0.00  0.00    -0.027 A 
ATOM     37  C   UNL     1       2.848  -5.489  -2.995  0.00  0.00    +0.006 A 
ATOM     38  C   UNL     1       3.446  -5.589  -4.237  0.00  0.00    +0.004 A 
ENDBRANCH  30  36
ENDBRANCH  26  30
ENDBRANCH   1  27
TORSDOF 6
