REMARK  Name = ZINC64084010
REMARK  8 active torsions:
REMARK  status: ('A' for Active; 'I' for Inactive)
REMARK    1  A    between atoms: C_1  and  N_2
REMARK    2  A    between atoms: C_6  and  S_7
REMARK    3  A    between atoms: S_7  and  C_8
REMARK    4  A    between atoms: C_11  and  C_13
REMARK    5  A    between atoms: C_13  and  N_14
REMARK    6  A    between atoms: C_18  and  C_21
REMARK    7  A    between atoms: C_21  and  N_22
REMARK    8  A    between atoms: C_23  and  C_25
REMARK                            x       y       z     vdW  Elec       q    Type
REMARK                         _______ _______ _______ _____ _____    ______ ____
ROOT
ATOM      1  N   UNL     1      -1.256  -6.025   3.826  0.00  0.00    +0.385 N 
ATOM      2  C   UNL     1      -1.929  -5.473   2.644  0.00  0.00    -0.078 C 
ATOM      3  C   UNL     1      -3.388  -5.933   2.622  0.00  0.00    -0.018 C 
ATOM      4  C   UNL     1      -3.435  -7.463   2.569  0.00  0.00    +0.001 C 
ATOM      5  C   UNL     1      -2.666  -8.029   3.767  0.00  0.00    -0.011 C 
ATOM      6  C   UNL     1      -1.234  -7.491   3.747  0.00  0.00    -0.073 C 
ATOM      7  H   UNL     1      -1.754  -5.742   4.657  0.00  0.00    -0.081 HD
ENDROOT
BRANCH   1   8
ATOM      8  C   UNL     1       0.121  -5.518   3.885  0.00  0.00    -0.003 C 
BRANCH   8  12
ATOM      9  C   UNL     1       0.062  -1.871   3.662  0.00  0.00    +0.169 A 
ATOM     10  C   UNL     1       0.072  -2.009   5.009  0.00  0.00    +0.057 A 
ATOM     11  C   UNL     1       0.095  -3.396   5.278  0.00  0.00    +0.044 A 
ATOM     12  C   UNL     1       0.099  -4.026   4.090  0.00  0.00    +0.090 A 
ATOM     13  O   UNL     1       0.073  -3.099   3.114  0.00  0.00    -0.455 OA
BRANCH   9  14
ATOM     14  S   UNL     1       0.034  -0.347   2.779  0.00  0.00    -0.012 S 
BRANCH  14  20
ATOM     15  C   UNL     1      -0.018   1.461   0.010  0.00  0.00    +0.152 C 
ATOM     16  N   UNL     1       0.002  -0.004   0.002  0.00  0.00    -0.311 N 
ATOM     17  C   UNL     1       0.009  -0.824  -1.092  0.00  0.00    +0.225 A 
ATOM     18  N   UNL     1       0.027  -2.052  -0.657  0.00  0.00    -0.137 NA
ATOM     19  N   UNL     1       0.033  -2.065   0.628  0.00  0.00    -0.122 NA
ATOM     20  C   UNL     1       0.024  -0.834   1.086  0.00  0.00    +0.199 A 
ENDBRANCH  14  20
ENDBRANCH   9  14
ENDBRANCH   8  12
ENDBRANCH   1   8
BRANCH   5  21
ATOM     21  C   UNL     1      -2.641  -9.556   3.682  0.00  0.00    +0.106 C 
BRANCH  21  22
ATOM     22  N   UNL     1      -4.004 -10.075   3.817  0.00  0.00    -0.313 N 
ATOM     23  C   UNL     1      -4.226 -11.404   3.772  0.00  0.00    +0.239 C 
ATOM     24  O   UNL     1      -3.298 -12.169   3.621  0.00  0.00    -0.273 OA
ATOM     25  H   UNL     1      -4.746  -9.463   3.938  0.00  0.00    +0.149 HD
BRANCH  23  26
ATOM     26  C   UNL     1      -5.629 -11.938   3.911  0.00  0.00    +0.190 C 
ATOM     27  C   UNL     1      -6.193 -11.576   5.266  0.00  0.00    +0.016 C 
ATOM     28  C   UNL     1      -6.462 -12.748   5.886  0.00  0.00    -0.004 A 
ATOM     29  C   UNL     1      -7.017 -13.070   7.206  0.00  0.00    +0.010 A 
ATOM     30  C   UNL     1      -7.173 -14.368   7.553  0.00  0.00    +0.001 A 
ATOM     31  C   UNL     1      -6.818 -15.411   6.685  0.00  0.00    +0.002 A 
ATOM     32  C   UNL     1      -6.303 -15.194   5.457  0.00  0.00    +0.026 A 
ATOM     33  C   UNL     1      -6.096 -13.867   4.988  0.00  0.00    +0.043 A 
ATOM     34  N   UNL     1      -5.619 -13.404   3.856  0.00  0.00    -0.370 N 
ATOM     35  H   UNL     1      -5.311 -13.941   3.109  0.00  0.00    +0.161 HD
ENDBRANCH  23  26
ENDBRANCH  21  22
ENDBRANCH   5  21
TORSDOF 7
