REMARK  Name = ZINC14606475
REMARK  6 active torsions:
REMARK  status: ('A' for Active; 'I' for Inactive)
REMARK    1  A    between atoms: C_1  and  C_2
REMARK    2  A    between atoms: C_2  and  C_34
REMARK    3  A    between atoms: C_6  and  C_26
REMARK    4  A    between atoms: N_8  and  C_16
REMARK    5  A    between atoms: C_16  and  C_17
REMARK    6  A    between atoms: N_19  and  C_20
REMARK                            x       y       z     vdW  Elec       q    Type
REMARK                         _______ _______ _______ _____ _____    ______ ____
ROOT
ATOM      1  C   UNL     1      -1.019   4.615   2.666  0.00  0.00    +0.011 C 
ATOM      2  C   UNL     1      -1.494   3.402   3.469  0.00  0.00    -0.023 C 
ATOM      3  C   UNL     1      -2.545   2.632   2.671  0.00  0.00    +0.058 C 
ATOM      4  C   UNL     1      -1.949   2.136   1.367  0.00  0.00    +0.017 C 
ATOM      5  C   UNL     1      -0.645   1.841   1.267  0.00  0.00    +0.037 C 
ATOM      6  C   UNL     1       0.081   1.370   0.028  0.00  0.00    +0.146 C 
ATOM      7  N   UNL     1      -0.668   1.494  -1.201  0.00  0.00    -0.308 N 
ATOM      8  C   UNL     1      -1.770   0.652  -1.291  0.00  0.00    +0.052 A 
ATOM      9  C   UNL     1      -1.773  -0.420  -2.176  0.00  0.00    +0.025 A 
ATOM     10  C   UNL     1      -2.877  -1.252  -2.233  0.00  0.00    +0.002 A 
ATOM     11  C   UNL     1      -3.970  -1.023  -1.417  0.00  0.00    +0.002 A 
ATOM     12  C   UNL     1      -3.971   0.047  -0.539  0.00  0.00    +0.025 A 
ATOM     13  C   UNL     1      -2.868   0.884  -0.489  0.00  0.00    +0.052 A 
ATOM     14  N   UNL     1      -2.832   2.000   0.343  0.00  0.00    -0.316 N 
ATOM     15  C   UNL     1       0.198   1.968   2.403  0.00  0.00    +0.163 C 
ATOM     16  O   UNL     1       1.372   1.673   2.301  0.00  0.00    -0.292 OA
ATOM     17  C   UNL     1      -0.316   2.455   3.725  0.00  0.00    +0.086 C 
ATOM     18  C   UNL     1      -2.089   3.862   4.801  0.00  0.00    +0.011 C 
ATOM     19  H   UNL     1      -3.468   2.714   0.185  0.00  0.00    +0.152 HD
ENDROOT
BRANCH   6  20
ATOM     20  C   UNL     1       1.353   2.166  -0.108  0.00  0.00    +0.015 A 
ATOM     21  C   UNL     1       2.611   1.838   0.276  0.00  0.00    +0.013 A 
ATOM     22  C   UNL     1       3.638   2.733   0.044  0.00  0.00    +0.008 A 
ATOM     23  C   UNL     1       3.355   3.918  -0.552  0.00  0.00    +0.045 A 
ATOM     24  S   UNL     1       1.593   3.789  -0.811  0.00  0.00    -0.099 S 
ENDBRANCH   6  20
BRANCH   7  25
ATOM     25  C   UNL     1       0.209   1.341  -2.369  0.00  0.00    +0.201 C 
BRANCH  25  26
ATOM     26  C   UNL     1      -0.607   1.470  -3.630  0.00  0.00    +0.231 C 
ATOM     27  O   UNL     1      -1.774   1.793  -3.567  0.00  0.00    -0.274 OA
ATOM     28  N   UNL     1      -0.039   1.226  -4.828  0.00  0.00    -0.311 N 
ATOM     29  H   UNL     1       0.895   0.968  -4.878  0.00  0.00    +0.149 HD
BRANCH  28  30
ATOM     30  C   UNL     1      -0.832   1.352  -6.053  0.00  0.00    +0.073 C 
ATOM     31  C   UNL     1      -1.585   0.045  -6.309  0.00  0.00    +0.022 C 
ATOM     32  C   UNL     1      -2.413   0.175  -7.589  0.00  0.00    +0.002 C 
ATOM     33  C   UNL     1      -1.485   0.469  -8.770  0.00  0.00    +0.000 C 
ATOM     34  C   UNL     1      -0.731   1.776  -8.514  0.00  0.00    +0.002 C 
ATOM     35  C   UNL     1       0.097   1.645  -7.234  0.00  0.00    +0.022 C 
ENDBRANCH  28  30
ENDBRANCH  25  26
ENDBRANCH   7  25
TORSDOF 4
