REMARK  Name = ZINC09747199
REMARK  13 active torsions:
REMARK  status: ('A' for Active; 'I' for Inactive)
REMARK    1  A    between atoms: C_1  and  C_2
REMARK    2  A    between atoms: C_2  and  C_3
REMARK    3  A    between atoms: C_2  and  C_4
REMARK    4  A    between atoms: C_4  and  N_5
REMARK    5  A    between atoms: C_9  and  C_11
REMARK    6  A    between atoms: C_11  and  O_12
REMARK    7  A    between atoms: O_12  and  C_13
REMARK    8  A    between atoms: C_13  and  C_15
REMARK    9  A    between atoms: C_16  and  C_27
REMARK   10  A    between atoms: C_19  and  N_20
REMARK   11  A    between atoms: C_21  and  C_23
REMARK   12  A    between atoms: C_24  and  C_25
REMARK   13  A    between atoms: C_24  and  C_26
REMARK                            x       y       z     vdW  Elec       q    Type
REMARK                         _______ _______ _______ _____ _____    ______ ____
ROOT
ATOM      1  C   UNL     1      -3.438   1.640  -1.604  0.00  0.00    +0.095 A 
ATOM      2  C   UNL     1      -4.410   0.679  -2.089  0.00  0.00    +0.005 A 
ATOM      3  C   UNL     1      -3.979  -0.598  -2.249  0.00  0.00    +0.056 A 
ATOM      4  S   UNL     1      -2.270  -0.518  -1.758  0.00  0.00    -0.080 S 
ATOM      5  C   UNL     1      -2.159   1.161  -1.350  0.00  0.00    +0.087 A 
ENDROOT
BRANCH   2   6
ATOM      6  C   UNL     1      -5.806   1.073  -2.395  0.00  0.00    -0.017 A 
ATOM      7  C   UNL     1      -6.552   1.792  -1.462  0.00  0.00    +0.008 A 
ATOM      8  C   UNL     1      -7.849   2.160  -1.755  0.00  0.00    +0.001 A 
ATOM      9  C   UNL     1      -8.414   1.807  -2.967  0.00  0.00    +0.000 A 
ATOM     10  C   UNL     1      -7.681   1.089  -3.895  0.00  0.00    +0.001 A 
ATOM     11  C   UNL     1      -6.381   0.720  -3.616  0.00  0.00    +0.008 A 
ENDBRANCH   2   6
BRANCH   5  12
ATOM     12  N   UNL     1      -1.058   1.860  -0.886  0.00  0.00    -0.276 N 
ATOM     13  C   UNL     1       0.114   1.222  -0.696  0.00  0.00    +0.241 C 
ATOM     14  O   UNL     1       0.204   0.033  -0.932  0.00  0.00    -0.270 OA
ATOM     15  H   UNL     1      -1.130   2.809  -0.698  0.00  0.00    +0.156 HD
BRANCH  13  16
ATOM     16  C   UNL     1       1.285   1.966  -0.209  0.00  0.00    +0.066 C 
ATOM     17  C   UNL     1       2.409   1.318   0.087  0.00  0.00    -0.071 C 
ATOM     18  C   UNL     1       2.434  -0.189   0.078  0.00  0.00    +0.039 C 
ATOM     19  C   UNL     1       3.656   2.091   0.430  0.00  0.00    +0.039 C 
ENDBRANCH  13  16
ENDBRANCH   5  12
BRANCH   1  20
ATOM     20  C   UNL     1      -3.787   3.045  -1.393  0.00  0.00    +0.343 C 
ATOM     21  O   UNL     1      -3.653   3.848  -2.298  0.00  0.00    -0.245 OA
BRANCH  20  22
ATOM     22  O   UNL     1      -4.257   3.451  -0.196  0.00  0.00    -0.452 OA
BRANCH  22  23
ATOM     23  C   UNL     1      -4.583   4.859  -0.058  0.00  0.00    +0.328 C 
BRANCH  23  28
ATOM     24  N   UNL     1      -6.273   7.853   3.302  0.00  0.00    -0.299 N 
ATOM     25  C   UNL     1      -5.908   6.607   2.943  0.00  0.00    +0.306 C 
ATOM     26  O   UNL     1      -5.986   5.696   3.744  0.00  0.00    -0.252 OA
ATOM     27  N   UNL     1      -5.455   6.370   1.696  0.00  0.00    -0.237 N 
ATOM     28  C   UNL     1      -5.089   5.123   1.337  0.00  0.00    +0.258 C 
ATOM     29  O   UNL     1      -5.168   4.215   2.135  0.00  0.00    -0.272 OA
ATOM     30  H   UNL     1      -6.210   8.580   2.663  0.00  0.00    +0.150 HD
ATOM     31  H   UNL     1      -5.392   7.097   1.056  0.00  0.00    +0.159 HD
BRANCH  24  32
ATOM     32  C   UNL     1      -6.765   8.110   4.657  0.00  0.00    +0.108 C 
BRANCH  32  34
ATOM     33  C   UNL     1      -8.276   9.941   3.876  0.00  0.00    +0.009 C 
ATOM     34  C   UNL     1      -7.109   9.594   4.803  0.00  0.00    -0.000 C 
ATOM     35  C   UNL     1      -7.504   9.887   6.251  0.00  0.00    +0.009 C 
ENDBRANCH  32  34
ENDBRANCH  24  32
ENDBRANCH  23  28
ENDBRANCH  22  23
ENDBRANCH  20  22
ENDBRANCH   1  20
TORSDOF 9
