REMARK  Name = ZINC08928944
REMARK  7 active torsions:
REMARK  status: ('A' for Active; 'I' for Inactive)
REMARK    1  A    between atoms: N_9  and  C_12
REMARK    2  A    between atoms: C_15  and  C_18
REMARK    3  A    between atoms: C_18  and  O_20
REMARK    4  A    between atoms: O_20  and  C_21
REMARK    5  A    between atoms: C_21  and  C_22
REMARK    6  A    between atoms: N_24  and  C_25
REMARK    7  A    between atoms: C_26  and  C_35
REMARK                            x       y       z     vdW  Elec       q    Type
REMARK                         _______ _______ _______ _____ _____    ______ ____
ROOT
ATOM      1  C   UNL     1       2.641   5.421   0.006  0.00  0.00    +0.340 C 
ATOM      2  O   UNL     1       1.668   6.148   0.019  0.00  0.00    -0.245 OA
ENDROOT
BRANCH   1   6
ATOM      3  C   UNL     1       6.542   7.097  -0.021  0.00  0.00    +0.045 A 
ATOM      4  C   UNL     1       5.429   7.931  -0.007  0.00  0.00    +0.025 A 
ATOM      5  C   UNL     1       4.163   7.391   0.002  0.00  0.00    +0.017 A 
ATOM      6  C   UNL     1       3.996   6.003  -0.004  0.00  0.00    +0.059 A 
ATOM      7  C   UNL     1       5.118   5.168  -0.013  0.00  0.00    +0.017 A 
ATOM      8  C   UNL     1       6.381   5.716  -0.026  0.00  0.00    +0.025 A 
BRANCH   3  17
ATOM      9  C   UNL     1      12.306   8.821  -0.065  0.00  0.00    +0.001 A 
ATOM     10  C   UNL     1      11.761  10.091  -0.054  0.00  0.00    +0.001 A 
ATOM     11  C   UNL     1      10.386  10.265  -0.041  0.00  0.00    +0.014 A 
ATOM     12  C   UNL     1       9.553   9.158  -0.038  0.00  0.00    +0.050 A 
ATOM     13  C   UNL     1      10.109   7.862  -0.049  0.00  0.00    +0.050 A 
ATOM     14  C   UNL     1      11.486   7.704  -0.063  0.00  0.00    +0.014 A 
ATOM     15  C   UNL     1       8.963   6.930  -0.043  0.00  0.00    +0.258 C 
ATOM     16  O   UNL     1       9.035   5.718  -0.050  0.00  0.00    -0.269 OA
ATOM     17  N   UNL     1       7.826   7.649  -0.029  0.00  0.00    -0.202 N 
ATOM     18  C   UNL     1       8.087   8.968  -0.030  0.00  0.00    +0.258 C 
ATOM     19  O   UNL     1       7.258   9.855  -0.024  0.00  0.00    -0.269 OA
ENDBRANCH   3  17
ENDBRANCH   1   6
BRANCH   1  20
ATOM     20  O   UNL     1       2.483   4.083   0.000  0.00  0.00    -0.452 OA
BRANCH  20  21
ATOM     21  C   UNL     1       1.121   3.580   0.011  0.00  0.00    +0.328 C 
BRANCH  21  22
ATOM     22  C   UNL     1       1.141   2.074   0.002  0.00  0.00    +0.255 C 
ATOM     23  O   UNL     1       2.200   1.481  -0.011  0.00  0.00    -0.272 OA
ATOM     24  N   UNL     1      -0.017   1.384   0.010  0.00  0.00    -0.276 N 
ATOM     25  H   UNL     1      -0.863   1.857   0.016  0.00  0.00    +0.155 HD
BRANCH  24  26
ATOM     26  C   UNL     1       0.002  -0.004   0.002  0.00  0.00    +0.090 A 
ATOM     27  C   UNL     1      -1.071  -0.880   0.013  0.00  0.00    +0.084 A 
ATOM     28  C   UNL     1      -0.782  -2.307  -0.005  0.00  0.00    -0.018 A 
ATOM     29  C   UNL     1       0.531  -2.622  -0.015  0.00  0.00    -0.004 A 
ATOM     30  S   UNL     1       1.373  -1.062  -0.016  0.00  0.00    -0.077 S 
ATOM     31  C   UNL     1       1.145  -3.986  -0.010  0.00  0.00    +0.043 C 
ATOM     32  C   UNL     1       0.472  -4.849  -1.086  0.00  0.00    +0.005 C 
ATOM     33  C   UNL     1      -0.731  -5.548  -0.461  0.00  0.00    +0.001 C 
ATOM     34  C   UNL     1      -1.360  -4.657   0.608  0.00  0.00    +0.005 C 
ATOM     35  C   UNL     1      -1.879  -3.365  -0.014  0.00  0.00    +0.037 C 
BRANCH  27  36
ATOM     36  C   UNL     1      -2.419  -0.398   0.038  0.00  0.00    +0.102 C 
ATOM     37  N   UNL     1      -3.489  -0.015   0.059  0.00  0.00    -0.191 NA
ENDBRANCH  27  36
ENDBRANCH  24  26
ENDBRANCH  21  22
ENDBRANCH  20  21
ENDBRANCH   1  20
TORSDOF 7
