REMARK  Name = ZINC33810575
REMARK  7 active torsions:
REMARK  status: ('A' for Active; 'I' for Inactive)
REMARK    1  A    between atoms: C_1  and  C_2
REMARK    2  A    between atoms: C_5  and  C_8
REMARK    3  A    between atoms: C_8  and  S_9
REMARK    4  A    between atoms: S_9  and  C_10
REMARK    5  A    between atoms: C_17  and  C_29
REMARK    6  A    between atoms: C_23  and  C_27
REMARK    7  A    between atoms: C_23  and  C_28
REMARK                            x       y       z     vdW  Elec       q    Type
REMARK                         _______ _______ _______ _____ _____    ______ ____
ROOT
ATOM      1  C   UNL     1      -1.201   1.630   0.017  0.00  0.00    +0.171 A 
ATOM      2  N   UNL     1      -0.011   0.966   0.007  0.00  0.00    -0.208 NA
ATOM      3  C   UNL     1       1.167   1.666  -0.000  0.00  0.00    +0.135 A 
ATOM      4  C   UNL     1       1.133   3.026   0.008  0.00  0.00    +0.069 A 
ATOM      5  C   UNL     1      -0.120   3.676   0.020  0.00  0.00    +0.258 A 
ATOM      6  O   UNL     1      -0.179   4.897   0.022  0.00  0.00    -0.267 OA
ATOM      7  N   UNL     1      -1.246   2.946   0.028  0.00  0.00    -0.302 N 
ATOM      8  C   UNL     1       2.401   3.829   0.006  0.00  0.00    +0.092 C 
ATOM      9  C   UNL     1       3.577   2.993  -0.430  0.00  0.00    +0.024 C 
ATOM     10  C   UNL     1       3.513   1.644  -0.420  0.00  0.00    +0.017 C 
ATOM     11  N   UNL     1       2.372   1.004  -0.019  0.00  0.00    -0.302 N 
ATOM     12  C   UNL     1       4.691   0.807  -0.852  0.00  0.00    +0.058 C 
ATOM     13  C   UNL     1       5.992   1.547  -0.535  0.00  0.00    -0.023 C 
ATOM     14  C   UNL     1       5.971   2.896  -1.262  0.00  0.00    +0.086 C 
ATOM     15  C   UNL     1       4.744   3.659  -0.842  0.00  0.00    +0.162 C 
ATOM     16  O   UNL     1       4.763   4.874  -0.859  0.00  0.00    -0.292 OA
ATOM     17  C   UNL     1       6.099   1.777   0.974  0.00  0.00    +0.011 C 
ATOM     18  C   UNL     1       7.186   0.721  -1.016  0.00  0.00    +0.011 C 
ATOM     19  H   UNL     1       2.425  -0.050   0.291  0.00  0.00    +0.153 HD
ATOM     20  H   UNL     1      -2.217   3.463   0.044  0.00  0.00    +0.171 HD
ENDROOT
BRANCH   8  21
ATOM     21  C   UNL     1       2.655   4.351   1.397  0.00  0.00    -0.034 A 
ATOM     22  C   UNL     1       2.844   3.467   2.443  0.00  0.00    +0.004 A 
ATOM     23  C   UNL     1       3.082   3.945   3.718  0.00  0.00    +0.002 A 
ATOM     24  C   UNL     1       3.121   5.308   3.949  0.00  0.00    +0.020 A 
ATOM     25  C   UNL     1       2.926   6.192   2.904  0.00  0.00    +0.041 A 
ATOM     26  C   UNL     1       2.693   5.713   1.627  0.00  0.00    +0.024 A 
ATOM     27 CL   UNL     1       2.974   7.903   3.194  0.00  0.00    -0.084 Cl
ENDBRANCH   8  21
BRANCH   1  28
ATOM     28  S   UNL     1      -2.705   0.712   0.021  0.00  0.00    -0.083 S 
BRANCH  28  29
ATOM     29  C   UNL     1      -3.901   2.070   0.033  0.00  0.00    +0.112 C 
BRANCH  29  34
ATOM     30  C   UNL     1      -9.263  -0.086   0.052  0.00  0.00    +0.044 C 
ATOM     31  C   UNL     1      -7.865   0.476   0.047  0.00  0.00    -0.050 A 
ATOM     32  C   UNL     1      -7.217   0.728   1.242  0.00  0.00    +0.003 A 
ATOM     33  C   UNL     1      -5.934   1.244   1.237  0.00  0.00    +0.005 A 
ATOM     34  C   UNL     1      -5.300   1.508   0.038  0.00  0.00    -0.037 A 
ATOM     35  C   UNL     1      -5.949   1.260  -1.157  0.00  0.00    +0.005 A 
ATOM     36  C   UNL     1      -7.230   0.740  -1.152  0.00  0.00    +0.003 A 
ENDBRANCH  29  34
ENDBRANCH  28  29
ENDBRANCH   1  28
TORSDOF 4
