REMARK  Name = ZINC44594818
REMARK  6 active torsions:
REMARK  status: ('A' for Active; 'I' for Inactive)
REMARK    1  A    between atoms: C_4  and  C_7
REMARK    2  A    between atoms: C_8  and  C_20
REMARK    3  A    between atoms: C_10  and  C_13
REMARK    4  A    between atoms: C_23  and  C_26
REMARK    5  A    between atoms: C_27  and  C_39
REMARK    6  A    between atoms: C_29  and  C_32
REMARK                            x       y       z     vdW  Elec       q    Type
REMARK                         _______ _______ _______ _____ _____    ______ ____
ROOT
ATOM      1  C   UNL     1       3.132  -2.590   1.620  0.00  0.00    +0.000 A 
ATOM      2  C   UNL     1       2.396  -2.042   2.676  0.00  0.00    +0.010 A 
ATOM      3  C   UNL     1       1.514  -2.821   3.369  0.00  0.00    +0.010 A 
ATOM      4  C   UNL     1       1.346  -4.165   3.023  0.00  0.00    +0.000 A 
ATOM      5  C   UNL     1       2.080  -4.712   1.966  0.00  0.00    +0.010 A 
ATOM      6  C   UNL     1       2.959  -3.933   1.270  0.00  0.00    +0.010 A 
ENDROOT
BRANCH   4   7
ATOM      7  C   UNL     1       0.394  -5.006   3.773  0.00  0.00    +0.072 A 
ATOM      8  C   UNL     1       0.624  -6.273   4.280  0.00  0.00    +0.072 A 
ATOM      9  N   UNL     1      -0.505  -6.675   4.891  0.00  0.00    -0.343 N 
ATOM     10  C   UNL     1      -1.411  -5.743   4.794  0.00  0.00    +0.089 A 
ATOM     11  N   UNL     1      -0.901  -4.686   4.114  0.00  0.00    -0.343 N 
ATOM     12  H   UNL     1      -1.363  -3.859   3.905  0.00  0.00    +0.167 HD
ATOM     13  H   UNL     1      -0.626  -7.529   5.337  0.00  0.00    +0.167 HD
BRANCH  10  14
ATOM     14  C   UNL     1      -2.808  -5.825   5.354  0.00  0.00    +0.057 C 
ATOM     15  C   UNL     1      -2.790  -6.611   6.672  0.00  0.00    +0.015 C 
ATOM     16  C   UNL     1      -4.180  -6.525   7.305  0.00  0.00    +0.027 C 
ATOM     17  C   UNL     1      -5.232  -6.871   6.293  0.00  0.00    -0.031 C 
ATOM     18  C   UNL     1      -5.032  -6.881   5.014  0.00  0.00    -0.030 C 
ATOM     19  C   UNL     1      -3.718  -6.554   4.363  0.00  0.00    +0.038 C 
ENDBRANCH  10  14
BRANCH   8  20
ATOM     20  C   UNL     1       1.884  -7.045   4.170  0.00  0.00    +0.000 A 
ATOM     21  C   UNL     1       3.105  -6.437   4.462  0.00  0.00    +0.010 A 
ATOM     22  C   UNL     1       4.275  -7.162   4.358  0.00  0.00    +0.001 A 
ATOM     23  C   UNL     1       4.238  -8.487   3.963  0.00  0.00    +0.000 A 
ATOM     24  C   UNL     1       3.030  -9.095   3.672  0.00  0.00    +0.001 A 
ATOM     25  C   UNL     1       1.853  -8.383   3.778  0.00  0.00    +0.010 A 
ENDBRANCH   8  20
ENDBRANCH   4   7
BRANCH   1  27
ATOM     26  C   UNL     1       3.871  -0.462   0.407  0.00  0.00    +0.097 A 
ATOM     27  C   UNL     1       4.085  -1.749   0.871  0.00  0.00    +0.074 A 
ATOM     28  N   UNL     1       5.364  -2.086   0.493  0.00  0.00    -0.341 N 
ATOM     29  C   UNL     1       5.881  -1.023  -0.172  0.00  0.00    +0.112 A 
ATOM     30  N   UNL     1       4.993  -0.070  -0.225  0.00  0.00    -0.232 NA
ATOM     31  H   UNL     1       5.813  -2.927   0.671  0.00  0.00    +0.167 HD
BRANCH  26  35
ATOM     32  C   UNL     1       0.319   1.823   0.876  0.00  0.00    +0.000 A 
ATOM     33  C   UNL     1       1.551   2.452   0.899  0.00  0.00    +0.001 A 
ATOM     34  C   UNL     1       2.708   1.716   0.748  0.00  0.00    +0.010 A 
ATOM     35  C   UNL     1       2.633   0.334   0.571  0.00  0.00    +0.002 A 
ATOM     36  C   UNL     1       1.388  -0.294   0.549  0.00  0.00    +0.010 A 
ATOM     37  C   UNL     1       0.239   0.453   0.702  0.00  0.00    +0.001 A 
ENDBRANCH  26  35
BRANCH  29  38
ATOM     38  C   UNL     1       7.265  -0.956  -0.765  0.00  0.00    +0.059 C 
ATOM     39  C   UNL     1       7.259  -1.590  -2.162  0.00  0.00    +0.015 C 
ATOM     40  C   UNL     1       8.624  -1.350  -2.809  0.00  0.00    +0.027 C 
ATOM     41  C   UNL     1       9.721  -1.741  -1.861  0.00  0.00    -0.031 C 
ATOM     42  C   UNL     1       9.555  -1.905  -0.588  0.00  0.00    -0.030 C 
ATOM     43  C   UNL     1       8.242  -1.734   0.120  0.00  0.00    +0.038 C 
ENDBRANCH  29  38
ENDBRANCH   1  27
TORSDOF 6
