REMARK  Name = ZINC16050999
REMARK  2 active torsions:
REMARK  status: ('A' for Active; 'I' for Inactive)
REMARK    1  A    between atoms: C_7  and  C_13
REMARK    2  A    between atoms: C_18  and  C_21
REMARK                            x       y       z     vdW  Elec       q    Type
REMARK                         _______ _______ _______ _____ _____    ______ ____
ROOT
ATOM      1  C   UNL     1       0.015  -2.947  -0.013  0.00  0.00    +0.250 C 
ATOM      2  O   UNL     1       0.062  -4.157  -0.117  0.00  0.00    -0.270 OA
ATOM      3  N   UNL     1      -1.176  -2.327   0.103  0.00  0.00    -0.261 N 
ATOM      4  C   UNL     1      -2.340  -3.074   0.215  0.00  0.00    +0.165 A 
ATOM      5  N   UNL     1      -3.589  -2.663   0.332  0.00  0.00    -0.225 NA
ATOM      6  C   UNL     1      -4.590  -3.524   0.429  0.00  0.00    +0.080 A 
ATOM      7  C   UNL     1      -4.326  -4.865   0.408  0.00  0.00    +0.076 A 
ATOM      8  S   UNL     1      -2.547  -4.850   0.232  0.00  0.00    -0.060 S 
ATOM      9  H   UNL     1      -1.220  -1.358   0.109  0.00  0.00    +0.157 HD
ENDROOT
BRANCH   1  16
ATOM     10  C   UNL     1       3.898  -4.814   0.005  0.00  0.00    +0.001 A 
ATOM     11  C   UNL     1       5.057  -4.049   0.002  0.00  0.00    +0.002 A 
ATOM     12  C   UNL     1       4.989  -2.673  -0.007  0.00  0.00    +0.026 A 
ATOM     13  C   UNL     1       3.749  -2.040  -0.013  0.00  0.00    +0.050 A 
ATOM     14  C   UNL     1       2.579  -2.819  -0.010  0.00  0.00    +0.011 A 
ATOM     15  C   UNL     1       2.671  -4.214  -0.001  0.00  0.00    +0.011 A 
ATOM     16  C   UNL     1       1.266  -2.154  -0.016  0.00  0.00    +0.051 A 
ATOM     17  C   UNL     1       1.228  -0.788  -0.025  0.00  0.00    +0.083 A 
ATOM     18  C   UNL     1       2.479  -0.034  -0.028  0.00  0.00    +0.250 A 
ATOM     19  O   UNL     1       2.446   1.183  -0.036  0.00  0.00    -0.268 OA
ATOM     20  N   UNL     1       3.667  -0.664  -0.022  0.00  0.00    -0.322 N 
ATOM     21  H   UNL     1       4.483  -0.140  -0.024  0.00  0.00    +0.169 HD
ENDBRANCH   1  16
BRANCH   6  22
ATOM     22  C   UNL     1      -5.986  -3.038   0.560  0.00  0.00    +0.005 A 
ATOM     23  C   UNL     1      -7.035  -3.949   0.668  0.00  0.00    +0.014 A 
ATOM     24  C   UNL     1      -8.333  -3.494   0.789  0.00  0.00    +0.050 A 
ATOM     25  C   UNL     1      -8.598  -2.132   0.804  0.00  0.00    +0.162 A 
ATOM     26  C   UNL     1      -7.554  -1.219   0.699  0.00  0.00    +0.163 A 
ATOM     27  C   UNL     1      -6.250  -1.670   0.581  0.00  0.00    +0.059 A 
ATOM     28  O   UNL     1      -7.795   0.121   0.720  0.00  0.00    -0.485 OA
ATOM     29  C   UNL     1      -9.143   0.536   0.470  0.00  0.00    +0.270 C 
ATOM     30  C   UNL     1     -10.080  -0.342   1.311  0.00  0.00    +0.270 C 
ATOM     31  O   UNL     1      -9.886  -1.706   0.921  0.00  0.00    -0.485 OA
ENDBRANCH   6  22
TORSDOF 2
