REMARK  Name = ZINC40702753
REMARK  8 active torsions:
REMARK  status: ('A' for Active; 'I' for Inactive)
REMARK    1  A    between atoms: C_1  and  C_2
REMARK    2  A    between atoms: C_5  and  N_9
REMARK    3  A    between atoms: C_7  and  C_8
REMARK    4  A    between atoms: C_11  and  N_28
REMARK    5  A    between atoms: C_12  and  N_16
REMARK    6  A    between atoms: C_18  and  C_27
REMARK    7  A    between atoms: C_23  and  C_25
REMARK    8  A    between atoms: C_23  and  C_26
REMARK                            x       y       z     vdW  Elec       q    Type
REMARK                         _______ _______ _______ _____ _____    ______ ____
ROOT
ATOM      1  N   UNL     1       1.314  -4.587  -0.269  0.00  0.00    -0.298 N 
ATOM      2  C   UNL     1       0.577  -5.066  -1.347  0.00  0.00    +0.149 A 
ATOM      3  C   UNL     1      -0.168  -6.240  -1.230  0.00  0.00    +0.106 A 
ATOM      4  C   UNL     1      -0.890  -6.676  -2.342  0.00  0.00    +0.147 A 
ATOM      5  N   UNL     1      -0.841  -5.961  -3.464  0.00  0.00    -0.219 NA
ATOM      6  C   UNL     1      -0.124  -4.857  -3.532  0.00  0.00    +0.225 A 
ATOM      7  N   UNL     1       0.568  -4.409  -2.504  0.00  0.00    -0.219 NA
ATOM      8  H   UNL     1       1.382  -5.112   0.543  0.00  0.00    +0.154 HD
ENDROOT
BRANCH   4   9
ATOM      9  N   UNL     1      -1.649  -7.839  -2.280  0.00  0.00    -0.310 N 
ATOM     10  C   UNL     1      -1.689  -8.782  -1.151  0.00  0.00    +0.113 C 
ATOM     11  C   UNL     1      -2.628  -9.934  -1.578  0.00  0.00    -0.014 C 
ATOM     12  C   UNL     1      -3.583  -9.227  -2.576  0.00  0.00    +0.030 C 
ATOM     13  C   UNL     1      -2.562  -8.338  -3.328  0.00  0.00    +0.076 C 
ATOM     14  C   UNL     1      -1.784  -9.245  -4.278  0.00  0.00    +0.029 C 
ATOM     15  C   UNL     1      -1.125 -10.430  -3.598  0.00  0.00    -0.033 C 
ATOM     16  C   UNL     1      -1.822 -10.966  -2.363  0.00  0.00    +0.014 C 
ATOM     17  C   UNL     1       0.336 -10.086  -3.266  0.00  0.00    +0.011 C 
ATOM     18  C   UNL     1      -1.077 -11.582  -4.633  0.00  0.00    +0.011 C 
ATOM     19  C   UNL     1      -3.377 -10.547  -0.385  0.00  0.00    +0.013 C 
ENDBRANCH   4   9
BRANCH   1  24
ATOM     20  C   UNL     1       3.925   0.436  -0.626  0.00  0.00    +0.044 C 
ATOM     21  C   UNL     1       3.231  -0.899  -0.531  0.00  0.00    -0.047 A 
ATOM     22  C   UNL     1       2.032  -1.101  -1.190  0.00  0.00    +0.005 A 
ATOM     23  C   UNL     1       1.393  -2.323  -1.105  0.00  0.00    +0.023 A 
ATOM     24  C   UNL     1       1.958  -3.349  -0.358  0.00  0.00    +0.033 A 
ATOM     25  C   UNL     1       3.163  -3.143   0.302  0.00  0.00    +0.027 A 
ATOM     26  C   UNL     1       3.798  -1.920   0.209  0.00  0.00    -0.046 A 
ATOM     27  C   UNL     1       5.109  -1.697   0.919  0.00  0.00    +0.044 C 
ENDBRANCH   1  24
BRANCH   3  28
ATOM     28  N   UNL     1      -0.191  -6.963  -0.026  0.00  0.00    -0.353 N 
ATOM     29  H   UNL     1      -0.215  -6.493   0.822  0.00  0.00    +0.143 HD
ATOM     30  H   UNL     1      -0.182  -7.933  -0.043  0.00  0.00    +0.143 HD
ENDBRANCH   3  28
TORSDOF 3
