REMARK  Name = ZINC13083116
REMARK  11 active torsions:
REMARK  status: ('A' for Active; 'I' for Inactive)
REMARK    1  A    between atoms: C_1  and  C_2
REMARK    2  A    between atoms: C_2  and  C_3
REMARK    3  A    between atoms: C_3  and  C_4
REMARK    4  A    between atoms: C_3  and  C_6
REMARK    5  A    between atoms: C_4  and  C_5
REMARK    6  A    between atoms: C_11  and  C_14
REMARK    7  A    between atoms: C_18  and  O_20
REMARK    8  A    between atoms: N_23  and  C_24
REMARK    9  A    between atoms: C_24  and  C_25
REMARK   10  A    between atoms: C_27  and  C_32
REMARK   11  A    between atoms: C_30  and  C_31
REMARK                            x       y       z     vdW  Elec       q    Type
REMARK                         _______ _______ _______ _____ _____    ______ ____
ROOT
ATOM      1  C   UNL     1      -5.438   1.596   2.578  0.00  0.00    +0.138 A 
ATOM      2  N   UNL     1      -4.732   2.240   1.674  0.00  0.00    -0.211 NA
ATOM      3  C   UNL     1      -4.254   3.455   1.928  0.00  0.00    +0.186 A 
ATOM      4  C   UNL     1      -4.503   4.041   3.183  0.00  0.00    +0.192 A 
ATOM      5  C   UNL     1      -5.263   3.309   4.114  0.00  0.00    +0.246 A 
ATOM      6  N   UNL     1      -5.702   2.107   3.768  0.00  0.00    -0.196 NA
ATOM      7  N   UNL     1      -3.916   5.250   3.195  0.00  0.00    -0.122 NA
ATOM      8  N   UNL     1      -3.325   5.468   2.073  0.00  0.00    -0.063 NA
ATOM      9  N   UNL     1      -3.503   4.359   1.230  0.00  0.00    -0.222 N 
ENDROOT
BRANCH   1  15
ATOM     10  C   UNL     1      -8.113  -3.033   3.529  0.00  0.00    +0.219 C 
ATOM     11  O   UNL     1      -7.567  -3.916   4.156  0.00  0.00    -0.275 OA
ATOM     12  N   UNL     1      -7.377  -2.160   2.814  0.00  0.00    -0.301 N 
ATOM     13  C   UNL     1      -5.909  -2.193   2.875  0.00  0.00    +0.108 C 
ATOM     14  C   UNL     1      -5.399  -0.794   3.237  0.00  0.00    +0.030 C 
ATOM     15  C   UNL     1      -5.965   0.224   2.245  0.00  0.00    +0.060 C 
ATOM     16  C   UNL     1      -7.492   0.229   2.331  0.00  0.00    +0.030 C 
ATOM     17  C   UNL     1      -8.026  -1.157   1.958  0.00  0.00    +0.108 C 
BRANCH  10  18
ATOM     18  C   UNL     1      -9.615  -2.913   3.549  0.00  0.00    +0.075 C 
BRANCH  18  20
ATOM     19  C   UNL     1     -11.727  -3.604   2.407  0.00  0.00    +0.004 C 
ATOM     20  C   UNL     1     -10.214  -3.819   2.471  0.00  0.00    +0.009 C 
ENDBRANCH  18  20
BRANCH  18  21
ATOM     21  C   UNL     1     -10.143  -3.336   4.921  0.00  0.00    +0.009 C 
ATOM     22  C   UNL     1      -9.653  -2.349   5.982  0.00  0.00    +0.004 C 
ENDBRANCH  18  21
ENDBRANCH  10  18
ENDBRANCH   1  15
BRANCH   5  23
ATOM     23  O   UNL     1      -5.541   3.822   5.336  0.00  0.00    -0.491 OA
ATOM     24  H   UNL     1      -6.361   4.333   5.371  0.00  0.00    +0.294 HD
ENDBRANCH   5  23
BRANCH   9  25
ATOM     25  C   UNL     1      -2.990   4.205  -0.133  0.00  0.00    +0.183 C 
BRANCH  25  26
ATOM     26  C   UNL     1      -1.624   3.569  -0.087  0.00  0.00    -0.023 A 
ATOM     27  C   UNL     1      -0.492   4.362  -0.104  0.00  0.00    +0.009 A 
ATOM     28  C   UNL     1       0.761   3.779  -0.062  0.00  0.00    -0.050 A 
ATOM     29  C   UNL     1       0.881   2.403  -0.003  0.00  0.00    +0.003 A 
ATOM     30  C   UNL     1      -0.251   1.611   0.015  0.00  0.00    +0.004 A 
ATOM     31  C   UNL     1      -1.504   2.193  -0.033  0.00  0.00    -0.046 A 
ATOM     32  C   UNL     1      -2.738   1.329  -0.021  0.00  0.00    +0.044 C 
ATOM     33  C   UNL     1       1.995   4.644  -0.081  0.00  0.00    +0.044 C 
ENDBRANCH  25  26
ENDBRANCH   9  25
TORSDOF 7
