REMARK  Name = ZINC04897406
REMARK  11 active torsions:
REMARK  status: ('A' for Active; 'I' for Inactive)
REMARK    1  A    between atoms: C_4  and  N_7
REMARK    2  A    between atoms: N_7  and  N_8
REMARK    3  A    between atoms: N_8  and  C_9
REMARK    4  A    between atoms: N_16  and  C1*_26
REMARK    5  A    between atoms: C_17  and  N_18
REMARK    6  A    between atoms: N_18  and  N_19
REMARK    7  A    between atoms: N_19  and  C_20
REMARK    8  A    between atoms: C2*_28  and  O2*_38
REMARK    9  A    between atoms: C3*_30  and  O3*_37
REMARK   10  A    between atoms: C4*_32  and  C5*_35
REMARK   11  A    between atoms: C5*_35  and  O5*_36
REMARK                            x       y       z     vdW  Elec       q    Type
REMARK                         _______ _______ _______ _____ _____    ______ ____
ROOT
ATOM      1  C   UNL     1      -0.799   1.903  -0.003  0.00  0.00    +0.149 A 
ATOM      2  C   UNL     1      -1.858   1.053   0.363  0.00  0.00    +0.278 A 
ATOM      3  O   UNL     1      -1.631  -0.092   0.717  0.00  0.00    -0.266 OA
ATOM      4  N   UNL     1      -3.124   1.510   0.319  0.00  0.00    -0.273 N 
ATOM      5  H   UNL     1      -3.878   0.907   0.578  0.00  0.00    +0.173 HD
ATOM      6  C   UNL     1      -3.384   2.772  -0.070  0.00  0.00    +0.333 A 
ATOM      7  O   UNL     1      -4.535   3.163  -0.102  0.00  0.00    -0.246 OA
ATOM      8  N   UNL     1      -2.391   3.607  -0.425  0.00  0.00    -0.250 N 
ATOM      9  C   UNL     1      -1.081   3.185  -0.392  0.00  0.00    +0.149 A 
ENDROOT
BRANCH   8  10
ATOM     10  C1* UNL     1      -2.704   4.975  -0.845  0.00  0.00    +0.256 C 
ATOM     11  C2* UNL     1      -1.949   5.311  -2.145  0.00  0.00    +0.195 C 
ATOM     12  C3* UNL     1      -3.071   5.570  -3.180  0.00  0.00    +0.178 C 
ATOM     13  C4* UNL     1      -4.279   4.842  -2.538  0.00  0.00    +0.177 C 
ATOM     14  O4* UNL     1      -4.110   5.090  -1.125  0.00  0.00    -0.346 OA
BRANCH  12  15
ATOM     15  O3* UNL     1      -3.329   6.969  -3.313  0.00  0.00    -0.386 OA
ATOM     16  H3* UNL     1      -4.083   7.177  -3.882  0.00  0.00    +0.210 HD
ENDBRANCH  12  15
BRANCH  11  17
ATOM     17  O2* UNL     1      -1.138   4.206  -2.552  0.00  0.00    -0.385 OA
ATOM     18  H2* UNL     1      -0.640   4.363  -3.366  0.00  0.00    +0.210 HD
ENDBRANCH  11  17
BRANCH  13  19
ATOM     19  C5* UNL     1      -5.596   5.442  -3.036  0.00  0.00    +0.190 C 
BRANCH  19  20
ATOM     20  O5* UNL     1      -6.692   4.747  -2.438  0.00  0.00    -0.392 OA
ATOM     21  H5* UNL     1      -7.560   5.074  -2.709  0.00  0.00    +0.210 HD
ENDBRANCH  19  20
ENDBRANCH  13  19
ENDBRANCH   8  10
BRANCH   1  22
ATOM     22  N   UNL     1       0.538   1.443   0.037  0.00  0.00    -0.259 N 
ATOM     23  H   UNL     1       1.268   2.061  -0.124  0.00  0.00    +0.170 HD
BRANCH  22  24
ATOM     24  N   UNL     1       0.807   0.097   0.314  0.00  0.00    -0.266 N 
ATOM     25  H   UNL     1       0.081  -0.508   0.534  0.00  0.00    +0.170 HD
BRANCH  24  29
ATOM     26  C   UNL     1       4.724  -1.311   0.191  0.00  0.00    +0.000 A 
ATOM     27  C   UNL     1       3.679  -2.195   0.387  0.00  0.00    +0.002 A 
ATOM     28  C   UNL     1       2.378  -1.732   0.428  0.00  0.00    +0.024 A 
ATOM     29  C   UNL     1       2.121  -0.376   0.273  0.00  0.00    +0.044 A 
ATOM     30  C   UNL     1       3.173   0.509   0.071  0.00  0.00    +0.024 A 
ATOM     31  C   UNL     1       4.471   0.040   0.036  0.00  0.00    +0.002 A 
ENDBRANCH  24  29
ENDBRANCH  22  24
ENDBRANCH   1  22
BRANCH   9  32
ATOM     32  N   UNL     1      -0.066   4.042  -0.750  0.00  0.00    -0.250 N 
ATOM     33  H   UNL     1       0.807   3.689  -0.984  0.00  0.00    +0.171 HD
BRANCH  32  34
ATOM     34  N   UNL     1      -0.292   5.424  -0.775  0.00  0.00    -0.265 N 
ATOM     35  H   UNL     1      -1.131   5.784  -0.449  0.00  0.00    +0.170 HD
BRANCH  34  36
ATOM     36  C   UNL     1       0.691   6.284  -1.272  0.00  0.00    +0.044 A 
ATOM     37  C   UNL     1       1.840   5.764  -1.855  0.00  0.00    +0.024 A 
ATOM     38  C   UNL     1       2.808   6.617  -2.349  0.00  0.00    +0.002 A 
ATOM     39  C   UNL     1       2.638   7.986  -2.254  0.00  0.00    +0.000 A 
ATOM     40  C   UNL     1       1.498   8.507  -1.669  0.00  0.00    +0.002 A 
ATOM     41  C   UNL     1       0.524   7.660  -1.178  0.00  0.00    +0.024 A 
ENDBRANCH  34  36
ENDBRANCH  32  34
ENDBRANCH   9  32
TORSDOF 11
