REMARK  Name = ZINC09424887
REMARK  16 active torsions:
REMARK  status: ('A' for Active; 'I' for Inactive)
REMARK    1  A    between atoms: C_1  and  C_2
REMARK    2  A    between atoms: C_2  and  N_73
REMARK    3  A    between atoms: C_3  and  C_4
REMARK    4  A    between atoms: C_3  and  N_73
REMARK    5  A    between atoms: C_5  and  C_6
REMARK    6  A    between atoms: C_5  and  N_73
REMARK    7  A    between atoms: C_6  and  C_7
REMARK    8  A    between atoms: C_7  and  N_8
REMARK    9  A    between atoms: C_9  and  C_29
REMARK   10  A    between atoms: C_11  and  C_16
REMARK   11  A    between atoms: C_12  and  O_15
REMARK   12  A    between atoms: C_16  and  C_18
REMARK   13  A    between atoms: C_25  and  C_28
REMARK   14  A    between atoms: C_33  and  O_35
REMARK   15  A    between atoms: O_35  and  C_36
REMARK   16  A    between atoms: C_36  and  C_37
REMARK                            x       y       z     vdW  Elec       q    Type
REMARK                         _______ _______ _______ _____ _____    ______ ____
ROOT
ATOM      1  N   UNL     1       2.141  -2.564  -0.785  0.00  0.00    -0.284 N 
ATOM      2  C   UNL     1       1.763  -1.159  -0.982  0.00  0.00    +0.145 C 
ATOM      3  C   UNL     1       3.044  -0.418  -1.286  0.00  0.00    +0.071 C 
ATOM      4  C   UNL     1       4.040  -1.333  -1.266  0.00  0.00    +0.188 C 
ATOM      5  C   UNL     1       3.473  -2.661  -0.949  0.00  0.00    +0.282 C 
ATOM      6  O   UNL     1       4.114  -3.688  -0.855  0.00  0.00    -0.267 OA
ENDROOT
BRANCH   2   7
ATOM      7  C   UNL     1       1.133  -0.611   0.273  0.00  0.00    -0.019 A 
ATOM      8  C   UNL     1       1.677  -0.911   1.508  0.00  0.00    +0.006 A 
ATOM      9  C   UNL     1       1.104  -0.405   2.660  0.00  0.00    +0.004 A 
ATOM     10  C   UNL     1      -0.021   0.393   2.580  0.00  0.00    +0.045 A 
ATOM     11  C   UNL     1      -0.572   0.691   1.343  0.00  0.00    +0.121 A 
ATOM     12  C   UNL     1       0.008   0.187   0.188  0.00  0.00    +0.051 A 
BRANCH  11  13
ATOM     13  O   UNL     1      -1.678   1.476   1.262  0.00  0.00    -0.488 OA
BRANCH  13  14
ATOM     14  C   UNL     1      -2.222   1.960   2.491  0.00  0.00    +0.256 C 
BRANCH  14  15
ATOM     15  C   UNL     1      -3.435   2.807   2.205  0.00  0.00    +0.006 C 
ATOM     16  C   UNL     1      -4.524   2.652   2.918  0.00  0.00    +0.007 C 
ENDBRANCH  14  15
ENDBRANCH  13  14
ENDBRANCH  11  13
ENDBRANCH   2   7
BRANCH   4  17
ATOM     17  O   UNL     1       5.348  -1.074  -1.496  0.00  0.00    -0.502 OA
ATOM     18  H   UNL     1       5.874  -1.921  -1.421  0.00  0.00    +0.292 HD
ENDBRANCH   4  17
BRANCH   3  19
ATOM     19  C   UNL     1       3.180   1.017  -1.559  0.00  0.00    +0.195 C 
ATOM     20  O   UNL     1       3.779   1.731  -0.776  0.00  0.00    -0.287 OA
BRANCH  19  21
ATOM     21  C   UNL     1       2.591   1.595  -2.783  0.00  0.00    +0.023 A 
ATOM     22  C   UNL     1       1.968   0.769  -3.724  0.00  0.00    +0.015 A 
ATOM     23  C   UNL     1       1.428   1.307  -4.867  0.00  0.00    +0.046 A 
ATOM     24  C   UNL     1       1.486   2.684  -5.095  0.00  0.00    +0.124 A 
ATOM     25  C   UNL     1       2.101   3.502  -4.152  0.00  0.00    -0.002 A 
ATOM     26  C   UNL     1       2.651   2.974  -3.010  0.00  0.00    +0.019 A 
ATOM     27  C   UNL     1       1.999   4.926  -4.666  0.00  0.00    +0.083 C 
ATOM     28  C   UNL     1       0.920   4.790  -5.766  0.00  0.00    +0.175 C 
ATOM     29  O   UNL     1       1.026   3.409  -6.150  0.00  0.00    -0.488 OA
ATOM     30  C   UNL     1      -0.470   5.090  -5.202  0.00  0.00    +0.052 C 
ENDBRANCH  19  21
ENDBRANCH   3  19
BRANCH   1  31
ATOM     31  C   UNL     1       1.229  -3.665  -0.467  0.00  0.00    +0.107 C 
BRANCH  31  32
ATOM     32  C   UNL     1       0.720  -4.297  -1.764  0.00  0.00    +0.000 C 
BRANCH  32  33
ATOM     33  C   UNL     1      -0.232  -5.448  -1.431  0.00  0.00    -0.077 C 
BRANCH  33  34
ATOM     34  N   UNL     1      -0.698  -6.061  -2.693  0.00  0.00    +0.379 N 
ATOM     35  H   UNL     1       0.117  -6.289  -3.274  0.00  0.00    -0.082 HD
BRANCH  34  37
ATOM     36  C   UNL     1      -0.444  -8.412  -2.074  0.00  0.00    -0.017 C 
ATOM     37  C   UNL     1      -1.445  -7.303  -2.405  0.00  0.00    -0.082 C 
ENDBRANCH  34  37
BRANCH  34  38
ATOM     38  C   UNL     1      -1.561  -5.111  -3.428  0.00  0.00    -0.082 C 
ATOM     39  C   UNL     1      -1.734  -5.613  -4.862  0.00  0.00    -0.017 C 
ENDBRANCH  34  38
ENDBRANCH  33  34
ENDBRANCH  32  33
ENDBRANCH  31  32
ENDBRANCH   1  31
TORSDOF 13
