REMARK  Name = ZINC11978989
REMARK  9 active torsions:
REMARK  status: ('A' for Active; 'I' for Inactive)
REMARK    1  A    between atoms: C_1  and  C_2
REMARK    2  A    between atoms: C_10  and  C_13
REMARK    3  A    between atoms: C_13  and  N_64
REMARK    4  A    between atoms: C_20  and  C_24
REMARK    5  A    between atoms: C_24  and  C_25
REMARK    6  A    between atoms: C_24  and  C_26
REMARK    7  A    between atoms: C_24  and  O_34
REMARK    8  A    between atoms: C_26  and  O_27
REMARK    9  A    between atoms: O_27  and  C_28
REMARK                            x       y       z     vdW  Elec       q    Type
REMARK                         _______ _______ _______ _____ _____    ______ ____
ROOT
ATOM      1  C   UNL     1      12.525   0.561  -0.714  0.00  0.00    -0.036 C 
ATOM      2  C   UNL     1      11.675   1.359  -1.679  0.00  0.00    +0.210 C 
ATOM      3  O   UNL     1      10.626   2.046  -0.986  0.00  0.00    -0.494 OA
ATOM      4  C   UNL     1       9.493   1.319  -0.777  0.00  0.00    +0.122 A 
ATOM      5  C   UNL     1       8.325   1.637  -1.455  0.00  0.00    +0.046 A 
ATOM      6  C   UNL     1       7.195   0.863  -1.270  0.00  0.00    +0.010 A 
ATOM      7  C   UNL     1       7.225  -0.216  -0.406  0.00  0.00    -0.013 A 
ATOM      8  C   UNL     1       8.388  -0.528   0.275  0.00  0.00    +0.012 A 
ATOM      9  C   UNL     1       9.515   0.247   0.093  0.00  0.00    -0.022 A 
ATOM     10  C   UNL     1      10.782  -0.059   0.869  0.00  0.00    -0.039 C 
ATOM     11  N   UNL     1      11.792  -0.562  -0.092  0.00  0.00    +0.387 N 
ATOM     12  H   UNL     1      11.310  -1.090  -0.830  0.00  0.00    -0.081 HD
ENDROOT
BRANCH   7  13
ATOM     13  C   UNL     1       5.990  -1.059  -0.212  0.00  0.00    +0.122 C 
ATOM     14  C   UNL     1       5.982  -2.196  -1.235  0.00  0.00    +0.050 C 
BRANCH  13  15
ATOM     15  O   UNL     1       5.990  -1.606   1.109  0.00  0.00    -0.381 OA
ATOM     16  H   UNL     1       5.995  -0.940   1.810  0.00  0.00    +0.211 HD
ENDBRANCH  13  15
BRANCH  13  17
ATOM     17  C   UNL     1       4.745  -0.191  -0.404  0.00  0.00    +0.268 C 
BRANCH  17  18
ATOM     18  O   UNL     1       3.575  -0.989  -0.219  0.00  0.00    -0.489 OA
BRANCH  18  19
ATOM     19  C   UNL     1       2.375  -0.366  -0.357  0.00  0.00    +0.121 A 
ATOM     20  C   UNL     1       1.198  -1.081  -0.191  0.00  0.00    +0.045 A 
ATOM     21  C   UNL     1      -0.021  -0.445  -0.330  0.00  0.00    +0.004 A 
ATOM     22  C   UNL     1      -0.068   0.903  -0.635  0.00  0.00    +0.000 A 
ATOM     23  C   UNL     1       1.104   1.618  -0.800  0.00  0.00    +0.004 A 
ATOM     24  C   UNL     1       2.325   0.987  -0.662  0.00  0.00    +0.045 A 
ENDBRANCH  18  19
ENDBRANCH  17  18
ENDBRANCH  13  17
ENDBRANCH   7  13
BRANCH  11  25
ATOM     25  C   UNL     1      12.738  -1.457   0.594  0.00  0.00    -0.035 C 
BRANCH  25  35
ATOM     26  C   UNL     1       8.490  -7.676   0.855  0.00  0.00    +0.044 C 
ATOM     27  C   UNL     1       9.214  -6.534   1.520  0.00  0.00    -0.050 A 
ATOM     28  C   UNL     1       9.189  -6.411   2.902  0.00  0.00    +0.007 A 
ATOM     29  C   UNL     1       9.846  -5.374   3.529  0.00  0.00    +0.047 A 
ATOM     30  C   UNL     1      10.542  -4.437   2.773  0.00  0.00    +0.138 A 
ATOM     31  C   UNL     1      10.566  -4.563   1.375  0.00  0.00    +0.064 A 
ATOM     32  C   UNL     1       9.899  -5.617   0.753  0.00  0.00    +0.018 A 
ATOM     33  C   UNL     1      11.307  -3.553   0.595  0.00  0.00    +0.194 A 
ATOM     34  O   UNL     1      11.362  -3.604  -0.622  0.00  0.00    -0.287 OA
ATOM     35  C   UNL     1      11.958  -2.521   1.322  0.00  0.00    +0.018 A 
ATOM     36  C   UNL     1      11.869  -2.497   2.664  0.00  0.00    +0.201 A 
ATOM     37  O   UNL     1      11.192  -3.413   3.363  0.00  0.00    -0.462 OA
ENDBRANCH  25  35
ENDBRANCH  11  25
TORSDOF 7
