REMARK  Name = ZINC08073297
REMARK  5 active torsions:
REMARK  status: ('A' for Active; 'I' for Inactive)
REMARK    1  A    between atoms: C_3  and  C_6
REMARK    2  A    between atoms: C_9  and  C_24
REMARK    3  A    between atoms: C_12  and  C_14
REMARK    4  A    between atoms: C_14  and  N_52
REMARK    5  A    between atoms: C_19  and  C_21
REMARK                            x       y       z     vdW  Elec       q    Type
REMARK                         _______ _______ _______ _____ _____    ______ ____
ROOT
ATOM      1  C   UNL     1       4.397  -2.696  -2.313  0.00  0.00    +0.172 C 
ATOM      2  C   UNL     1       3.953  -3.463  -3.574  0.00  0.00    +0.090 C 
ATOM      3  C   UNL     1       2.647  -2.806  -3.959  0.00  0.00    +0.069 C 
ATOM      4  N   UNL     1       2.373  -1.869  -3.119  0.00  0.00    -0.181 NA
ATOM      5  N   UNL     1       3.326  -1.706  -2.116  0.00  0.00    -0.184 N 
ATOM      6  C   UNL     1       3.272  -0.795  -1.124  0.00  0.00    +0.219 C 
ATOM      7  O   UNL     1       4.159  -0.746  -0.298  0.00  0.00    -0.276 OA
ENDROOT
BRANCH   3   8
ATOM      8  C   UNL     1       1.812  -3.185  -5.114  0.00  0.00    -0.002 A 
ATOM      9  C   UNL     1       2.213  -4.223  -5.959  0.00  0.00    +0.011 A 
ATOM     10  C   UNL     1       1.425  -4.575  -7.035  0.00  0.00    +0.020 A 
ATOM     11  C   UNL     1       0.245  -3.895  -7.285  0.00  0.00    +0.041 A 
ATOM     12  C   UNL     1      -0.155  -2.862  -6.455  0.00  0.00    +0.020 A 
ATOM     13  C   UNL     1       0.621  -2.503  -5.372  0.00  0.00    +0.011 A 
ATOM     14 CL   UNL     1      -0.737  -4.340  -8.646  0.00  0.00    -0.084 Cl
ENDBRANCH   3   8
BRANCH   1  17
ATOM     15  C   UNL     1       5.240  -4.931   0.493  0.00  0.00    +0.041 A 
ATOM     16  C   UNL     1       5.620  -4.108  -0.592  0.00  0.00    +0.046 A 
ATOM     17  C   UNL     1       4.486  -3.625  -1.130  0.00  0.00    +0.128 A 
ATOM     18  O   UNL     1       3.445  -4.115  -0.437  0.00  0.00    -0.466 OA
ATOM     19  C   UNL     1       3.896  -4.908   0.548  0.00  0.00    +0.195 A 
ENDBRANCH   1  17
BRANCH   6  20
ATOM     20  C   UNL     1       2.111   0.162  -1.042  0.00  0.00    +0.022 C 
BRANCH  20  26
ATOM     21  C   UNL     1       2.212   0.105   1.377  0.00  0.00    -0.077 C 
ATOM     22  C   UNL     1       2.183   0.976   2.634  0.00  0.00    -0.019 C 
ATOM     23  C   UNL     1       3.415   1.885   2.648  0.00  0.00    -0.003 C 
ATOM     24  C   UNL     1       3.429   2.733   1.373  0.00  0.00    -0.006 C 
ATOM     25  C   UNL     1       3.421   1.810   0.152  0.00  0.00    +0.020 C 
ATOM     26  N   UNL     1       2.199   0.980   0.185  0.00  0.00    +0.393 N 
ATOM     27  H   UNL     1       1.379   1.596   0.234  0.00  0.00    -0.080 HD
BRANCH  25  28
ATOM     28  C   UNL     1       3.414   2.641  -1.105  0.00  0.00    +0.197 C 
ATOM     29  O   UNL     1       2.361   2.968  -1.610  0.00  0.00    -0.278 OA
ATOM     30  N   UNL     1       4.579   3.016  -1.672  0.00  0.00    -0.331 N 
ATOM     31  H   UNL     1       4.574   3.548  -2.483  0.00  0.00    +0.145 HD
ATOM     32  H   UNL     1       5.421   2.755  -1.268  0.00  0.00    +0.145 HD
ENDBRANCH  25  28
ENDBRANCH  20  26
ENDBRANCH   6  20
TORSDOF 5
