REMARK  Name = ZINC01462600
REMARK  7 active torsions:
REMARK  status: ('A' for Active; 'I' for Inactive)
REMARK    1  A    between atoms: C_1  and  O_2
REMARK    2  A    between atoms: O_2  and  C_3
REMARK    3  A    between atoms: C_6  and  C_18
REMARK    4  A    between atoms: C_8  and  S_9
REMARK    5  A    between atoms: S_9  and  N_12
REMARK    6  A    between atoms: C_19  and  C_20
REMARK    7  A    between atoms: C_25  and  C_28
REMARK                            x       y       z     vdW  Elec       q    Type
REMARK                         _______ _______ _______ _____ _____    ______ ____
ROOT
ATOM      1  C   UNL     1       0.625  -0.618   1.040  0.00  0.00    +0.146 A 
ATOM      2  C   UNL     1       1.202   0.144   2.050  0.00  0.00    +0.048 A 
ATOM      3  C   UNL     1       1.835  -0.473   3.105  0.00  0.00    +0.011 A 
ATOM      4  C   UNL     1       1.897  -1.870   3.160  0.00  0.00    -0.023 A 
ATOM      5  C   UNL     1       1.314  -2.633   2.141  0.00  0.00    +0.040 A 
ATOM      6  C   UNL     1       0.679  -2.006   1.093  0.00  0.00    +0.147 A 
ENDROOT
BRANCH   6   7
ATOM      7  S   UNL     1      -0.060  -2.964  -0.188  0.00  0.00    +0.064 S 
ATOM      8  O   UNL     1       0.396  -2.418  -1.418  0.00  0.00    -0.153 OA
ATOM      9  O   UNL     1       0.137  -4.327   0.161  0.00  0.00    -0.153 OA
BRANCH   7  10
ATOM     10  N   UNL     1      -1.692  -2.690  -0.124  0.00  0.00    -0.176 NA
ATOM     11  C   UNL     1      -2.560  -3.531   0.711  0.00  0.00    +0.109 C 
ATOM     12  C   UNL     1      -3.379  -2.628   1.639  0.00  0.00    +0.017 C 
ATOM     13  C   UNL     1      -4.127  -1.588   0.801  0.00  0.00    +0.003 C 
ATOM     14  C   UNL     1      -3.120  -0.719   0.045  0.00  0.00    +0.017 C 
ATOM     15  C   UNL     1      -2.298  -1.597  -0.896  0.00  0.00    +0.109 C 
ENDBRANCH   7  10
ENDBRANCH   6   7
BRANCH   1  17
ATOM     16  C   UNL     1      -0.017   1.425   0.010  0.00  0.00    +0.277 C 
ATOM     17  O   UNL     1       0.002  -0.004   0.002  0.00  0.00    -0.493 OA
ENDBRANCH   1  17
BRANCH   4  18
ATOM     18  C   UNL     1       2.572  -2.535   4.284  0.00  0.00    +0.013 C 
ATOM     19  C   UNL     1       3.133  -1.797   5.266  0.00  0.00    +0.068 C 
BRANCH  19  20
ATOM     20  C   UNL     1       3.805  -2.458   6.384  0.00  0.00    +0.243 C 
ATOM     21  O   UNL     1       3.857  -3.673   6.430  0.00  0.00    -0.270 OA
ATOM     22  N   UNL     1       4.365  -1.722   7.364  0.00  0.00    -0.261 N 
ATOM     23  C   UNL     1       5.002  -2.349   8.425  0.00  0.00    +0.165 A 
ATOM     24  N   UNL     1       5.601  -1.815   9.474  0.00  0.00    -0.225 NA
ATOM     25  C   UNL     1       6.164  -2.572  10.404  0.00  0.00    +0.080 A 
ATOM     26  C   UNL     1       6.125  -3.932  10.275  0.00  0.00    +0.076 A 
ATOM     27  S   UNL     1       5.224  -4.095   8.739  0.00  0.00    -0.060 S 
ATOM     28  H   UNL     1       4.323  -0.753   7.327  0.00  0.00    +0.157 HD
BRANCH  25  29
ATOM     29  C   UNL     1       6.832  -1.949  11.573  0.00  0.00    +0.001 A 
ATOM     30  C   UNL     1       7.428  -2.749  12.546  0.00  0.00    +0.010 A 
ATOM     31  C   UNL     1       8.048  -2.164  13.631  0.00  0.00    +0.001 A 
ATOM     32  C   UNL     1       8.077  -0.787  13.755  0.00  0.00    +0.000 A 
ATOM     33  C   UNL     1       7.487   0.012  12.793  0.00  0.00    +0.001 A 
ATOM     34  C   UNL     1       6.870  -0.562  11.700  0.00  0.00    +0.010 A 
ENDBRANCH  25  29
ENDBRANCH  19  20
ENDBRANCH   4  18
TORSDOF 6
