REMARK  Name = ZINC05728373
REMARK  6 active torsions:
REMARK  status: ('A' for Active; 'I' for Inactive)
REMARK    1  A    between atoms: C_1  and  O_2
REMARK    2  A    between atoms: O_2  and  C_3
REMARK    3  A    between atoms: C_12  and  C_13
REMARK    4  A    between atoms: C_22  and  C_30
REMARK    5  A    between atoms: C_24  and  C_25
REMARK    6  A    between atoms: C_24  and  C_27
REMARK                            x       y       z     vdW  Elec       q    Type
REMARK                         _______ _______ _______ _____ _____    ______ ____
ROOT
ATOM      1  C   UNL     1       2.557  -0.372  -0.075  0.00  0.00    +0.070 C 
ATOM      2  C   UNL     1       3.156  -0.787   1.270  0.00  0.00    +0.027 C 
ATOM      3  C   UNL     1       2.209  -0.532   2.418  0.00  0.00    +0.009 C 
ATOM      4  C   UNL     1       2.561   0.747   3.176  0.00  0.00    +0.005 C 
ATOM      5  C   UNL     1       4.000   0.620   3.696  0.00  0.00    +0.027 C 
ATOM      6  C   UNL     1       4.908   0.482   2.500  0.00  0.00    -0.026 C 
ATOM      7  C   UNL     1       4.500  -0.135   1.408  0.00  0.00    -0.047 C 
ATOM      8  C   UNL     1       5.401  -0.201   0.228  0.00  0.00    +0.164 C 
ATOM      9  C   UNL     1       4.888  -0.551  -0.979  0.00  0.00    +0.065 C 
ATOM     10  C   UNL     1       3.448  -0.905  -1.198  0.00  0.00    +0.189 C 
ATOM     11  N   UNL     1       5.731  -0.582  -2.054  0.00  0.00    -0.304 NA
ATOM     12  H   UNL     1       5.392  -0.829  -2.929  0.00  0.00    +0.186 HD
ENDROOT
BRANCH   1  22
ATOM     13  C   UNL     1       3.473   1.831  -0.793  0.00  0.00    +0.124 A 
ATOM     14  C   UNL     1       3.423   3.226  -0.875  0.00  0.00    +0.046 A 
ATOM     15  C   UNL     1       2.395   3.923  -0.322  0.00  0.00    +0.012 A 
ATOM     16  C   UNL     1       1.364   3.235   0.343  0.00  0.00    -0.017 A 
ATOM     17  C   UNL     1       0.287   3.924   0.926  0.00  0.00    +0.008 A 
ATOM     18  C   UNL     1      -0.693   3.227   1.562  0.00  0.00    +0.001 A 
ATOM     19  C   UNL     1      -0.649   1.836   1.641  0.00  0.00    +0.001 A 
ATOM     20  C   UNL     1       0.381   1.135   1.093  0.00  0.00    +0.009 A 
ATOM     21  C   UNL     1       1.412   1.821   0.427  0.00  0.00    -0.011 A 
ATOM     22  C   UNL     1       2.488   1.131  -0.155  0.00  0.00    +0.008 A 
BRANCH  13  24
ATOM     23  C   UNL     1       5.445   1.934  -2.116  0.00  0.00    +0.277 C 
ATOM     24  O   UNL     1       4.514   1.162  -1.355  0.00  0.00    -0.495 OA
ENDBRANCH  13  24
ENDBRANCH   1  22
BRANCH  10  25
ATOM     25  C   UNL     1       3.318  -2.370  -1.260  0.00  0.00    +0.091 C 
ATOM     26  N   UNL     1       3.218  -3.501  -1.307  0.00  0.00    -0.195 NA
ENDBRANCH  10  25
BRANCH  10  27
ATOM     27  C   UNL     1       3.003  -0.330  -2.477  0.00  0.00    +0.091 C 
ATOM     28  N   UNL     1       2.660   0.114  -3.465  0.00  0.00    -0.195 NA
ENDBRANCH  10  27
BRANCH   8  29
ATOM     29  C   UNL     1       6.794   0.100   0.363  0.00  0.00    +0.076 C 
ATOM     30  N   UNL     1       7.900   0.339   0.470  0.00  0.00    -0.196 NA
ENDBRANCH   8  29
TORSDOF 5
