REMARK  Name = ZINC12309766
REMARK  13 active torsions:
REMARK  status: ('A' for Active; 'I' for Inactive)
REMARK    1  A    between atoms: C_1  and  C_2
REMARK    2  A    between atoms: C_2  and  C_3
REMARK    3  A    between atoms: C_3  and  C_4
REMARK    4  A    between atoms: C_4  and  C_5
REMARK    5  A    between atoms: C_11  and  N_12
REMARK    6  A    between atoms: N_12  and  O_13
REMARK    7  A    between atoms: O_13  and  C_14
REMARK    8  A    between atoms: C_14  and  C_15
REMARK    9  A    between atoms: N_17  and  C_18
REMARK   10  A    between atoms: C_21  and  C_24
REMARK   11  A    between atoms: C_24  and  C_25
REMARK   12  A    between atoms: N_28  and  C_33
REMARK   13  A    between atoms: N_31  and  C_32
REMARK                            x       y       z     vdW  Elec       q    Type
REMARK                         _______ _______ _______ _____ _____    ______ ____
ROOT
ATOM      1  C   UNL     1      10.971  -0.427  -0.762  0.00  0.00    -0.005 A 
ATOM      2  C   UNL     1      12.003   0.366  -1.096  0.00  0.00    +0.090 A 
ATOM      3  N   UNL     1      11.861   1.722  -1.223  0.00  0.00    -0.347 N 
ATOM      4  H   UNL     1      12.649   2.314  -1.712  0.00  0.00    +0.167 HD
ATOM      5  C   UNL     1      10.766   2.380  -0.759  0.00  0.00    +0.129 A 
ATOM      6  C   UNL     1       9.626   1.664  -0.404  0.00  0.00    +0.106 A 
ATOM      7  C   UNL     1       9.651   0.195  -0.534  0.00  0.00    +0.082 A 
ATOM      8  C   UNL     1       8.487   2.357   0.068  0.00  0.00    +0.268 A 
ATOM      9  O   UNL     1       7.478   1.751   0.381  0.00  0.00    -0.267 OA
ATOM     10  N   UNL     1       8.539   3.703   0.164  0.00  0.00    -0.263 N 
ATOM     11  C   UNL     1       9.652   4.375  -0.180  0.00  0.00    +0.333 A 
ATOM     12  O   UNL     1       9.665   5.586  -0.079  0.00  0.00    -0.246 OA
ATOM     13  N   UNL     1      10.752   3.746  -0.634  0.00  0.00    -0.282 N 
ATOM     14  C   UNL     1      11.939   4.524  -0.997  0.00  0.00    +0.155 C 
ATOM     15  C   UNL     1       7.370   4.441   0.649  0.00  0.00    +0.157 C 
ENDROOT
BRANCH   7  16
ATOM     16  N   UNL     1       8.555  -0.524  -0.447  0.00  0.00    -0.264 N 
ATOM     17  H   UNL     1       8.615  -1.588  -0.172  0.00  0.00    +0.194 HD
BRANCH  16  18
ATOM     18  O   UNL     1       7.296   0.070  -0.706  0.00  0.00    -0.265 OA
BRANCH  18  19
ATOM     19  C   UNL     1       6.192  -0.828  -0.574  0.00  0.00    +0.288 C 
BRANCH  19  20
ATOM     20  C   UNL     1       4.909  -0.094  -0.871  0.00  0.00    +0.246 C 
ATOM     21  O   UNL     1       4.938   1.082  -1.166  0.00  0.00    -0.273 OA
ATOM     22  N   UNL     1       3.731  -0.745  -0.808  0.00  0.00    -0.284 N 
ATOM     23  H   UNL     1       3.695  -1.786  -0.456  0.00  0.00    +0.155 HD
BRANCH  22  24
ATOM     24  C   UNL     1       2.552  -0.095  -1.191  0.00  0.00    +0.033 A 
ATOM     25  C   UNL     1       2.596   0.938  -2.118  0.00  0.00    +0.023 A 
ATOM     26  C   UNL     1       1.431   1.578  -2.493  0.00  0.00    +0.005 A 
ATOM     27  C   UNL     1       0.221   1.190  -1.948  0.00  0.00    -0.048 A 
ATOM     28  C   UNL     1       0.174   0.162  -1.025  0.00  0.00    +0.005 A 
ATOM     29  C   UNL     1       1.335  -0.482  -0.645  0.00  0.00    +0.023 A 
BRANCH  27  30
ATOM     30  C   UNL     1      -1.047   1.894  -2.355  0.00  0.00    +0.032 C 
ATOM     31  C   UNL     1      -1.657   1.186  -3.566  0.00  0.00    +0.009 C 
ENDBRANCH  27  30
ENDBRANCH  22  24
ENDBRANCH  19  20
ENDBRANCH  18  19
ENDBRANCH  16  18
ENDBRANCH   7  16
BRANCH   1  32
ATOM     32  C   UNL     1      11.154  -1.917  -0.627  0.00  0.00    +0.039 C 
BRANCH  32  33
ATOM     33  C   UNL     1      10.897  -2.586  -1.979  0.00  0.00    +0.004 C 
BRANCH  33  35
ATOM     34  C   UNL     1      10.826  -4.767  -3.195  0.00  0.00    +0.004 C 
ATOM     35  C   UNL     1      11.083  -4.098  -1.843  0.00  0.00    -0.003 C 
ENDBRANCH  33  35
ENDBRANCH  32  33
ENDBRANCH   1  32
TORSDOF 9
