REMARK  Name = ZINC55404681
REMARK  4 active torsions:
REMARK  status: ('A' for Active; 'I' for Inactive)
REMARK    1  A    between atoms: C_4  and  C_7
REMARK    2  A    between atoms: C_10  and  N_13
REMARK    3  A    between atoms: N_13  and  S_14
REMARK    4  A    between atoms: S_14  and  C_17
REMARK                            x       y       z     vdW  Elec       q    Type
REMARK                         _______ _______ _______ _____ _____    ______ ____
ROOT
ATOM      1  S   UNL     1       7.622  -3.933   0.999  0.00  0.00    +0.072 S 
ATOM      2  O   UNL     1       6.544  -4.849   0.867  0.00  0.00    -0.150 OA
ATOM      3  O   UNL     1       8.978  -4.324   0.830  0.00  0.00    -0.150 OA
ENDROOT
BRANCH   1   4
ATOM      4  C   UNL     1       7.496  -3.236   2.612  0.00  0.00    +0.110 A 
ATOM      5  C   UNL     1       8.591  -2.610   3.179  0.00  0.00    +0.032 A 
ATOM      6  C   UNL     1       8.500  -2.059   4.445  0.00  0.00    +0.049 A 
ATOM      7  C   UNL     1       7.309  -2.135   5.146  0.00  0.00    +0.142 A 
ATOM      8  C   UNL     1       6.206  -2.766   4.574  0.00  0.00    +0.078 A 
ATOM      9  C   UNL     1       6.301  -3.311   3.304  0.00  0.00    +0.055 A 
ATOM     10  N   UNL     1       5.006  -2.838   5.295  0.00  0.00    -0.280 N 
ATOM     11  C   UNL     1       4.841  -2.038   6.372  0.00  0.00    +0.255 C 
ATOM     12  O   UNL     1       3.824  -2.106   7.030  0.00  0.00    -0.272 OA
ATOM     13  C   UNL     1       5.925  -1.063   6.752  0.00  0.00    +0.325 C 
ATOM     14  O   UNL     1       7.201  -1.598   6.391  0.00  0.00    -0.481 OA
ATOM     15  H   UNL     1       4.305  -3.452   5.026  0.00  0.00    +0.155 HD
ENDBRANCH   1   4
BRANCH   1  16
ATOM     16  N   UNL     1       7.343  -2.713  -0.086  0.00  0.00    -0.216 N 
ATOM     17  H   UNL     1       8.034  -2.457  -0.716  0.00  0.00    +0.174 HD
BRANCH  16  21
ATOM     18  C   UNL     1       3.669  -0.748  -0.109  0.00  0.00    -0.018 A 
ATOM     19  C   UNL     1       4.853  -0.015  -0.161  0.00  0.00    +0.010 A 
ATOM     20  C   UNL     1       6.068  -0.667  -0.153  0.00  0.00    +0.025 A 
ATOM     21  C   UNL     1       6.112  -2.055  -0.093  0.00  0.00    +0.048 A 
ATOM     22  C   UNL     1       4.932  -2.789  -0.042  0.00  0.00    +0.025 A 
ATOM     23  C   UNL     1       3.716  -2.140  -0.044  0.00  0.00    +0.010 A 
BRANCH  18  27
ATOM     24  C   UNL     1      -0.080   1.257  -0.135  0.00  0.00    +0.000 A 
ATOM     25  C   UNL     1       1.093   1.988  -0.192  0.00  0.00    +0.001 A 
ATOM     26  C   UNL     1       2.312   1.343  -0.184  0.00  0.00    +0.008 A 
ATOM     27  C   UNL     1       2.361  -0.049  -0.118  0.00  0.00    -0.018 A 
ATOM     28  C   UNL     1       1.176  -0.780  -0.061  0.00  0.00    +0.008 A 
ATOM     29  C   UNL     1      -0.038  -0.124  -0.070  0.00  0.00    +0.001 A 
ENDBRANCH  18  27
ENDBRANCH  16  21
ENDBRANCH   1  16
TORSDOF 4
