REMARK  Name = ZINC08375865
REMARK  7 active torsions:
REMARK  status: ('A' for Active; 'I' for Inactive)
REMARK    1  A    between atoms: C_1  and  N_54
REMARK    2  A    between atoms: C_2  and  C_3
REMARK    3  A    between atoms: C_2  and  N_54
REMARK    4  A    between atoms: N_8  and  C_9
REMARK    5  A    between atoms: C_18  and  C_19
REMARK    6  A    between atoms: C_18  and  C_25
REMARK    7  A    between atoms: C_18  and  N_54
REMARK                            x       y       z     vdW  Elec       q    Type
REMARK                         _______ _______ _______ _____ _____    ______ ____
ROOT
ATOM      1  C   UNL     1       8.504  -3.132   4.522  0.00  0.00    +0.020 C 
ENDROOT
BRANCH   1   2
ATOM      2  C   UNL     1       7.287  -3.136   3.632  0.00  0.00    +0.204 C 
ATOM      3  O   UNL     1       6.592  -4.126   3.560  0.00  0.00    -0.277 OA
ATOM      4  N   UNL     1       6.973  -2.038   2.917  0.00  0.00    -0.241 N 
ATOM      5  C   UNL     1       5.885  -2.040   2.121  0.00  0.00    +0.310 C 
ATOM      6  O   UNL     1       5.188  -3.033   2.049  0.00  0.00    -0.252 OA
ATOM      7  N   UNL     1       5.571  -0.942   1.406  0.00  0.00    -0.269 N 
ATOM      8  H   UNL     1       7.529  -1.245   2.975  0.00  0.00    +0.159 HD
ATOM      9  H   UNL     1       6.167  -0.177   1.405  0.00  0.00    +0.156 HD
BRANCH   7  10
ATOM     10  C   UNL     1       4.383  -0.906   0.664  0.00  0.00    +0.038 A 
ATOM     11  C   UNL     1       3.260  -1.587   1.116  0.00  0.00    +0.027 A 
ATOM     12  C   UNL     1       2.088  -1.552   0.386  0.00  0.00    +0.051 A 
ATOM     13  C   UNL     1       2.029  -0.838  -0.800  0.00  0.00    +0.166 A 
ATOM     14  C   UNL     1       3.153  -0.154  -1.256  0.00  0.00    +0.168 A 
ATOM     15  C   UNL     1       4.327  -0.189  -0.523  0.00  0.00    +0.073 A 
ATOM     16  O   UNL     1       2.840   0.465  -2.432  0.00  0.00    -0.453 OA
ATOM     17  C   UNL     1       1.401   0.490  -2.482  0.00  0.00    +0.466 C 
ATOM     18  O   UNL     1       1.011  -0.647  -1.691  0.00  0.00    -0.453 OA
ENDBRANCH   7  10
ENDBRANCH   1   2
BRANCH   1  20
ATOM     19  C   UNL     1       8.908  -5.500   4.215  0.00  0.00    -0.094 C 
ATOM     20  N   UNL     1       8.602  -4.442   5.201  0.00  0.00    +0.391 N 
ATOM     21  H   UNL     1       7.702  -4.654   5.648  0.00  0.00    -0.080 HD
BRANCH  20  22
ATOM     22  C   UNL     1       9.655  -4.396   6.237  0.00  0.00    -0.007 C 
BRANCH  22  23
ATOM     23  C   UNL     1       9.296  -3.342   7.252  0.00  0.00    -0.057 A 
ATOM     24  C   UNL     1       8.004  -3.257   7.734  0.00  0.00    +0.002 A 
ATOM     25  C   UNL     1       7.676  -2.293   8.669  0.00  0.00    +0.000 A 
ATOM     26  C   UNL     1       8.639  -1.406   9.113  0.00  0.00    +0.000 A 
ATOM     27  C   UNL     1       9.930  -1.487   8.627  0.00  0.00    +0.000 A 
ATOM     28  C   UNL     1      10.259  -2.455   7.696  0.00  0.00    +0.002 A 
ENDBRANCH  22  23
BRANCH  22  29
ATOM     29  C   UNL     1       9.732  -5.740   6.915  0.00  0.00    -0.057 A 
ATOM     30  C   UNL     1       8.573  -6.401   7.275  0.00  0.00    +0.002 A 
ATOM     31  C   UNL     1       8.644  -7.635   7.893  0.00  0.00    +0.000 A 
ATOM     32  C   UNL     1       9.875  -8.205   8.159  0.00  0.00    +0.000 A 
ATOM     33  C   UNL     1      11.035  -7.542   7.804  0.00  0.00    +0.000 A 
ATOM     34  C   UNL     1      10.963  -6.309   7.182  0.00  0.00    +0.002 A 
ENDBRANCH  22  29
ENDBRANCH  20  22
ENDBRANCH   1  20
TORSDOF 6
