REMARK  Name = ZINC09110714
REMARK  7 active torsions:
REMARK  status: ('A' for Active; 'I' for Inactive)
REMARK    1  A    between atoms: C_1  and  C_2
REMARK    2  A    between atoms: C_5  and  C_8
REMARK    3  A    between atoms: C_8  and  S_9
REMARK    4  A    between atoms: S_9  and  C_10
REMARK    5  A    between atoms: C_13  and  C_16
REMARK    6  A    between atoms: N_14  and  N_15
REMARK    7  A    between atoms: C_18  and  C_22
REMARK                            x       y       z     vdW  Elec       q    Type
REMARK                         _______ _______ _______ _____ _____    ______ ____
ROOT
ATOM      1  C   UNL     1       1.621  -6.615  -0.111  0.00  0.00    +0.209 A 
ATOM      2  N   UNL     1       0.513  -7.309   0.023  0.00  0.00    -0.120 NA
ATOM      3  N   UNL     1       0.780  -8.565   0.059  0.00  0.00    -0.125 NA
ATOM      4  C   UNL     1       2.077  -8.751  -0.050  0.00  0.00    +0.199 A 
ATOM      5  N   UNL     1       2.654  -7.507  -0.168  0.00  0.00    -0.223 N 
ENDROOT
BRANCH   4   6
ATOM      6  C   UNL     1       2.779 -10.047  -0.051  0.00  0.00    +0.105 A 
ATOM      7  C   UNL     1       2.211 -11.274  -0.249  0.00  0.00    +0.061 A 
ATOM      8  C   UNL     1       3.231 -12.236  -0.170  0.00  0.00    +0.093 A 
ATOM      9  N   UNL     1       4.369 -11.616   0.066  0.00  0.00    -0.173 NA
ATOM     10  N   UNL     1       4.117 -10.240   0.140  0.00  0.00    -0.273 N 
ATOM     11  H   UNL     1       4.777  -9.547   0.301  0.00  0.00    +0.189 HD
BRANCH   8  12
ATOM     12  C   UNL     1       3.057 -13.702  -0.326  0.00  0.00    +0.002 A 
ATOM     13  C   UNL     1       1.794 -14.232  -0.580  0.00  0.00    +0.011 A 
ATOM     14  C   UNL     1       1.637 -15.596  -0.724  0.00  0.00    +0.020 A 
ATOM     15  C   UNL     1       2.732 -16.436  -0.617  0.00  0.00    +0.041 A 
ATOM     16  C   UNL     1       3.989 -15.913  -0.365  0.00  0.00    +0.020 A 
ATOM     17  C   UNL     1       4.157 -14.551  -0.225  0.00  0.00    +0.011 A 
ATOM     18 CL   UNL     1       2.529 -18.150  -0.799  0.00  0.00    -0.084 Cl
ENDBRANCH   8  12
ENDBRANCH   4   6
BRANCH   5  19
ATOM     19  N   UNL     1       3.983  -7.223  -0.309  0.00  0.00    -0.295 N 
ATOM     20  H   UNL     1       4.443  -7.189   0.588  0.00  0.00    +0.163 HD
ATOM     21  H   UNL     1       4.431  -7.888  -0.921  0.00  0.00    +0.163 HD
ENDBRANCH   5  19
BRANCH   1  22
ATOM     22  S   UNL     1       1.749  -4.860  -0.207  0.00  0.00    -0.080 S 
BRANCH  22  23
ATOM     23  C   UNL     1       0.034  -4.286  -0.070  0.00  0.00    +0.112 C 
BRANCH  23  28
ATOM     24  C   UNL     1      -0.098   1.485  -0.333  0.00  0.00    +0.044 C 
ATOM     25  C   UNL     1      -0.064  -0.020  -0.265  0.00  0.00    -0.050 A 
ATOM     26  C   UNL     1      -0.161  -0.767  -1.423  0.00  0.00    +0.003 A 
ATOM     27  C   UNL     1      -0.130  -2.148  -1.361  0.00  0.00    +0.005 A 
ATOM     28  C   UNL     1       0.000  -2.781  -0.139  0.00  0.00    -0.037 A 
ATOM     29  C   UNL     1       0.099  -2.034   1.020  0.00  0.00    +0.005 A 
ATOM     30  C   UNL     1       0.071  -0.653   0.957  0.00  0.00    +0.003 A 
ENDBRANCH  23  28
ENDBRANCH  22  23
ENDBRANCH   1  22
TORSDOF 6
