REMARK  Name = ZINC59113718
REMARK  12 active torsions:
REMARK  status: ('A' for Active; 'I' for Inactive)
REMARK    1  A    between atoms: C_1  and  C_2
REMARK    2  A    between atoms: C_2  and  C_23
REMARK    3  A    between atoms: C_4  and  N_11
REMARK    4  A    between atoms: C_7  and  C_9
REMARK    5  A    between atoms: C_7  and  C_10
REMARK    6  A    between atoms: N_11  and  C_12
REMARK    7  A    between atoms: C_12  and  N_14
REMARK    8  A    between atoms: N_14  and  C_15
REMARK    9  A    between atoms: C_23  and  N_24
REMARK   10  A    between atoms: N_24  and  C_25
REMARK   11  A    between atoms: C_25  and  N_27
REMARK   12  A    between atoms: N_27  and  C_28
REMARK                            x       y       z     vdW  Elec       q    Type
REMARK                         _______ _______ _______ _____ _____    ______ ____
ROOT
ATOM      1  C   UNL     1       0.006   1.908   0.423  0.00  0.00    +0.013 C 
ATOM      2  C   UNL     1       0.554   0.479   0.408  0.00  0.00    -0.014 C 
ATOM      3  C   UNL     1      -0.562  -0.534   0.608  0.00  0.00    +0.030 C 
ATOM      4  C   UNL     1      -1.022  -0.651   2.050  0.00  0.00    +0.073 C 
ATOM      5  C   UNL     1       0.138  -0.903   2.996  0.00  0.00    +0.028 C 
ATOM      6  C   UNL     1       1.279   0.090   2.843  0.00  0.00    -0.033 C 
ATOM      7  C   UNL     1       1.688   0.314   1.400  0.00  0.00    +0.014 C 
ATOM      8  C   UNL     1       0.944   1.414   3.534  0.00  0.00    +0.011 C 
ATOM      9  C   UNL     1       2.504  -0.502   3.584  0.00  0.00    +0.011 C 
ENDROOT
BRANCH   4  10
ATOM     10  N   UNL     1      -1.831   0.490   2.465  0.00  0.00    -0.323 N 
ATOM     11  H   UNL     1      -1.730   1.345   2.017  0.00  0.00    +0.148 HD
BRANCH  10  12
ATOM     12  C   UNL     1      -2.719   0.357   3.470  0.00  0.00    +0.135 C 
ATOM     13  S   UNL     1      -2.898  -1.151   4.260  0.00  0.00    -0.019 S 
BRANCH  12  14
ATOM     14  N   UNL     1      -3.467   1.411   3.853  0.00  0.00    -0.295 N 
ATOM     15  H   UNL     1      -3.340   2.274   3.430  0.00  0.00    +0.154 HD
BRANCH  14  16
ATOM     16  C   UNL     1      -4.428   1.259   4.862  0.00  0.00    +0.068 A 
ATOM     17  C   UNL     1      -5.194   0.103   4.924  0.00  0.00    +0.029 A 
ATOM     18  C   UNL     1      -6.139  -0.045   5.920  0.00  0.00    +0.040 A 
ATOM     19  C   UNL     1      -6.325   0.958   6.856  0.00  0.00    +0.126 A 
ATOM     20  C   UNL     1      -5.562   2.112   6.798  0.00  0.00    +0.078 A 
ATOM     21  C   UNL     1      -4.611   2.263   5.806  0.00  0.00    +0.147 A 
ATOM     22  F   UNL     1      -3.863   3.387   5.751  0.00  0.00    -0.203 F 
ATOM     23  F   UNL     1      -7.251   0.810   7.829  0.00  0.00    -0.205 F 
ENDBRANCH  14  16
ENDBRANCH  12  14
ENDBRANCH  10  12
ENDBRANCH   4  10
BRANCH   2  24
ATOM     24  C   UNL     1       1.139   0.241  -1.007  0.00  0.00    +0.110 C 
BRANCH  24  25
ATOM     25  N   UNL     1       0.081   0.404  -2.007  0.00  0.00    -0.326 N 
ATOM     26  H   UNL     1      -0.820   0.628  -1.727  0.00  0.00    +0.148 HD
BRANCH  25  27
ATOM     27  C   UNL     1       0.360   0.243  -3.316  0.00  0.00    +0.135 C 
ATOM     28  S   UNL     1       1.951  -0.152  -3.809  0.00  0.00    -0.019 S 
BRANCH  27  29
ATOM     29  N   UNL     1      -0.614   0.393  -4.236  0.00  0.00    -0.295 N 
ATOM     30  H   UNL     1      -1.503   0.664  -3.960  0.00  0.00    +0.154 HD
BRANCH  29  31
ATOM     31  C   UNL     1      -0.341   0.156  -5.589  0.00  0.00    +0.068 A 
ATOM     32  C   UNL     1       0.487  -0.896  -5.958  0.00  0.00    +0.029 A 
ATOM     33  C   UNL     1       0.755  -1.128  -7.293  0.00  0.00    +0.040 A 
ATOM     34  C   UNL     1       0.199  -0.313  -8.265  0.00  0.00    +0.126 A 
ATOM     35  C   UNL     1      -0.627   0.737  -7.901  0.00  0.00    +0.078 A 
ATOM     36  C   UNL     1      -0.903   0.970  -6.566  0.00  0.00    +0.147 A 
ATOM     37  F   UNL     1      -1.713   1.992  -6.211  0.00  0.00    -0.203 F 
ATOM     38  F   UNL     1       0.463  -0.543  -9.570  0.00  0.00    -0.205 F 
ENDBRANCH  29  31
ENDBRANCH  27  29
ENDBRANCH  25  27
ENDBRANCH  24  25
ENDBRANCH   2  24
TORSDOF 9
