REMARK  Name = ZINC45079151
REMARK  7 active torsions:
REMARK  status: ('A' for Active; 'I' for Inactive)
REMARK    1  A    between atoms: C_5  and  O_7
REMARK    2  A    between atoms: O_7  and  C_8
REMARK    3  A    between atoms: C_8  and  C_9
REMARK    4  A    between atoms: C_9  and  C_10
REMARK    5  A    between atoms: C_10  and  C_11
REMARK    6  A    between atoms: N_13  and  C_14
REMARK    7  A    between atoms: C_17  and  N_20
REMARK                            x       y       z     vdW  Elec       q    Type
REMARK                         _______ _______ _______ _____ _____    ______ ____
ROOT
ATOM      1  C   UNL     1      -0.904  -6.427  -0.046  0.00  0.00    +0.217 C 
ATOM      2  O   UNL     1       0.222  -6.879  -0.073  0.00  0.00    -0.275 OA
ATOM      3  N   UNL     1      -1.964  -7.260  -0.030  0.00  0.00    -0.285 N 
ATOM      4  H   UNL     1      -2.861  -6.901   0.059  0.00  0.00    +0.155 HD
ENDROOT
BRANCH   3   5
ATOM      5  C   UNL     1      -1.770  -8.643  -0.143  0.00  0.00    +0.033 A 
ATOM      6  C   UNL     1      -2.692  -9.419  -0.833  0.00  0.00    +0.025 A 
ATOM      7  C   UNL     1      -2.501 -10.782  -0.943  0.00  0.00    +0.025 A 
ATOM      8  C   UNL     1      -1.388 -11.376  -0.365  0.00  0.00    +0.035 A 
ATOM      9  C   UNL     1      -0.466 -10.600   0.325  0.00  0.00    +0.025 A 
ATOM     10  C   UNL     1      -0.653  -9.236   0.430  0.00  0.00    +0.025 A 
BRANCH   8  11
ATOM     11  N   UNL     1      -1.194 -12.759  -0.477  0.00  0.00    -0.270 N 
ATOM     12  C   UNL     1      -0.639 -13.447   0.541  0.00  0.00    +0.301 C 
ATOM     13  O   UNL     1      -0.228 -12.856   1.521  0.00  0.00    -0.253 OA
ATOM     14  N   UNL     1      -0.538 -14.789   0.471  0.00  0.00    -0.313 N 
ATOM     15  H   UNL     1      -1.461 -13.222  -1.286  0.00  0.00    +0.156 HD
ATOM     16  H   UNL     1      -0.865 -15.260  -0.311  0.00  0.00    +0.146 HD
ATOM     17  H   UNL     1      -0.138 -15.284   1.204  0.00  0.00    +0.146 HD
ENDBRANCH   8  11
ENDBRANCH   3   5
BRANCH   1  18
ATOM     18  C   UNL     1      -1.117  -4.936  -0.030  0.00  0.00    +0.099 C 
BRANCH  18  19
ATOM     19  C   UNL     1       0.239  -4.226  -0.053  0.00  0.00    +0.050 C 
BRANCH  19  20
ATOM     20  C   UNL     1       0.022  -2.712  -0.037  0.00  0.00    +0.229 C 
BRANCH  20  21
ATOM     21  O   UNL     1       1.288  -2.050  -0.058  0.00  0.00    -0.491 OA
BRANCH  21  26
ATOM     22  C   UNL     1       0.055   1.373  -0.007  0.00  0.00    +0.004 A 
ATOM     23  C   UNL     1       1.245   2.076  -0.026  0.00  0.00    +0.001 A 
ATOM     24  C   UNL     1       2.450   1.399  -0.056  0.00  0.00    +0.019 A 
ATOM     25  C   UNL     1       2.468   0.017  -0.067  0.00  0.00    +0.059 A 
ATOM     26  C   UNL     1       1.274  -0.691  -0.047  0.00  0.00    +0.134 A 
ATOM     27  C   UNL     1       0.067  -0.009  -0.018  0.00  0.00    +0.047 A 
ATOM     28 BR   UNL     1       4.117  -0.908  -0.108  0.00  0.00    -0.047 Br
ENDBRANCH  21  26
ENDBRANCH  20  21
ENDBRANCH  19  20
ENDBRANCH  18  19
ENDBRANCH   1  18
TORSDOF 7
