REMARK  Name = ZINC13637065
REMARK  5 active torsions:
REMARK  status: ('A' for Active; 'I' for Inactive)
REMARK    1  A    between atoms: C_1  and  C_2
REMARK    2  A    between atoms: C_5  and  S_8
REMARK    3  A    between atoms: S_8  and  C_9
REMARK    4  A    between atoms: C_9  and  C_10
REMARK    5  A    between atoms: N_18  and  C_19
REMARK                            x       y       z     vdW  Elec       q    Type
REMARK                         _______ _______ _______ _____ _____    ______ ____
ROOT
ATOM      1  C   UNL     1      -0.093   5.427   0.233  0.00  0.00    +0.060 A 
ATOM      2  C   UNL     1      -1.259   6.128   0.347  0.00  0.00    +0.094 A 
ATOM      3  C   UNL     1      -2.477   5.425   0.350  0.00  0.00    +0.253 A 
ATOM      4  O   UNL     1      -3.538   6.020   0.451  0.00  0.00    -0.268 OA
ATOM      5  N   UNL     1      -2.450   4.080   0.236  0.00  0.00    -0.295 N 
ATOM      6  H   UNL     1      -3.279   3.575   0.232  0.00  0.00    +0.172 HD
ATOM      7  C   UNL     1      -1.257   3.434   0.130  0.00  0.00    +0.200 A 
ATOM      8  N   UNL     1      -0.119   4.101   0.127  0.00  0.00    -0.220 NA
ATOM      9  N   UNL     1      -1.238   2.069   0.019  0.00  0.00    -0.285 N 
ATOM     10  H   UNL     1      -2.062   1.564   0.103  0.00  0.00    +0.155 HD
ENDROOT
BRANCH   9  11
ATOM     11  C   UNL     1      -0.029   1.403  -0.215  0.00  0.00    +0.034 A 
ATOM     12  C   UNL     1       0.955   2.000  -0.991  0.00  0.00    +0.026 A 
ATOM     13  C   UNL     1       2.144   1.338  -1.226  0.00  0.00    +0.040 A 
ATOM     14  C   UNL     1       2.356   0.080  -0.687  0.00  0.00    +0.124 A 
ATOM     15  C   UNL     1       1.376  -0.517   0.087  0.00  0.00    +0.040 A 
ATOM     16  C   UNL     1       0.185   0.141   0.324  0.00  0.00    +0.026 A 
ATOM     17  F   UNL     1       3.521  -0.565  -0.917  0.00  0.00    -0.205 F 
ENDBRANCH   9  11
BRANCH   1  18
ATOM     18  C   UNL     1       1.225   6.157   0.226  0.00  0.00    +0.130 C 
BRANCH  18  19
ATOM     19  S   UNL     1       2.049   5.931   1.827  0.00  0.00    -0.119 S 
BRANCH  19  24
ATOM     20  C   UNL     1       7.208   9.013   1.260  0.00  0.00    +0.044 C 
ATOM     21  C   UNL     1       5.920   8.244   1.402  0.00  0.00    -0.050 A 
ATOM     22  C   UNL     1       5.636   7.586   2.585  0.00  0.00    +0.004 A 
ATOM     23  C   UNL     1       4.456   6.880   2.718  0.00  0.00    +0.015 A 
ATOM     24  C   UNL     1       3.555   6.831   1.661  0.00  0.00    +0.008 A 
ATOM     25  C   UNL     1       3.846   7.489   0.472  0.00  0.00    +0.015 A 
ATOM     26  C   UNL     1       5.025   8.198   0.348  0.00  0.00    +0.004 A 
ENDBRANCH  19  24
ENDBRANCH  18  19
ENDBRANCH   1  18
TORSDOF 4
