REMARK  Name = ZINC38101813
REMARK  3 active torsions:
REMARK  status: ('A' for Active; 'I' for Inactive)
REMARK    1  A    between atoms: C_1  and  O_2
REMARK    2  A    between atoms: O_2  and  C_3
REMARK    3  A    between atoms: C_11  and  C_13
REMARK                            x       y       z     vdW  Elec       q    Type
REMARK                         _______ _______ _______ _____ _____    ______ ____
ROOT
ATOM      1  C   UNL     1       3.637  -1.098  -1.174  0.00  0.00    +0.403 C 
ATOM      2  O   UNL     1       3.072  -0.574  -2.113  0.00  0.00    -0.226 OA
ATOM      3  N   UNL     1       3.408  -2.395  -0.888  0.00  0.00    -0.264 N 
ATOM      4  C   UNL     1       4.080  -3.040   0.248  0.00  0.00    +0.130 C 
ATOM      5  C   UNL     1       3.014  -3.650   1.167  0.00  0.00    +0.127 C 
ATOM      6  N   UNL     1       2.087  -4.444   0.348  0.00  0.00    -0.300 N 
ATOM      7  C   UNL     1       1.415  -3.799  -0.789  0.00  0.00    +0.127 C 
ATOM      8  C   UNL     1       2.478  -3.187  -1.704  0.00  0.00    +0.130 C 
ATOM      9  C   UNL     1       1.858  -5.741   0.633  0.00  0.00    +0.202 C 
ATOM     10  O   UNL     1       1.023  -6.361   0.010  0.00  0.00    -0.277 OA
ENDROOT
BRANCH   9  11
ATOM     11  C   UNL     1       2.641  -6.421   1.728  0.00  0.00    +0.017 C 
ATOM     12  C   UNL     1       1.968  -6.164   3.095  0.00  0.00    -0.005 C 
ATOM     13  C   UNL     1       2.189  -7.519   3.837  0.00  0.00    -0.026 C 
ATOM     14  C   UNL     1       3.647  -7.532   4.301  0.00  0.00    +0.002 C 
ATOM     15  C   UNL     1       4.084  -8.949   4.663  0.00  0.00    +0.000 C 
ATOM     16  C   UNL     1       3.986  -9.829   3.412  0.00  0.00    -0.002 C 
ATOM     17  C   UNL     1       2.522  -9.886   2.974  0.00  0.00    -0.015 C 
ATOM     18  C   UNL     1       1.971  -8.504   2.670  0.00  0.00    -0.068 C 
ATOM     19  N   UNL     1       2.640  -7.885   1.514  0.00  0.00    +0.389 N 
ATOM     20  H   UNL     1       2.137  -8.107   0.668  0.00  0.00    -0.084 HD
ATOM     21  H   UNL     1       3.589  -8.222   1.447  0.00  0.00    -0.084 HD
ENDBRANCH   9  11
BRANCH   1  23
ATOM     22  C   UNL     1       4.687   0.987  -0.779  0.00  0.00    +0.282 C 
ATOM     23  O   UNL     1       4.492  -0.383  -0.419  0.00  0.00    -0.454 OA
ENDBRANCH   1  23
TORSDOF 2
