REMARK  Name = ZINC00291308
REMARK  7 active torsions:
REMARK  status: ('A' for Active; 'I' for Inactive)
REMARK    1  A    between atoms: C_1  and  C_2
REMARK    2  A    between atoms: C_2  and  C_3
REMARK    3  A    between atoms: C_2  and  C_9
REMARK    4  A    between atoms: C_2  and  O_25
REMARK    5  A    between atoms: N_11  and  N_12
REMARK    6  A    between atoms: C_13  and  C_14
REMARK    7  A    between atoms: C_23  and  O_24
REMARK                            x       y       z     vdW  Elec       q    Type
REMARK                         _______ _______ _______ _____ _____    ______ ____
ROOT
ATOM      1  C   UNL     1       1.147   1.655   0.000  0.00  0.00    +0.268 C 
ATOM      2  O   UNL     1       1.130   2.869   0.007  0.00  0.00    -0.271 OA
ATOM      3  N   UNL     1      -0.011   0.966   0.007  0.00  0.00    -0.204 N 
ATOM      4  H   UNL     1       0.002  -0.004   0.002  0.00  0.00    +0.177 HD
ENDROOT
BRANCH   1   6
ATOM      5  C   UNL     1       2.832   0.569  -1.459  0.00  0.00    +0.056 C 
ATOM      6  C   UNL     1       2.462   0.920  -0.017  0.00  0.00    +0.165 C 
BRANCH   6   7
ATOM      7  C   UNL     1       3.535   1.795   0.578  0.00  0.00    -0.007 A 
ATOM      8  C   UNL     1       4.267   2.640  -0.234  0.00  0.00    +0.007 A 
ATOM      9  C   UNL     1       5.248   3.446   0.312  0.00  0.00    +0.000 A 
ATOM     10  C   UNL     1       5.503   3.401   1.670  0.00  0.00    +0.000 A 
ATOM     11  C   UNL     1       4.774   2.552   2.482  0.00  0.00    +0.000 A 
ATOM     12  C   UNL     1       3.790   1.749   1.936  0.00  0.00    +0.007 A 
ENDBRANCH   6   7
BRANCH   6  13
ATOM     13  O   UNL     1       2.346  -0.280   0.751  0.00  0.00    -0.375 OA
ATOM     14  H   UNL     1       2.113  -0.133   1.678  0.00  0.00    +0.211 HD
ENDBRANCH   6  13
ENDBRANCH   1   6
BRANCH   3  15
ATOM     15  N   UNL     1      -1.234   1.650   0.017  0.00  0.00    -0.187 NA
ATOM     16  C   UNL     1      -2.350   0.985   0.018  0.00  0.00    +0.142 C 
BRANCH  16  17
ATOM     17  C   UNL     1      -3.633   1.702   0.029  0.00  0.00    +0.044 A 
ATOM     18  C   UNL     1      -4.898   0.970   0.025  0.00  0.00    -0.006 A 
ATOM     19  C   UNL     1      -4.933  -0.430   0.024  0.00  0.00    +0.009 A 
ATOM     20  C   UNL     1      -6.134  -1.074   0.026  0.00  0.00    +0.001 A 
ATOM     21  C   UNL     1      -7.329  -0.359   0.036  0.00  0.00    +0.001 A 
ATOM     22  C   UNL     1      -7.332   1.002   0.043  0.00  0.00    +0.008 A 
ATOM     23  C   UNL     1      -6.112   1.700   0.040  0.00  0.00    -0.017 A 
ATOM     24  C   UNL     1      -6.075   3.106   0.048  0.00  0.00    +0.012 A 
ATOM     25  C   UNL     1      -4.890   3.771   0.046  0.00  0.00    +0.046 A 
ATOM     26  C   UNL     1      -3.670   3.096   0.036  0.00  0.00    +0.126 A 
BRANCH  26  27
ATOM     27  O   UNL     1      -2.509   3.801   0.034  0.00  0.00    -0.506 OA
ATOM     28  H   UNL     1      -2.178   4.011  -0.850  0.00  0.00    +0.292 HD
ENDBRANCH  26  27
ENDBRANCH  16  17
ENDBRANCH   3  15
TORSDOF 6
