REMARK  Name = ZINC02350058
REMARK  13 active torsions:
REMARK  status: ('A' for Active; 'I' for Inactive)
REMARK    1  A    between atoms: C_1  and  C_2
REMARK    2  A    between atoms: C_2  and  N_3
REMARK    3  A    between atoms: C_4  and  C_23
REMARK    4  A    between atoms: C_7  and  S_8
REMARK    5  A    between atoms: S_8  and  C_9
REMARK    6  A    between atoms: C_9  and  C_10
REMARK    7  A    between atoms: N_12  and  N_13
REMARK    8  A    between atoms: C_14  and  C_15
REMARK    9  A    between atoms: C_20  and  O_21
REMARK   10  A    between atoms: C_26  and  C_29
REMARK   11  A    between atoms: C_29  and  C_30
REMARK   12  A    between atoms: C_29  and  C_31
REMARK   13  A    between atoms: C_29  and  C_32
REMARK                            x       y       z     vdW  Elec       q    Type
REMARK                         _______ _______ _______ _____ _____    ______ ____
ROOT
ATOM      1  N   UNL     1       0.714  -0.476   1.192  0.00  0.00    -0.302 N 
ATOM      2  C   UNL     1       2.039  -0.834   1.281  0.00  0.00    +0.165 A 
ATOM      3  N   UNL     1       2.252  -1.225   2.516  0.00  0.00    -0.128 NA
ATOM      4  N   UNL     1       1.165  -1.139   3.196  0.00  0.00    -0.122 NA
ATOM      5  C   UNL     1       0.193  -0.681   2.438  0.00  0.00    +0.192 A 
ENDROOT
BRANCH   2   6
ATOM      6  C   UNL     1       3.037  -0.786   0.191  0.00  0.00    +0.019 A 
ATOM      7  C   UNL     1       2.810   0.010  -0.933  0.00  0.00    +0.012 A 
ATOM      8  C   UNL     1       3.745   0.050  -1.947  0.00  0.00    +0.005 A 
ATOM      9  C   UNL     1       4.905  -0.697  -1.851  0.00  0.00    -0.042 A 
ATOM     10  C   UNL     1       5.137  -1.488  -0.740  0.00  0.00    +0.005 A 
ATOM     11  C   UNL     1       4.213  -1.532   0.283  0.00  0.00    +0.012 A 
BRANCH   9  12
ATOM     12  C   UNL     1       5.922  -0.649  -2.963  0.00  0.00    -0.013 C 
ATOM     13  C   UNL     1       6.418   0.788  -3.139  0.00  0.00    +0.015 C 
ATOM     14  C   UNL     1       7.103  -1.557  -2.614  0.00  0.00    +0.015 C 
ATOM     15  C   UNL     1       5.277  -1.129  -4.265  0.00  0.00    +0.015 C 
ENDBRANCH   9  12
ENDBRANCH   2   6
BRANCH   1  17
ATOM     16  C   UNL     1       0.007   1.555   0.028  0.00  0.00    +0.027 C 
ATOM     17  C   UNL     1       0.009   0.025   0.010  0.00  0.00    +0.122 C 
ENDBRANCH   1  17
BRANCH   5  18
ATOM     18  S   UNL     1      -1.472  -0.391   2.936  0.00  0.00    -0.077 S 
BRANCH  18  19
ATOM     19  C   UNL     1      -1.495  -0.860   4.688  0.00  0.00    +0.174 C 
BRANCH  19  20
ATOM     20  C   UNL     1      -2.881  -0.657   5.244  0.00  0.00    +0.242 C 
ATOM     21  O   UNL     1      -3.766  -0.236   4.529  0.00  0.00    -0.273 OA
ATOM     22  N   UNL     1      -3.136  -0.942   6.536  0.00  0.00    -0.206 N 
ATOM     23  H   UNL     1      -2.429  -1.278   7.108  0.00  0.00    +0.177 HD
BRANCH  22  24
ATOM     24  N   UNL     1      -4.425  -0.753   7.053  0.00  0.00    -0.188 NA
ATOM     25  C   UNL     1      -4.671  -1.027   8.298  0.00  0.00    +0.142 C 
BRANCH  25  26
ATOM     26  C   UNL     1      -6.026  -0.829   8.842  0.00  0.00    +0.037 A 
ATOM     27  C   UNL     1      -6.294  -1.117  10.182  0.00  0.00    +0.028 A 
ATOM     28  C   UNL     1      -7.565  -0.928  10.685  0.00  0.00    +0.019 A 
ATOM     29  C   UNL     1      -8.577  -0.454   9.867  0.00  0.00    +0.019 A 
ATOM     30  C   UNL     1      -8.323  -0.165   8.539  0.00  0.00    +0.047 A 
ATOM     31  C   UNL     1      -7.052  -0.343   8.019  0.00  0.00    +0.126 A 
ATOM     32 BR   UNL     1      -7.927  -1.319  12.500  0.00  0.00    -0.050 Br
BRANCH  31  33
ATOM     33  O   UNL     1      -6.801  -0.054   6.716  0.00  0.00    -0.506 OA
ATOM     34  H   UNL     1      -6.940  -0.798   6.114  0.00  0.00    +0.292 HD
ENDBRANCH  31  33
ENDBRANCH  25  26
ENDBRANCH  22  24
ENDBRANCH  19  20
ENDBRANCH  18  19
ENDBRANCH   5  18
TORSDOF 9
