REMARK  Name = ZINC14478152
REMARK  6 active torsions:
REMARK  status: ('A' for Active; 'I' for Inactive)
REMARK    1  A    between atoms: C_1  and  C_2
REMARK    2  A    between atoms: C_2  and  C_4
REMARK    3  A    between atoms: C_2  and  N_10
REMARK    4  A    between atoms: C_11  and  C_13
REMARK    5  A    between atoms: C_20  and  C_29
REMARK    6  A    between atoms: C_34  and  N_35
REMARK                            x       y       z     vdW  Elec       q    Type
REMARK                         _______ _______ _______ _____ _____    ______ ____
ROOT
ATOM      1  C   UNL     1      -1.863   3.378  -2.267  0.00  0.00    +0.058 A 
ATOM      2  C   UNL     1      -2.393   4.667  -2.286  0.00  0.00    +0.015 A 
ATOM      3  C   UNL     1      -2.319   5.460  -1.163  0.00  0.00    +0.001 A 
ATOM      4  C   UNL     1      -1.711   4.978  -0.016  0.00  0.00    +0.006 A 
ATOM      5  C   UNL     1      -1.173   3.709   0.018  0.00  0.00    -0.019 A 
ATOM      6  C   UNL     1      -1.246   2.876  -1.102  0.00  0.00    +0.044 A 
ATOM      7  N   UNL     1      -0.754   1.583  -1.144  0.00  0.00    -0.336 N 
ATOM      8  C   UNL     1      -0.022   1.111   0.043  0.00  0.00    +0.107 C 
ATOM      9  C   UNL     1      -0.746   1.652   1.258  0.00  0.00    +0.029 C 
ATOM     10  C   UNL     1      -0.484   3.190   1.220  0.00  0.00    +0.049 C 
ATOM     11  C   UNL     1      -0.837   3.622   2.595  0.00  0.00    -0.023 C 
ATOM     12  C   UNL     1      -0.626   2.606   3.424  0.00  0.00    -0.030 C 
ATOM     13  C   UNL     1      -0.143   1.384   2.639  0.00  0.00    +0.033 C 
ATOM     14  H   UNL     1      -1.476   0.929  -1.406  0.00  0.00    +0.147 HD
ENDROOT
BRANCH   8  15
ATOM     15  C   UNL     1       1.393   1.631   0.014  0.00  0.00    +0.003 A 
ATOM     16  C   UNL     1       1.702   2.751  -0.734  0.00  0.00    +0.008 A 
ATOM     17  C   UNL     1       2.998   3.231  -0.756  0.00  0.00    +0.000 A 
ATOM     18  C   UNL     1       3.987   2.583  -0.039  0.00  0.00    +0.002 A 
ATOM     19  C   UNL     1       3.679   1.460   0.704  0.00  0.00    +0.033 A 
ATOM     20  C   UNL     1       2.381   0.984   0.731  0.00  0.00    +0.131 A 
BRANCH  20  21
ATOM     21  N   UNL     1       2.051  -0.220   1.527  0.00  0.00    +0.057 N 
ATOM     22  O   UNL     1       2.895  -0.726   2.245  0.00  0.00    -0.126 OA
ATOM     23  O   UNL     1       0.935  -0.704   1.464  0.00  0.00    -0.126 OA
ENDBRANCH  20  21
ENDBRANCH   8  15
BRANCH   1  25
ATOM     24  N   UNL     1      -2.535   3.008  -4.588  0.00  0.00    -0.305 N 
ATOM     25  C   UNL     1      -1.947   2.533  -3.472  0.00  0.00    +0.246 C 
ATOM     26  O   UNL     1      -1.485   1.408  -3.460  0.00  0.00    -0.270 OA
ATOM     27  H   UNL     1      -2.903   3.905  -4.598  0.00  0.00    +0.150 HD
BRANCH  24  29
ATOM     28  C   UNL     1      -1.324   2.298  -6.590  0.00  0.00    +0.033 C 
ATOM     29  C   UNL     1      -2.619   2.169  -5.786  0.00  0.00    +0.100 C 
BRANCH  29  30
ATOM     30  C   UNL     1      -3.783   2.616  -6.632  0.00  0.00    -0.027 A 
ATOM     31  C   UNL     1      -4.054   3.963  -6.778  0.00  0.00    +0.005 A 
ATOM     32  C   UNL     1      -5.119   4.374  -7.558  0.00  0.00    +0.000 A 
ATOM     33  C   UNL     1      -5.918   3.436  -8.185  0.00  0.00    +0.000 A 
ATOM     34  C   UNL     1      -5.650   2.088  -8.035  0.00  0.00    +0.000 A 
ATOM     35  C   UNL     1      -4.582   1.678  -7.259  0.00  0.00    +0.005 A 
ENDBRANCH  29  30
ENDBRANCH  24  29
ENDBRANCH   1  25
TORSDOF 5
