REMARK  Name = ZINC38759461
REMARK  9 active torsions:
REMARK  status: ('A' for Active; 'I' for Inactive)
REMARK    1  A    between atoms: C_1  and  O_2
REMARK    2  A    between atoms: O_2  and  C_3
REMARK    3  A    between atoms: C_7  and  C_12
REMARK    4  A    between atoms: C_12  and  C_13
REMARK    5  A    between atoms: C_13  and  N_14
REMARK    6  A    between atoms: C_15  and  C_17
REMARK    7  A    between atoms: C_17  and  S_18
REMARK    8  A    between atoms: S_18  and  C_19
REMARK    9  A    between atoms: N_24  and  C_25
REMARK                            x       y       z     vdW  Elec       q    Type
REMARK                         _______ _______ _______ _____ _____    ______ ____
ROOT
ATOM      1  N   UNL     1      -8.149  -1.998  -1.377  0.00  0.00    -0.314 N 
ATOM      2  C   UNL     1      -8.794  -1.752  -2.535  0.00  0.00    +0.223 C 
ATOM      3  O   UNL     1      -8.191  -1.791  -3.586  0.00  0.00    -0.275 OA
ATOM      4  H   UNL     1      -8.632  -1.967  -0.536  0.00  0.00    +0.149 HD
ENDROOT
BRANCH   1   5
ATOM      5  C   UNL     1      -6.718  -2.312  -1.389  0.00  0.00    +0.109 C 
BRANCH   5   6
ATOM      6  C   UNL     1      -6.236  -2.546   0.044  0.00  0.00    +0.056 C 
BRANCH   6  11
ATOM      7  C   UNL     1      -1.201  -0.638   0.010  0.00  0.00    +0.122 A 
ATOM      8  C   UNL     1      -2.375   0.111   0.019  0.00  0.00    +0.046 A 
ATOM      9  C   UNL     1      -3.592  -0.510   0.027  0.00  0.00    +0.014 A 
ATOM     10  C   UNL     1      -3.660  -1.905   0.026  0.00  0.00    +0.003 A 
ATOM     11  C   UNL     1      -4.764  -2.869   0.033  0.00  0.00    -0.021 A 
ATOM     12  C   UNL     1      -4.216  -4.094   0.027  0.00  0.00    +0.087 A 
ATOM     13  N   UNL     1      -2.850  -3.993   0.017  0.00  0.00    -0.360 N 
ATOM     14  C   UNL     1      -2.478  -2.667   0.016  0.00  0.00    +0.050 A 
ATOM     15  C   UNL     1      -1.248  -2.019   0.003  0.00  0.00    +0.071 A 
ATOM     16  H   UNL     1      -2.236  -4.744   0.013  0.00  0.00    +0.165 HD
BRANCH   7  18
ATOM     17  C   UNL     1      -0.017   1.425   0.010  0.00  0.00    +0.277 C 
ATOM     18  O   UNL     1       0.002  -0.004   0.002  0.00  0.00    -0.495 OA
ENDBRANCH   7  18
ENDBRANCH   6  11
ENDBRANCH   5   6
ENDBRANCH   1   5
BRANCH   2  19
ATOM     19  C   UNL     1     -10.266  -1.429  -2.523  0.00  0.00    +0.167 C 
BRANCH  19  20
ATOM     20  S   UNL     1     -10.838  -1.151  -4.222  0.00  0.00    -0.114 S 
BRANCH  20  21
ATOM     21  C   UNL     1     -12.604  -0.779  -4.035  0.00  0.00    +0.203 C 
ATOM     22  N   UNL     1     -13.292  -1.897  -3.344  0.00  0.00    -0.320 NA
ATOM     23  N   UNL     1     -13.342  -1.430  -1.947  0.00  0.00    +0.411 N 
ATOM     24  N   UNL     1     -13.550   0.017  -2.094  0.00  0.00    -0.265 NA
ATOM     25  N   UNL     1     -12.787   0.400  -3.173  0.00  0.00    -0.254 N 
ATOM     26  H   UNL     1     -14.222  -2.033  -3.713  0.00  0.00    +0.106 HD
ATOM     27  H   UNL     1     -14.115  -1.854  -1.456  0.00  0.00    -0.031 HD
ATOM     28  H   UNL     1     -14.524   0.228  -2.247  0.00  0.00    +0.125 HD
ATOM     29  H   UNL     1     -12.470  -1.620  -1.476  0.00  0.00    -0.031 HD
BRANCH  25  30
ATOM     30  C   UNL     1     -12.275   1.679  -3.408  0.00  0.00    +0.045 A 
ATOM     31  C   UNL     1     -11.520   1.928  -4.547  0.00  0.00    +0.025 A 
ATOM     32  C   UNL     1     -11.016   3.193  -4.777  0.00  0.00    +0.017 A 
ATOM     33  C   UNL     1     -11.262   4.212  -3.874  0.00  0.00    +0.018 A 
ATOM     34  C   UNL     1     -12.014   3.967  -2.739  0.00  0.00    +0.017 A 
ATOM     35  C   UNL     1     -12.526   2.705  -2.506  0.00  0.00    +0.025 A 
ATOM     36 BR   UNL     1     -10.569   5.942  -4.192  0.00  0.00    -0.050 Br
ENDBRANCH  25  30
ENDBRANCH  20  21
ENDBRANCH  19  20
ENDBRANCH   2  19
TORSDOF 8
