REMARK  Name = ZINC39696240
REMARK  7 active torsions:
REMARK  status: ('A' for Active; 'I' for Inactive)
REMARK    1  A    between atoms: C_1  and  C_2
REMARK    2  A    between atoms: C_2  and  C_3
REMARK    3  A    between atoms: C_6  and  C_9
REMARK    4  A    between atoms: C_9  and  C_11
REMARK    5  A    between atoms: C_9  and  N_12
REMARK    6  A    between atoms: C_13  and  C_15
REMARK    7  A    between atoms: C_26  and  C_28
REMARK                            x       y       z     vdW  Elec       q    Type
REMARK                         _______ _______ _______ _____ _____    ______ ____
ROOT
ATOM      1  C   UNL     1      -6.533  -4.578  -1.140  0.00  0.00    +0.100 C 
ATOM      2  C   UNL     1      -5.482  -5.512  -1.779  0.00  0.00    +0.121 C 
ATOM      3  N   UNL     1      -5.591  -6.777  -1.015  0.00  0.00    -0.300 N 
ATOM      4  C   UNL     1      -7.046  -6.946  -0.787  0.00  0.00    +0.115 C 
ATOM      5  C   UNL     1      -7.559  -5.522  -0.492  0.00  0.00    -0.004 C 
ATOM      6  C   UNL     1      -8.935  -5.317  -1.119  0.00  0.00    -0.010 C 
ATOM      7  C   UNL     1      -9.951  -6.224  -0.419  0.00  0.00    -0.082 C 
ATOM      8  N   UNL     1      -9.991  -5.905   1.013  0.00  0.00    +0.379 N 
ATOM      9  C   UNL     1      -8.689  -6.194   1.627  0.00  0.00    -0.082 C 
ATOM     10  C   UNL     1      -7.620  -5.285   1.014  0.00  0.00    -0.010 C 
ATOM     11  C   UNL     1      -4.593  -7.591  -0.617  0.00  0.00    +0.219 C 
ATOM     12  O   UNL     1      -3.438  -7.276  -0.815  0.00  0.00    -0.275 OA
ATOM     13  H   UNL     1     -10.207  -4.926   1.131  0.00  0.00    -0.086 HD
ATOM     14  H   UNL     1     -10.703  -6.461   1.460  0.00  0.00    -0.086 HD
ENDROOT
BRANCH  11  15
ATOM     15  C   UNL     1      -4.911  -8.892   0.073  0.00  0.00    +0.079 C 
ATOM     16  C   UNL     1      -3.726  -9.313   0.952  0.00  0.00    +0.017 C 
ATOM     17  C   UNL     1      -4.143 -10.535   1.773  0.00  0.00    +0.027 C 
ATOM     18  C   UNL     1      -4.763 -11.570   0.882  0.00  0.00    -0.031 C 
ATOM     19  C   UNL     1      -5.205 -11.330  -0.311  0.00  0.00    -0.030 C 
ATOM     20  C   UNL     1      -5.155  -9.982  -0.972  0.00  0.00    +0.039 C 
ENDBRANCH  11  15
BRANCH   1  22
ATOM     21  N   UNL     1      -6.396  -2.483   0.169  0.00  0.00    -0.308 N 
ATOM     22  C   UNL     1      -5.890  -3.704  -0.093  0.00  0.00    +0.219 C 
ATOM     23  O   UNL     1      -4.918  -4.101   0.514  0.00  0.00    -0.275 OA
ATOM     24  H   UNL     1      -7.174  -2.166  -0.316  0.00  0.00    +0.149 HD
BRANCH  21  25
ATOM     25  C   UNL     1      -5.772  -1.634   1.187  0.00  0.00    +0.100 C 
ATOM     26  C   UNL     1      -6.326  -1.999   2.565  0.00  0.00    +0.033 C 
BRANCH  25  30
ATOM     27  C   UNL     1      -6.630   2.464   0.342  0.00  0.00    -0.048 A 
ATOM     28  C   UNL     1      -5.374   2.099   0.790  0.00  0.00    +0.004 A 
ATOM     29  C   UNL     1      -5.096   0.773   1.064  0.00  0.00    +0.006 A 
ATOM     30  C   UNL     1      -6.075  -0.188   0.890  0.00  0.00    -0.027 A 
ATOM     31  C   UNL     1      -7.331   0.177   0.442  0.00  0.00    +0.006 A 
ATOM     32  C   UNL     1      -7.609   1.504   0.173  0.00  0.00    +0.004 A 
BRANCH  27  34
ATOM     33  C   UNL     1      -7.459   4.592   1.308  0.00  0.00    +0.009 C 
ATOM     34  C   UNL     1      -6.932   3.910   0.044  0.00  0.00    +0.032 C 
ENDBRANCH  27  34
ENDBRANCH  25  30
ENDBRANCH  21  25
ENDBRANCH   1  22
TORSDOF 5
