REMARK  Name = ZINC20754715
REMARK  10 active torsions:
REMARK  status: ('A' for Active; 'I' for Inactive)
REMARK    1  A    between atoms: C_1  and  C_2
REMARK    2  A    between atoms: C_2  and  C_26
REMARK    3  A    between atoms: N_3  and  N_4
REMARK    4  A    between atoms: N_4  and  C_5
REMARK    5  A    between atoms: C_8  and  S_14
REMARK    6  A    between atoms: C_10  and  N_11
REMARK    7  A    between atoms: S_14  and  N_17
REMARK    8  A    between atoms: N_17  and  C_18
REMARK    9  A    between atoms: C_23  and  O_24
REMARK   10  A    between atoms: O_24  and  C_25
REMARK                            x       y       z     vdW  Elec       q    Type
REMARK                         _______ _______ _______ _____ _____    ______ ____
ROOT
ATOM      1  C   UNL     1       1.353   1.289   0.423  0.00  0.00    +0.079 A 
ATOM      2  C   UNL     1       1.192   2.668   0.362  0.00  0.00    +0.029 A 
ATOM      3  C   UNL     1       2.296   3.486   0.231  0.00  0.00    +0.031 A 
ATOM      4  C   UNL     1       3.563   2.934   0.160  0.00  0.00    +0.111 A 
ATOM      5  C   UNL     1       3.727   1.562   0.219  0.00  0.00    +0.063 A 
ATOM      6  C   UNL     1       2.627   0.738   0.356  0.00  0.00    +0.150 A 
ENDROOT
BRANCH   6   7
ATOM      7  N   UNL     1       2.805  -0.730   0.427  0.00  0.00    +0.058 N 
ATOM      8  O   UNL     1       3.925  -1.206   0.473  0.00  0.00    -0.126 OA
ATOM      9  O   UNL     1       1.831  -1.462   0.439  0.00  0.00    -0.126 OA
ENDBRANCH   6   7
BRANCH   4  10
ATOM     10  S   UNL     1       4.970   3.981  -0.008  0.00  0.00    +0.073 S 
ATOM     11  O   UNL     1       5.993   3.194  -0.601  0.00  0.00    -0.150 OA
ATOM     12  O   UNL     1       4.507   5.193  -0.588  0.00  0.00    -0.150 OA
BRANCH  10  13
ATOM     13  N   UNL     1       5.486   4.356   1.521  0.00  0.00    -0.213 N 
ATOM     14  H   UNL     1       5.514   5.405   1.850  0.00  0.00    +0.174 HD
BRANCH  13  15
ATOM     15  C   UNL     1       5.886   3.337   2.393  0.00  0.00    +0.090 A 
ATOM     16  C   UNL     1       6.548   2.222   1.903  0.00  0.00    +0.028 A 
ATOM     17  C   UNL     1       6.947   1.220   2.768  0.00  0.00    +0.002 A 
ATOM     18  C   UNL     1       6.677   1.321   4.120  0.00  0.00    +0.004 A 
ATOM     19  C   UNL     1       6.012   2.428   4.615  0.00  0.00    +0.047 A 
ATOM     20  C   UNL     1       5.614   3.439   3.756  0.00  0.00    +0.142 A 
BRANCH  20  21
ATOM     21  O   UNL     1       4.959   4.527   4.242  0.00  0.00    -0.493 OA
ATOM     22  C   UNL     1       4.715   4.563   5.649  0.00  0.00    +0.277 C 
ENDBRANCH  20  21
ENDBRANCH  13  15
ENDBRANCH  10  13
ENDBRANCH   4  10
BRANCH   1  23
ATOM     23  N   UNL     1       0.239   0.459   0.555  0.00  0.00    -0.235 N 
ATOM     24  H   UNL     1       0.359  -0.633   0.515  0.00  0.00    +0.174 HD
BRANCH  23  27
ATOM     25  C   UNL     1      -1.906  -1.250   0.796  0.00  0.00    +0.068 C 
ATOM     26  C   UNL     1      -2.070   0.247   0.857  0.00  0.00    +0.063 C 
ATOM     27  N   UNL     1      -1.033   1.018   0.739  0.00  0.00    -0.187 NA
BRANCH  26  28
ATOM     28  C   UNL     1      -3.408   0.835   1.050  0.00  0.00    +0.001 A 
ATOM     29  C   UNL     1      -4.526   0.006   1.177  0.00  0.00    +0.013 A 
ATOM     30  C   UNL     1      -5.776   0.559   1.358  0.00  0.00    +0.050 A 
ATOM     31  C   UNL     1      -5.930   1.936   1.414  0.00  0.00    +0.166 A 
ATOM     32  C   UNL     1      -4.819   2.769   1.288  0.00  0.00    +0.167 A 
ATOM     33  C   UNL     1      -3.561   2.222   1.113  0.00  0.00    +0.059 A 
ATOM     34  O   UNL     1      -5.234   4.067   1.377  0.00  0.00    -0.453 OA
ATOM     35  C   UNL     1      -6.546   4.011   1.967  0.00  0.00    +0.466 C 
ATOM     36  O   UNL     1      -7.039   2.714   1.582  0.00  0.00    -0.453 OA
ENDBRANCH  26  28
ENDBRANCH  23  27
ENDBRANCH   1  23
TORSDOF 8
