REMARK  Name = ZINC12524241
REMARK  7 active torsions:
REMARK  status: ('A' for Active; 'I' for Inactive)
REMARK    1  A    between atoms: C_1  and  C_2
REMARK    2  A    between atoms: C_2  and  N_3
REMARK    3  A    between atoms: N_3  and  C_4
REMARK    4  A    between atoms: N_3  and  C_6
REMARK    5  A    between atoms: C_4  and  C_5
REMARK    6  A    between atoms: C_11  and  C_24
REMARK    7  A    between atoms: N_13  and  C_14
REMARK                            x       y       z     vdW  Elec       q    Type
REMARK                         _______ _______ _______ _____ _____    ______ ____
ROOT
ATOM      1  C   UNL     1       2.601  -0.777   0.541  0.00  0.00    +0.033 A 
ATOM      2  C   UNL     1       3.385   0.249   0.008  0.00  0.00    +0.024 A 
ATOM      3  C   UNL     1       4.690   0.382   0.375  0.00  0.00    +0.013 A 
ATOM      4  C   UNL     1       5.257  -0.521   1.287  0.00  0.00    +0.018 A 
ATOM      5  C   UNL     1       6.623  -0.414   1.649  0.00  0.00    +0.030 A 
ATOM      6  C   UNL     1       7.188  -1.441   2.392  0.00  0.00    +0.097 A 
ATOM      7  C   UNL     1       6.325  -2.591   2.725  0.00  0.00    +0.212 A 
ATOM      8  N   UNL     1       6.836  -3.780   2.963  0.00  0.00    -0.325 N 
ATOM      9  O   UNL     1       4.985  -2.378   2.778  0.00  0.00    -0.438 OA
ATOM     10  C   UNL     1       4.461  -1.539   1.851  0.00  0.00    +0.139 A 
ATOM     11  C   UNL     1       3.138  -1.663   1.467  0.00  0.00    +0.070 A 
ATOM     12  H   UNL     1       6.269  -4.494   3.294  0.00  0.00    +0.169 HD
ENDROOT
BRANCH   8  13
ATOM     13  C   UNL     1       8.167  -4.009   2.744  0.00  0.00    +0.042 A 
ATOM     14  C   UNL     1       8.945  -4.621   3.729  0.00  0.00    +0.027 A 
ATOM     15  C   UNL     1      10.286  -4.850   3.501  0.00  0.00    +0.017 A 
ATOM     16  C   UNL     1      10.861  -4.474   2.299  0.00  0.00    +0.018 A 
ATOM     17  C   UNL     1      10.095  -3.866   1.318  0.00  0.00    +0.017 A 
ATOM     18  C   UNL     1       8.752  -3.637   1.531  0.00  0.00    +0.027 A 
ATOM     19 BR   UNL     1      12.700  -4.791   1.996  0.00  0.00    -0.050 Br
ENDBRANCH   8  13
BRANCH   6  20
ATOM     20  C   UNL     1       8.592  -1.386   2.830  0.00  0.00    +0.247 C 
ATOM     21  O   UNL     1       8.926  -1.923   3.870  0.00  0.00    -0.270 OA
ATOM     22  N   UNL     1       9.507  -0.741   2.081  0.00  0.00    -0.325 N 
ATOM     23  H   UNL     1       9.252  -0.359   1.226  0.00  0.00    +0.145 HD
ATOM     24  H   UNL     1      10.421  -0.657   2.396  0.00  0.00    +0.145 HD
ENDBRANCH   6  20
BRANCH   1  25
ATOM     25  N   UNL     1       1.275  -0.908   0.147  0.00  0.00    -0.330 N 
BRANCH  25  27
ATOM     26  C   UNL     1       0.101   1.224  -0.096  0.00  0.00    +0.024 C 
ATOM     27  C   UNL     1       0.705   0.024  -0.828  0.00  0.00    +0.102 C 
ENDBRANCH  25  27
BRANCH  25  28
ATOM     28  C   UNL     1       0.447  -1.979   0.709  0.00  0.00    +0.102 C 
ATOM     29  C   UNL     1       0.564  -3.227  -0.169  0.00  0.00    +0.024 C 
ENDBRANCH  25  28
ENDBRANCH   1  25
TORSDOF 5
