REMARK  Name = ZINC33071496
REMARK  4 active torsions:
REMARK  status: ('A' for Active; 'I' for Inactive)
REMARK    1  A    between atoms: C_15  and  C_17
REMARK    2  A    between atoms: N_19  and  C_20
REMARK    3  A    between atoms: C_20  and  C_21
REMARK    4  A    between atoms: C_21  and  C_22
REMARK                            x       y       z     vdW  Elec       q    Type
REMARK                         _______ _______ _______ _____ _____    ______ ____
ROOT
ATOM      1  C   UNL     1      -0.017   1.383   0.010  0.00  0.00    +0.022 A 
ATOM      2  C   UNL     1       1.164   2.098   0.002  0.00  0.00    +0.029 A 
ATOM      3  C   UNL     1       2.377   1.428  -0.013  0.00  0.00    +0.068 A 
ATOM      4  C   UNL     1       2.402   0.023  -0.021  0.00  0.00    +0.092 A 
ATOM      5  C   UNL     1       1.199  -0.687  -0.013  0.00  0.00    +0.050 A 
ATOM      6  C   UNL     1       0.002  -0.004   0.002  0.00  0.00    +0.043 A 
ATOM      7 CL   UNL     1      -1.493  -0.886   0.012  0.00  0.00    -0.083 Cl
ATOM      8  N   UNL     1       3.708  -0.353  -0.036  0.00  0.00    -0.214 NA
ATOM      9  C   UNL     1       4.472   0.711  -0.038  0.00  0.00    +0.197 A 
ATOM     10  N   UNL     1       3.701   1.837  -0.024  0.00  0.00    -0.326 N 
ATOM     11  N   UNL     1       5.851   0.695  -0.052  0.00  0.00    -0.300 N 
ATOM     12  C   UNL     1       6.614   1.951  -0.046  0.00  0.00    +0.108 C 
ATOM     13  C   UNL     1       7.594   1.938  -1.223  0.00  0.00    +0.020 C 
ATOM     14  C   UNL     1       8.459   0.677  -1.148  0.00  0.00    +0.016 C 
ATOM     15  C   UNL     1       7.566  -0.562  -1.248  0.00  0.00    +0.092 C 
ATOM     16  C   UNL     1       6.586  -0.577  -0.066  0.00  0.00    +0.120 C 
ATOM     17  H   UNL     1       4.020   2.753  -0.023  0.00  0.00    +0.169 HD
ENDROOT
BRANCH  15  18
ATOM     18  C   UNL     1       8.421  -1.802  -1.207  0.00  0.00    +0.218 C 
ATOM     19  O   UNL     1       8.261  -2.620  -0.325  0.00  0.00    -0.275 OA
ATOM     20  N   UNL     1       9.364  -2.003  -2.149  0.00  0.00    -0.315 N 
ATOM     21  H   UNL     1       9.492  -1.349  -2.853  0.00  0.00    +0.149 HD
BRANCH  20  22
ATOM     22  C   UNL     1      10.195  -3.209  -2.108  0.00  0.00    +0.108 C 
BRANCH  22  23
ATOM     23  C   UNL     1      11.177  -3.191  -3.281  0.00  0.00    +0.049 C 
BRANCH  23  24
ATOM     24  C   UNL     1      12.032  -4.431  -3.239  0.00  0.00    -0.072 C 
ATOM     25  C   UNL     1      11.665  -5.446  -3.955  0.00  0.00    -0.028 C 
ATOM     26  C   UNL     1      12.406  -6.750  -4.007  0.00  0.00    +0.027 C 
ATOM     27  C   UNL     1      13.827  -6.571  -3.467  0.00  0.00    +0.004 C 
ATOM     28  C   UNL     1      13.745  -5.841  -2.120  0.00  0.00    +0.005 C 
ATOM     29  C   UNL     1      13.259  -4.411  -2.376  0.00  0.00    +0.030 C 
ENDBRANCH  23  24
ENDBRANCH  22  23
ENDBRANCH  20  22
ENDBRANCH  15  18
TORSDOF 4
