REMARK  Name = ZINC40986768
REMARK  14 active torsions:
REMARK  status: ('A' for Active; 'I' for Inactive)
REMARK    1  A    between atoms: C_1  and  C_2
REMARK    2  A    between atoms: C_2  and  C_3
REMARK    3  A    between atoms: C_3  and  C_4
REMARK    4  A    between atoms: C_4  and  S_5
REMARK    5  A    between atoms: S_5  and  C_6
REMARK    6  A    between atoms: C_11  and  C_20
REMARK    7  A    between atoms: C_13  and  C_17
REMARK    8  A    between atoms: C_14  and  C_16
REMARK    9  A    between atoms: C_23  and  O_28
REMARK   10  A    between atoms: C_24  and  O_26
REMARK   11  A    between atoms: O_26  and  C_27
REMARK   12  A    between atoms: O_28  and  C_29
REMARK   13  A    between atoms: C_29  and  C_30
REMARK   14  A    between atoms: C_35  and  C_36
REMARK                            x       y       z     vdW  Elec       q    Type
REMARK                         _______ _______ _______ _____ _____    ______ ____
ROOT
ATOM      1  C   UNL     1      -2.911  -4.477   0.462  0.00  0.00    +0.210 A 
ATOM      2  N   UNL     1      -1.744  -5.134   0.401  0.00  0.00    -0.187 NA
ATOM      3  C   UNL     1      -1.968  -6.404   0.198  0.00  0.00    +0.219 A 
ATOM      4  N   UNL     1      -3.309  -6.588   0.119  0.00  0.00    -0.220 N 
ATOM      5  N   UNL     1      -3.895  -5.335   0.300  0.00  0.00    -0.141 NA
ATOM      6  C   UNL     1      -3.935  -7.887  -0.113  0.00  0.00    +0.177 C 
ATOM      7  C   UNL     1      -2.908  -8.974   0.052  0.00  0.00    +0.060 C 
ATOM      8  C   UNL     1      -1.591  -8.732   0.129  0.00  0.00    +0.018 C 
ATOM      9  N   UNL     1      -1.077  -7.460   0.073  0.00  0.00    -0.287 N 
ATOM     10  C   UNL     1      -0.644  -9.895   0.282  0.00  0.00    +0.061 C 
ATOM     11  H   UNL     1      -0.127  -7.306  -0.050  0.00  0.00    +0.155 HD
ENDROOT
BRANCH   6  12
ATOM     12  C   UNL     1      -4.495  -7.932  -1.512  0.00  0.00    -0.015 A 
ATOM     13  C   UNL     1      -3.653  -7.772  -2.596  0.00  0.00    +0.010 A 
ATOM     14  C   UNL     1      -4.161  -7.813  -3.881  0.00  0.00    +0.050 A 
ATOM     15  C   UNL     1      -5.517  -8.015  -4.084  0.00  0.00    +0.162 A 
ATOM     16  C   UNL     1      -6.364  -8.176  -2.992  0.00  0.00    +0.162 A 
ATOM     17  C   UNL     1      -5.847  -8.139  -1.707  0.00  0.00    +0.055 A 
BRANCH  16  18
ATOM     18  O   UNL     1      -7.695  -8.375  -3.186  0.00  0.00    -0.491 OA
ATOM     19  C   UNL     1      -8.504  -8.532  -2.019  0.00  0.00    +0.277 C 
ENDBRANCH  16  18
BRANCH  15  20
ATOM     20  O   UNL     1      -6.018  -8.055  -5.348  0.00  0.00    -0.484 OA
BRANCH  20  21
ATOM     21  C   UNL     1      -5.090  -7.881  -6.420  0.00  0.00    +0.265 C 
BRANCH  21  22
ATOM     22  C   UNL     1      -5.822  -7.955  -7.735  0.00  0.00    -0.007 A 
ATOM     23  C   UNL     1      -7.189  -8.158  -7.755  0.00  0.00    +0.007 A 
ATOM     24  C   UNL     1      -7.861  -8.226  -8.961  0.00  0.00    +0.000 A 
ATOM     25  C   UNL     1      -7.165  -8.090 -10.148  0.00  0.00    +0.000 A 
ATOM     26  C   UNL     1      -5.798  -7.886 -10.128  0.00  0.00    +0.004 A 
ATOM     27  C   UNL     1      -5.128  -7.814  -8.922  0.00  0.00    -0.044 A 
ATOM     28  C   UNL     1      -3.638  -7.586  -8.900  0.00  0.00    +0.044 C 
ENDBRANCH  21  22
ENDBRANCH  20  21
ENDBRANCH  15  20
ENDBRANCH   6  12
BRANCH   7  29
ATOM     29  C   UNL     1      -3.352 -10.316   0.131  0.00  0.00    +0.241 C 
ATOM     30  O   UNL     1      -3.889 -10.721   1.147  0.00  0.00    -0.271 OA
ATOM     31  N   UNL     1      -3.182 -11.145  -0.918  0.00  0.00    -0.325 N 
ATOM     32  H   UNL     1      -2.755 -10.822  -1.727  0.00  0.00    +0.145 HD
ATOM     33  H   UNL     1      -3.487 -12.064  -0.864  0.00  0.00    +0.145 HD
ENDBRANCH   7  29
BRANCH   1  34
ATOM     34  S   UNL     1      -3.098  -2.745   0.724  0.00  0.00    -0.084 S 
BRANCH  34  35
ATOM     35  C   UNL     1      -1.395  -2.137   0.868  0.00  0.00    +0.077 C 
BRANCH  35  36
ATOM     36  C   UNL     1      -1.411  -0.625   1.101  0.00  0.00    +0.011 C 
BRANCH  36  38
ATOM     37  C   UNL     1       0.009   1.400   1.456  0.00  0.00    +0.004 C 
ATOM     38  C   UNL     1       0.026  -0.112   1.223  0.00  0.00    -0.003 C 
ENDBRANCH  36  38
ENDBRANCH  35  36
ENDBRANCH  34  35
ENDBRANCH   1  34
TORSDOF 10
