REMARK  Name = ZINC08790405
REMARK  5 active torsions:
REMARK  status: ('A' for Active; 'I' for Inactive)
REMARK    1  A    between atoms: C_4  and  C_7
REMARK    2  A    between atoms: C_7  and  C_8
REMARK    3  A    between atoms: C_8  and  N_9
REMARK    4  A    between atoms: C_14  and  C_31
REMARK    5  A    between atoms: C_31  and  C_32
REMARK                            x       y       z     vdW  Elec       q    Type
REMARK                         _______ _______ _______ _____ _____    ______ ____
ROOT
ATOM      1  N   UNL     1       5.421  -1.663  -1.502  0.00  0.00    -0.241 N 
ATOM      2  C   UNL     1       5.503  -2.999  -1.510  0.00  0.00    +0.224 C 
ATOM      3  O   UNL     1       4.558  -3.759  -1.502  0.00  0.00    -0.275 OA
ATOM      4  C   UNL     1       6.957  -3.413  -1.532  0.00  0.00    +0.073 C 
ATOM      5  C   UNL     1       7.313  -4.096  -0.195  0.00  0.00    -0.053 C 
ATOM      6  C   UNL     1       8.445  -2.034  -0.172  0.00  0.00    +0.050 C 
ATOM      7  C   UNL     1       7.716  -2.057  -1.521  0.00  0.00    +0.088 C 
ATOM      8  C   UNL     1       6.601  -1.034  -1.515  0.00  0.00    +0.225 C 
ATOM      9  O   UNL     1       6.754   0.168  -1.519  0.00  0.00    -0.275 OA
ATOM     10  C   UNL     1       8.496  -0.646   0.402  0.00  0.00    -0.026 A 
ATOM     11  C   UNL     1       7.529   0.266   0.761  0.00  0.00    +0.004 A 
ATOM     12  C   UNL     1       7.895   1.499   1.272  0.00  0.00    +0.002 A 
ATOM     13  C   UNL     1       9.234   1.811   1.421  0.00  0.00    +0.022 A 
ATOM     14  C   UNL     1      10.207   0.900   1.064  0.00  0.00    +0.062 A 
ATOM     15  C   UNL     1       9.846  -0.344   0.548  0.00  0.00    +0.054 A 
ATOM     16  N   UNL     1      10.631  -1.418   0.120  0.00  0.00    -0.285 N 
ATOM     17  C   UNL     1       9.883  -2.450  -0.317  0.00  0.00    +0.211 C 
ATOM     18  O   UNL     1      10.291  -3.510  -0.745  0.00  0.00    -0.277 OA
ATOM     19 CL   UNL     1      11.884   1.303   1.256  0.00  0.00    -0.082 Cl
ATOM     20  H   UNL     1      11.601  -1.420   0.137  0.00  0.00    +0.155 HD
ATOM     21  N   UNL     1       7.709  -2.961   0.671  0.00  0.00    +0.394 N 
ATOM     22  H   UNL     1       8.305  -3.292   1.439  0.00  0.00    -0.083 HD
ATOM     23  H   UNL     1       6.876  -2.503   1.058  0.00  0.00    -0.083 HD
ENDROOT
BRANCH   1  24
ATOM     24  C   UNL     1       4.142  -0.948  -1.486  0.00  0.00    +0.121 C 
BRANCH  24  25
ATOM     25  C   UNL     1       3.711  -0.707  -0.038  0.00  0.00    +0.054 C 
BRANCH  25  29
ATOM     26  C   UNL     1      -0.017   1.378   0.010  0.00  0.00    +0.000 A 
ATOM     27  C   UNL     1       1.171   2.086   0.002  0.00  0.00    +0.000 A 
ATOM     28  C   UNL     1       2.377   1.411  -0.014  0.00  0.00    +0.004 A 
ATOM     29  C   UNL     1       2.396   0.029  -0.021  0.00  0.00    -0.046 A 
ATOM     30  C   UNL     1       1.208  -0.679  -0.014  0.00  0.00    +0.004 A 
ATOM     31  C   UNL     1       0.002  -0.004   0.002  0.00  0.00    +0.000 A 
ENDBRANCH  25  29
ENDBRANCH  24  25
ENDBRANCH   1  24
BRANCH   5  32
ATOM     32  C   UNL     1       6.100  -4.843   0.361  0.00  0.00    +0.020 C 
BRANCH  32  33
ATOM     33  C   UNL     1       6.501  -5.602   1.600  0.00  0.00    -0.049 A 
ATOM     34  C   UNL     1       6.958  -6.903   1.496  0.00  0.00    +0.003 A 
ATOM     35  C   UNL     1       7.330  -7.597   2.632  0.00  0.00    +0.000 A 
ATOM     36  C   UNL     1       7.237  -6.994   3.872  0.00  0.00    +0.000 A 
ATOM     37  C   UNL     1       6.776  -5.695   3.977  0.00  0.00    +0.000 A 
ATOM     38  C   UNL     1       6.408  -4.999   2.841  0.00  0.00    +0.003 A 
ENDBRANCH  32  33
ENDBRANCH   5  32
TORSDOF 5
