REMARK  Name = ZINC52838877
REMARK  5 active torsions:
REMARK  status: ('A' for Active; 'I' for Inactive)
REMARK    1  A    between atoms: C_1  and  C_2
REMARK    2  A    between atoms: C_2  and  C_3
REMARK    3  A    between atoms: C_5  and  C_10
REMARK    4  A    between atoms: C_6  and  N_9
REMARK    5  A    between atoms: N_7  and  N_8
REMARK                            x       y       z     vdW  Elec       q    Type
REMARK                         _______ _______ _______ _____ _____    ______ ____
ROOT
ATOM      1  C   UNL     1      -1.412  -0.526   0.013  0.00  0.00    +0.106 A 
ATOM      2  N   UNL     1      -2.161  -0.700  -1.038  0.00  0.00    -0.340 N 
ATOM      3  C   UNL     1      -3.363  -1.181  -0.655  0.00  0.00    +0.088 A 
ATOM      4  C   UNL     1      -3.348  -1.307   0.706  0.00  0.00    +0.139 A 
ATOM      5  N   UNL     1      -2.110  -0.896   1.123  0.00  0.00    -0.241 N 
ATOM      6  H   UNL     1      -1.897  -0.514  -1.953  0.00  0.00    +0.167 HD
ENDROOT
BRANCH   3   7
ATOM      7  C   UNL     1      -4.497  -1.512  -1.550  0.00  0.00    +0.006 A 
ATOM      8  C   UNL     1      -4.857  -0.636  -2.575  0.00  0.00    +0.059 A 
ATOM      9  C   UNL     1      -5.916  -0.954  -3.405  0.00  0.00    +0.164 A 
ATOM     10  C   UNL     1      -6.618  -2.138  -3.220  0.00  0.00    +0.176 A 
ATOM     11  C   UNL     1      -6.263  -3.010  -2.203  0.00  0.00    +0.064 A 
ATOM     12  C   UNL     1      -5.202  -2.702  -1.372  0.00  0.00    +0.029 A 
ATOM     13 BR   UNL     1      -7.223  -4.620  -1.956  0.00  0.00    -0.046 Br
ATOM     14  O   UNL     1      -7.662  -2.438  -4.048  0.00  0.00    -0.487 OA
ATOM     15  C   UNL     1      -8.819  -1.609  -3.922  0.00  0.00    +0.232 C 
ATOM     16  C   UNL     1      -8.669  -0.345  -4.755  0.00  0.00    +0.082 C 
ATOM     17  C   UNL     1      -7.540   0.545  -4.258  0.00  0.00    +0.232 C 
ATOM     18  O   UNL     1      -6.277  -0.106  -4.412  0.00  0.00    -0.488 OA
ENDBRANCH   3   7
BRANCH   5  19
ATOM     19  N   UNL     1      -1.659  -0.861   2.412  0.00  0.00    -0.295 N 
ATOM     20  H   UNL     1      -1.865   0.028   2.842  0.00  0.00    +0.163 HD
ATOM     21  H   UNL     1      -2.046  -1.622   2.950  0.00  0.00    +0.163 HD
ENDBRANCH   5  19
BRANCH   4  22
ATOM     22  N   UNL     1      -4.385  -1.767   1.511  0.00  0.00    -0.342 N 
ATOM     23  H   UNL     1      -5.226  -2.039   1.110  0.00  0.00    +0.144 HD
ATOM     24  H   UNL     1      -4.268  -1.817   2.472  0.00  0.00    +0.144 HD
ENDBRANCH   4  22
BRANCH   1  26
ATOM     25  C   UNL     1      -0.019   1.526   0.010  0.00  0.00    +0.012 C 
ATOM     26  C   UNL     1       0.002  -0.004   0.002  0.00  0.00    +0.071 C 
ENDBRANCH   1  26
TORSDOF 4
