REMARK  Name = ZINC28955923
REMARK  7 active torsions:
REMARK  status: ('A' for Active; 'I' for Inactive)
REMARK    1  A    between atoms: C_6  and  C_7
REMARK    2  A    between atoms: C_8  and  S_9
REMARK    3  A    between atoms: S_9  and  N_12
REMARK    4  A    between atoms: N_12  and  C_13
REMARK    5  A    between atoms: C_13  and  C_14
REMARK    6  A    between atoms: C_20  and  C_22
REMARK    7  A    between atoms: N_25  and  C_28
REMARK                            x       y       z     vdW  Elec       q    Type
REMARK                         _______ _______ _______ _____ _____    ______ ____
ROOT
ATOM      1  C   UNL     1      -2.494   7.005   2.965  0.00  0.00    +0.023 C 
ATOM      2  C   UNL     1      -2.407   6.191   4.283  0.00  0.00    +0.025 C 
ATOM      3  C   UNL     1      -2.286   7.291   5.360  0.00  0.00    +0.108 C 
ATOM      4  N   UNL     1      -1.777   8.499   4.695  0.00  0.00    -0.301 N 
ATOM      5  C   UNL     1      -1.552   8.196   3.270  0.00  0.00    +0.112 C 
ATOM      6  C   UNL     1      -1.554   9.688   5.290  0.00  0.00    +0.219 C 
ATOM      7  O   UNL     1      -1.043  10.592   4.664  0.00  0.00    -0.275 OA
ENDROOT
BRANCH   6   8
ATOM      8  C   UNL     1      -1.939   9.893   6.732  0.00  0.00    +0.078 C 
ATOM      9  C   UNL     1      -3.408  10.317   6.814  0.00  0.00    +0.031 C 
ATOM     10  C   UNL     1      -3.776  10.582   8.276  0.00  0.00    +0.106 C 
ATOM     11  N   UNL     1      -2.912  11.640   8.815  0.00  0.00    -0.330 N 
ATOM     12  C   UNL     1      -1.500  11.236   8.790  0.00  0.00    +0.106 C 
ATOM     13  C   UNL     1      -1.064  10.991   7.344  0.00  0.00    +0.031 C 
BRANCH  11  14
ATOM     14  C   UNL     1      -3.306  11.998  10.101  0.00  0.00    +0.032 A 
ATOM     15  C   UNL     1      -2.407  11.943  11.166  0.00  0.00    +0.040 A 
ATOM     16  C   UNL     1      -2.835  12.312  12.424  0.00  0.00    +0.084 A 
ATOM     17  N   UNL     1      -4.079  12.703  12.628  0.00  0.00    -0.367 N 
ATOM     18  C   UNL     1      -4.961  12.763  11.647  0.00  0.00    +0.084 A 
ATOM     19  C   UNL     1      -4.611  12.416  10.359  0.00  0.00    +0.040 A 
ATOM     20  H   UNL     1      -4.407  12.989  13.638  0.00  0.00    +0.165 HD
ENDBRANCH  11  14
ENDBRANCH   6   8
BRANCH   1  21
ATOM     21  C   UNL     1      -1.978   6.186   1.780  0.00  0.00    +0.111 C 
BRANCH  21  22
ATOM     22  N   UNL     1      -2.914   5.097   1.493  0.00  0.00    -0.190 NA
ATOM     23  H   UNL     1      -3.569   4.711   2.288  0.00  0.00    +0.148 HD
BRANCH  22  24
ATOM     24  S   UNL     1      -2.820   4.280   0.056  0.00  0.00    +0.052 S 
ATOM     25  O   UNL     1      -2.756   5.264  -0.967  0.00  0.00    -0.154 OA
ATOM     26  O   UNL     1      -3.829   3.280   0.089  0.00  0.00    -0.154 OA
BRANCH  24  28
ATOM     27  C   UNL     1      -1.244   2.109   0.033  0.00  0.00    +0.028 C 
ATOM     28  C   UNL     1      -1.274   3.434   0.038  0.00  0.00    +0.153 C 
BRANCH  27  34
ATOM     29  C   UNL     1       1.246   2.122   0.003  0.00  0.00    +0.009 A 
ATOM     30  C   UNL     1       2.453   1.454  -0.018  0.00  0.00    +0.020 A 
ATOM     31  C   UNL     1       2.482   0.070  -0.023  0.00  0.00    +0.041 A 
ATOM     32  C   UNL     1       1.301  -0.652  -0.007  0.00  0.00    +0.020 A 
ATOM     33  C   UNL     1       0.088   0.004   0.013  0.00  0.00    +0.009 A 
ATOM     34  C   UNL     1       0.053   1.399   0.018  0.00  0.00    -0.024 A 
ATOM     35 CL   UNL     1       4.005  -0.763  -0.048  0.00  0.00    -0.084 Cl
ENDBRANCH  27  34
ENDBRANCH  24  28
ENDBRANCH  22  24
ENDBRANCH  21  22
ENDBRANCH   1  21
TORSDOF 7
