REMARK  Name = ZINC39441347
REMARK  4 active torsions:
REMARK  status: ('A' for Active; 'I' for Inactive)
REMARK    1  A    between atoms: C_1  and  C_2
REMARK    2  A    between atoms: C_2  and  C_4
REMARK    3  A    between atoms: C_2  and  S_17
REMARK    4  A    between atoms: S_17  and  C_18
REMARK                            x       y       z     vdW  Elec       q    Type
REMARK                         _______ _______ _______ _____ _____    ______ ____
ROOT
ATOM      1  C   UNL     1       0.728  -0.439  -1.453  0.00  0.00    +0.230 C 
ATOM      2  O   UNL     1       0.245  -0.699  -2.535  0.00  0.00    -0.274 OA
ATOM      3  N   UNL     1       2.051  -0.601  -1.250  0.00  0.00    -0.285 N 
ATOM      4  C   UNL     1       2.614  -1.772  -1.472  0.00  0.00    +0.036 C 
ATOM      5  C   UNL     1       1.784  -2.932  -1.821  0.00  0.00    +0.025 C 
ATOM      6  C   UNL     1       2.353  -4.131  -2.049  0.00  0.00    +0.032 C 
ATOM      7  C   UNL     1       3.807  -4.287  -1.951  0.00  0.00    +0.095 C 
ATOM      8  N   UNL     1       4.637  -5.299  -2.111  0.00  0.00    -0.190 NA
ATOM      9  C   UNL     1       5.895  -4.880  -1.895  0.00  0.00    +0.369 C 
ATOM     10  O   UNL     1       6.989  -5.674  -1.980  0.00  0.00    -0.243 OA
ATOM     11  N   UNL     1       5.931  -3.603  -1.593  0.00  0.00    -0.190 NA
ATOM     12  C   UNL     1       4.652  -3.128  -1.601  0.00  0.00    +0.097 C 
ATOM     13  C   UNL     1       4.083  -1.917  -1.375  0.00  0.00    +0.053 C 
ATOM     14  H   UNL     1       2.588   0.145  -0.940  0.00  0.00    +0.155 HD
ENDROOT
BRANCH   1  16
ATOM     15  C   UNL     1      -0.117   1.593  -0.312  0.00  0.00    +0.029 C 
ATOM     16  C   UNL     1      -0.150   0.064  -0.337  0.00  0.00    +0.134 C 
BRANCH  16  17
ATOM     17  S   UNL     1      -1.853  -0.499  -0.607  0.00  0.00    -0.110 S 
BRANCH  17  18
ATOM     18  C   UNL     1      -2.713   0.036   0.835  0.00  0.00    +0.045 A 
ATOM     19  C   UNL     1      -2.789  -0.794   1.948  0.00  0.00    +0.056 A 
ATOM     20  C   UNL     1      -3.464  -0.371   3.078  0.00  0.00    +0.021 A 
ATOM     21  C   UNL     1      -4.063   0.875   3.102  0.00  0.00    +0.003 A 
ATOM     22  C   UNL     1      -3.990   1.703   1.996  0.00  0.00    +0.021 A 
ATOM     23  C   UNL     1      -3.312   1.290   0.865  0.00  0.00    +0.056 A 
ATOM     24 CL   UNL     1      -3.214   2.333  -0.519  0.00  0.00    -0.082 Cl
ATOM     25 CL   UNL     1      -2.038  -2.358   1.920  0.00  0.00    -0.082 Cl
ENDBRANCH  17  18
ENDBRANCH  16  17
ENDBRANCH   1  16
TORSDOF 3
