REMARK  Name = ZINC00406274
REMARK  9 active torsions:
REMARK  status: ('A' for Active; 'I' for Inactive)
REMARK    1  A    between atoms: C_1  and  C_2
REMARK    2  A    between atoms: C_2  and  O_3
REMARK    3  A    between atoms: O_3  and  C_4
REMARK    4  A    between atoms: C_7  and  C_11
REMARK    5  A    between atoms: C_9  and  O_10
REMARK    6  A    between atoms: C_16  and  C_19
REMARK    7  A    between atoms: C_16  and  C_20
REMARK    8  A    between atoms: C_22  and  N_26
REMARK    9  A    between atoms: C_23  and  C_24
REMARK                            x       y       z     vdW  Elec       q    Type
REMARK                         _______ _______ _______ _____ _____    ______ ____
ROOT
ATOM      1  C   UNL     1       2.687  -0.392  -2.762  0.00  0.00    +0.094 C 
ATOM      2  C   UNL     1       1.831   0.245  -1.687  0.00  0.00    -0.019 C 
ATOM      3  C   UNL     1       2.217   1.348  -1.097  0.00  0.00    +0.108 C 
ATOM      4  C   UNL     1       1.427   2.019  -0.001  0.00  0.00    +0.080 C 
ATOM      5  C   UNL     1      -0.019   1.530   0.011  0.00  0.00    -0.028 C 
ATOM      6  C   UNL     1       0.002  -0.004   0.002  0.00  0.00    +0.011 C 
ATOM      7  C   UNL     1       0.539  -0.459  -1.352  0.00  0.00    +0.035 C 
ATOM      8  C   UNL     1      -0.749   2.045  -1.232  0.00  0.00    +0.011 C 
ATOM      9  C   UNL     1      -0.725   2.031   1.272  0.00  0.00    +0.011 C 
ATOM     10  O   UNL     1       3.387   1.953  -1.445  0.00  0.00    -0.446 OA
ATOM     11  C   UNL     1       3.929   1.746  -2.655  0.00  0.00    +0.198 C 
ATOM     12  C   UNL     1       3.630   0.618  -3.351  0.00  0.00    +0.098 C 
ENDROOT
BRANCH   1  16
ATOM     13  C   UNL     1       4.942  -3.597  -1.050  0.00  0.00    +0.162 A 
ATOM     14  C   UNL     1       5.097  -2.305  -0.573  0.00  0.00    +0.050 A 
ATOM     15  C   UNL     1       4.367  -1.271  -1.129  0.00  0.00    +0.008 A 
ATOM     16  C   UNL     1       3.481  -1.523  -2.160  0.00  0.00    -0.031 A 
ATOM     17  C   UNL     1       3.319  -2.810  -2.637  0.00  0.00    +0.053 A 
ATOM     18  C   UNL     1       4.052  -3.850  -2.089  0.00  0.00    +0.159 A 
BRANCH  18  19
ATOM     19  O   UNL     1       3.897  -5.116  -2.560  0.00  0.00    -0.503 OA
ATOM     20  H   UNL     1       3.207  -5.622  -2.110  0.00  0.00    +0.292 HD
ENDBRANCH  18  19
BRANCH  13  21
ATOM     21  O   UNL     1       5.660  -4.615  -0.504  0.00  0.00    -0.489 OA
BRANCH  21  23
ATOM     22  C   UNL     1       7.268  -5.546   1.041  0.00  0.00    +0.048 C 
ATOM     23  C   UNL     1       6.555  -4.282   0.559  0.00  0.00    +0.226 C 
ENDBRANCH  21  23
ENDBRANCH  13  21
ENDBRANCH   1  16
BRANCH  11  24
ATOM     24  N   UNL     1       4.786   2.675  -3.191  0.00  0.00    -0.328 N 
ATOM     25  H   UNL     1       5.177   2.525  -4.066  0.00  0.00    +0.145 HD
ATOM     26  H   UNL     1       5.000   3.480  -2.695  0.00  0.00    +0.145 HD
ENDBRANCH  11  24
BRANCH  12  27
ATOM     27  C   UNL     1       4.212   0.392  -4.640  0.00  0.00    +0.101 C 
ATOM     28  N   UNL     1       4.673   0.213  -5.662  0.00  0.00    -0.191 NA
ENDBRANCH  12  27
TORSDOF 6
