REMARK  Name = ZINC16717861
REMARK  8 active torsions:
REMARK  status: ('A' for Active; 'I' for Inactive)
REMARK    1  A    between atoms: C_1  and  C_2
REMARK    2  A    between atoms: C_2  and  C_4
REMARK    3  A    between atoms: C_2  and  S_19
REMARK    4  A    between atoms: C_16  and  C_17
REMARK    5  A    between atoms: C_16  and  C_18
REMARK    6  A    between atoms: S_19  and  C_20
REMARK    7  A    between atoms: C_23  and  C_26
REMARK    8  A    between atoms: N_24  and  N_25
REMARK                            x       y       z     vdW  Elec       q    Type
REMARK                         _______ _______ _______ _____ _____    ______ ____
ROOT
ATOM      1  C   UNL     1       6.139   6.124   1.066  0.00  0.00    +0.029 C 
ATOM      2  C   UNL     1       6.261   6.595  -0.385  0.00  0.00    +0.137 C 
ENDROOT
BRANCH   2   3
ATOM      3  C   UNL     1       7.125   7.829  -0.441  0.00  0.00    +0.234 C 
ATOM      4  O   UNL     1       6.683   8.896  -0.069  0.00  0.00    -0.274 OA
ATOM      5  N   UNL     1       8.387   7.747  -0.904  0.00  0.00    -0.255 N 
ATOM      6  C   UNL     1       8.972   6.505  -1.199  0.00  0.00    +0.059 A 
ATOM      7  C   UNL     1       8.593   5.358  -0.530  0.00  0.00    +0.025 A 
ATOM      8  C   UNL     1       9.188   4.150  -0.847  0.00  0.00    +0.002 A 
ATOM      9  C   UNL     1      10.157   4.089  -1.832  0.00  0.00    +0.002 A 
ATOM     10  C   UNL     1      10.537   5.232  -2.510  0.00  0.00    +0.025 A 
ATOM     11  C   UNL     1       9.944   6.446  -2.202  0.00  0.00    +0.055 A 
ATOM     12  N   UNL     1      10.311   7.614  -2.880  0.00  0.00    -0.282 N 
ATOM     13  C   UNL     1       9.955   8.824  -2.409  0.00  0.00    +0.241 C 
ATOM     14  O   UNL     1      10.245   9.820  -3.037  0.00  0.00    -0.273 OA
ATOM     15  C   UNL     1       9.200   8.955  -1.111  0.00  0.00    +0.113 C 
ATOM     16  C   UNL     1       8.287  10.181  -1.172  0.00  0.00    +0.042 C 
ATOM     17  C   UNL     1      10.191   9.110   0.044  0.00  0.00    +0.042 C 
ATOM     18  H   UNL     1      10.826   7.551  -3.699  0.00  0.00    +0.155 HD
ENDBRANCH   2   3
BRANCH   2  19
ATOM     19  S   UNL     1       4.616   6.979  -1.035  0.00  0.00    -0.072 S 
BRANCH  19  20
ATOM     20  C   UNL     1       3.889   5.375  -0.996  0.00  0.00    +0.209 A 
ATOM     21  N   UNL     1       4.467   4.267  -0.588  0.00  0.00    -0.121 NA
ATOM     22  N   UNL     1       3.651   3.279  -0.694  0.00  0.00    -0.127 NA
ATOM     23  C   UNL     1       2.503   3.696  -1.174  0.00  0.00    +0.183 A 
ATOM     24  N   UNL     1       2.622   5.050  -1.388  0.00  0.00    -0.224 N 
BRANCH  23  25
ATOM     25  C   UNL     1       1.310   2.865  -1.442  0.00  0.00    +0.039 A 
ATOM     26  C   UNL     1       0.629   2.987  -2.654  0.00  0.00    +0.013 A 
ATOM     27  C   UNL     1      -0.485   2.210  -2.898  0.00  0.00    +0.001 A 
ATOM     28  C   UNL     1      -0.930   1.314  -1.941  0.00  0.00    +0.001 A 
ATOM     29  C   UNL     1      -0.258   1.184  -0.740  0.00  0.00    +0.021 A 
ATOM     30  C   UNL     1       0.858   1.956  -0.483  0.00  0.00    +0.052 A 
ATOM     31 CL   UNL     1       1.698   1.796   1.028  0.00  0.00    -0.083 Cl
ENDBRANCH  23  25
BRANCH  24  32
ATOM     32  N   UNL     1       1.670   5.893  -1.885  0.00  0.00    -0.295 N 
ATOM     33  H   UNL     1       1.164   6.347  -1.139  0.00  0.00    +0.163 HD
ATOM     34  H   UNL     1       2.079   6.572  -2.510  0.00  0.00    +0.163 HD
ENDBRANCH  24  32
ENDBRANCH  19  20
ENDBRANCH   2  19
TORSDOF 5
