REMARK  Name = ZINC08833894
REMARK  12 active torsions:
REMARK  status: ('A' for Active; 'I' for Inactive)
REMARK    1  A    between atoms: C_10  and  C_11
REMARK    2  A    between atoms: C_10  and  N_71
REMARK    3  A    between atoms: C_11  and  C_13
REMARK    4  A    between atoms: C_11  and  O_36
REMARK    5  A    between atoms: C_13  and  O_14
REMARK    6  A    between atoms: O_14  and  C_15
REMARK    7  A    between atoms: C_18  and  O_21
REMARK    8  A    between atoms: O_21  and  C_22
REMARK    9  A    between atoms: C_22  and  C_23
REMARK   10  A    between atoms: C_23  and  C_25
REMARK   11  A    between atoms: C_23  and  O_35
REMARK   12  A    between atoms: C_25  and  N_73
REMARK                            x       y       z     vdW  Elec       q    Type
REMARK                         _______ _______ _______ _____ _____    ______ ____
ROOT
ATOM      1  C   UNL     1      -0.201   1.401  -7.250  0.00  0.00    +0.121 A 
ATOM      2  C   UNL     1       1.143   1.069  -7.329  0.00  0.00    +0.049 A 
ATOM      3  C   UNL     1       1.731   0.858  -8.561  0.00  0.00    +0.049 A 
ATOM      4  C   UNL     1       0.979   0.987  -9.719  0.00  0.00    +0.121 A 
ATOM      5  C   UNL     1      -0.364   1.324  -9.640  0.00  0.00    +0.049 A 
ATOM      6  C   UNL     1      -0.953   1.531  -8.408  0.00  0.00    +0.049 A 
ENDROOT
BRANCH   1   7
ATOM      7  O   UNL     1      -0.780   1.605  -6.037  0.00  0.00    -0.489 OA
BRANCH   7   8
ATOM      8  C   UNL     1       0.053   1.454  -4.886  0.00  0.00    +0.258 C 
BRANCH   8   9
ATOM      9  C   UNL     1      -0.768   1.720  -3.623  0.00  0.00    +0.135 C 
BRANCH   9  10
ATOM     10  O   UNL     1      -1.190   3.085  -3.608  0.00  0.00    -0.390 OA
ATOM     11  H   UNL     1      -0.462   3.722  -3.614  0.00  0.00    +0.210 HD
ENDBRANCH   9  10
BRANCH   9  12
ATOM     12  C   UNL     1       0.090   1.438  -2.388  0.00  0.00    -0.043 C 
BRANCH  12  22
ATOM     13  C   UNL     1      -4.328   1.027   2.263  0.00  0.00    +0.000 A 
ATOM     14  C   UNL     1      -4.920   0.701   1.057  0.00  0.00    +0.000 A 
ATOM     15  C   UNL     1      -4.157   0.656  -0.093  0.00  0.00    +0.002 A 
ATOM     16  C   UNL     1      -2.799   0.937  -0.046  0.00  0.00    -0.061 A 
ATOM     17  C   UNL     1      -2.210   1.264   1.157  0.00  0.00    -0.048 A 
ATOM     18  C   UNL     1      -2.977   1.307   2.312  0.00  0.00    +0.004 A 
ATOM     19  C   UNL     1      -0.736   1.583   1.260  0.00  0.00    +0.017 C 
ATOM     20  C   UNL     1      -0.013   1.086   0.008  0.00  0.00    -0.074 C 
ATOM     21  C   UNL     1      -2.009   0.871  -1.326  0.00  0.00    -0.043 C 
ATOM     22  N   UNL     1      -0.738   1.600  -1.173  0.00  0.00    +0.384 N 
ATOM     23  H   UNL     1      -0.938   2.597  -1.035  0.00  0.00    -0.081 HD
ENDBRANCH  12  22
ENDBRANCH   9  12
ENDBRANCH   8   9
ENDBRANCH   7   8
ENDBRANCH   1   7
BRANCH   4  24
ATOM     24  O   UNL     1       1.559   0.782 -10.932  0.00  0.00    -0.489 OA
BRANCH  24  25
ATOM     25  C   UNL     1       2.945   0.438 -10.939  0.00  0.00    +0.258 C 
BRANCH  25  26
ATOM     26  C   UNL     1       3.417   0.249 -12.383  0.00  0.00    +0.135 C 
BRANCH  26  27
ATOM     27  O   UNL     1       2.746  -0.873 -12.960  0.00  0.00    -0.390 OA
ATOM     28  H   UNL     1       2.904  -1.707 -12.496  0.00  0.00    +0.210 HD
ENDBRANCH  26  27
BRANCH  26  29
ATOM     29  C   UNL     1       4.927   0.003 -12.398  0.00  0.00    -0.043 C 
BRANCH  29  39
ATOM     30  C   UNL     1       6.800  -0.506 -13.849  0.00  0.00    -0.074 C 
ATOM     31  C   UNL     1       7.119  -0.904 -15.290  0.00  0.00    +0.017 C 
ATOM     32  C   UNL     1       6.700   0.196 -16.232  0.00  0.00    -0.048 A 
ATOM     33  C   UNL     1       7.212   0.194 -17.521  0.00  0.00    +0.004 A 
ATOM     34  C   UNL     1       6.851   1.180 -18.416  0.00  0.00    +0.000 A 
ATOM     35  C   UNL     1       5.975   2.176 -18.026  0.00  0.00    +0.000 A 
ATOM     36  C   UNL     1       5.466   2.180 -16.743  0.00  0.00    +0.002 A 
ATOM     37  C   UNL     1       5.829   1.190 -15.842  0.00  0.00    -0.061 A 
ATOM     38  C   UNL     1       5.250   1.239 -14.452  0.00  0.00    -0.043 C 
ATOM     39  N   UNL     1       5.388  -0.075 -13.802  0.00  0.00    +0.384 N 
ATOM     40  H   UNL     1       4.811  -0.760 -14.305  0.00  0.00    -0.081 HD
ENDBRANCH  29  39
ENDBRANCH  26  29
ENDBRANCH  25  26
ENDBRANCH  24  25
ENDBRANCH   4  24
TORSDOF 12
