REMARK  Name = ZINC12503523
REMARK  8 active torsions:
REMARK  status: ('A' for Active; 'I' for Inactive)
REMARK    1  A    between atoms: C_10  and  C_11
REMARK    2  A    between atoms: C_12  and  C_13
REMARK    3  A    between atoms: N_15  and  C_16
REMARK    4  A    between atoms: C_16  and  N_18
REMARK    5  A    between atoms: N_18  and  N_19
REMARK    6  A    between atoms: C_20  and  C_22
REMARK    7  A    between atoms: C_22  and  O_23
REMARK    8  A    between atoms: O_23  and  C_24
REMARK                            x       y       z     vdW  Elec       q    Type
REMARK                         _______ _______ _______ _____ _____    ______ ____
ROOT
ATOM      1  C   UNL     1       1.178  -0.662  -0.013  0.00  0.00    +0.153 C 
ATOM      2  S   UNL     1       2.649   0.214  -0.022  0.00  0.00    -0.017 S 
ENDROOT
BRANCH   1   5
ATOM      3  C   UNL     1      -0.016   1.344   0.009  0.00  0.00    +0.242 C 
ATOM      4  O   UNL     1       1.029   1.966   0.003  0.00  0.00    -0.270 OA
ATOM      5  N   UNL     1       0.002  -0.004   0.002  0.00  0.00    -0.263 N 
ATOM      6  H   UNL     1      -0.831  -0.500   0.007  0.00  0.00    +0.157 HD
BRANCH   3   8
ATOM      7  C   UNL     1      -1.310   3.409   0.027  0.00  0.00    +0.013 C 
ATOM      8  C   UNL     1      -1.292   2.057   0.019  0.00  0.00    +0.068 C 
BRANCH   7  18
ATOM      9  C   UNL     1      -2.771   8.354   0.079  0.00  0.00    +0.001 A 
ATOM     10  C   UNL     1      -1.535   7.711   0.070  0.00  0.00    +0.001 A 
ATOM     11  C   UNL     1      -1.455   6.349   0.056  0.00  0.00    +0.009 A 
ATOM     12  C   UNL     1      -2.628   5.587   0.051  0.00  0.00    -0.011 A 
ATOM     13  C   UNL     1      -3.886   6.238   0.054  0.00  0.00    -0.017 A 
ATOM     14  C   UNL     1      -3.932   7.643   0.062  0.00  0.00    +0.008 A 
ATOM     15  C   UNL     1      -5.062   5.469   0.056  0.00  0.00    +0.008 A 
ATOM     16  C   UNL     1      -5.003   4.109   0.049  0.00  0.00    +0.001 A 
ATOM     17  C   UNL     1      -3.795   3.428   0.039  0.00  0.00    +0.008 A 
ATOM     18  C   UNL     1      -2.590   4.125   0.037  0.00  0.00    -0.017 A 
ENDBRANCH   7  18
ENDBRANCH   3   8
ENDBRANCH   1   5
BRANCH   1  19
ATOM     19  N   UNL     1       1.196  -2.010  -0.020  0.00  0.00    -0.245 N 
ATOM     20  H   UNL     1       2.043  -2.483  -0.031  0.00  0.00    +0.172 HD
BRANCH  19  21
ATOM     21  N   UNL     1      -0.007  -2.727  -0.013  0.00  0.00    -0.232 N 
ATOM     22  C   UNL     1       0.011  -4.074  -0.020  0.00  0.00    +0.267 C 
ATOM     23  O   UNL     1       1.070  -4.666  -0.033  0.00  0.00    -0.271 OA
ATOM     24  H   UNL     1      -0.854  -2.253  -0.002  0.00  0.00    +0.173 HD
BRANCH  22  25
ATOM     25  C   UNL     1      -1.284  -4.845  -0.012  0.00  0.00    +0.326 C 
BRANCH  25  26
ATOM     26  O   UNL     1      -1.003  -6.247  -0.022  0.00  0.00    -0.483 OA
BRANCH  26  27
ATOM     27  C   UNL     1      -2.070  -7.089  -0.016  0.00  0.00    +0.121 A 
ATOM     28  C   UNL     1      -3.359  -6.577   0.004  0.00  0.00    +0.047 A 
ATOM     29  C   UNL     1      -4.442  -7.436   0.004  0.00  0.00    +0.019 A 
ATOM     30  C   UNL     1      -4.241  -8.804  -0.005  0.00  0.00    +0.018 A 
ATOM     31  C   UNL     1      -2.956  -9.316  -0.020  0.00  0.00    +0.019 A 
ATOM     32  C   UNL     1      -1.871  -8.462  -0.025  0.00  0.00    +0.047 A 
ATOM     33 BR   UNL     1      -5.725  -9.976   0.001  0.00  0.00    -0.050 Br
ENDBRANCH  26  27
ENDBRANCH  25  26
ENDBRANCH  22  25
ENDBRANCH  19  21
ENDBRANCH   1  19
TORSDOF 8
