REMARK  Name = ZINC65321215
REMARK  10 active torsions:
REMARK  status: ('A' for Active; 'I' for Inactive)
REMARK    1  A    between atoms: C_1  and  C_2
REMARK    2  A    between atoms: C_2  and  C_32
REMARK    3  A    between atoms: C_5  and  C_30
REMARK    4  A    between atoms: C_6  and  N_13
REMARK    5  A    between atoms: C_9  and  C_11
REMARK    6  A    between atoms: C_9  and  C_12
REMARK    7  A    between atoms: N_15  and  C_16
REMARK    8  A    between atoms: N_15  and  C_23
REMARK    9  A    between atoms: C_16  and  C_17
REMARK   10  A    between atoms: C_23  and  C_24
REMARK                            x       y       z     vdW  Elec       q    Type
REMARK                         _______ _______ _______ _____ _____    ______ ____
ROOT
ATOM      1  N   UNL     1      -5.456   2.373   2.999  0.00  0.00    -0.301 N 
ATOM      2  C   UNL     1      -5.534   2.033   4.327  0.00  0.00    +0.159 C 
ATOM      3  N   UNL     1      -6.649   1.601   4.820  0.00  0.00    -0.357 N 
ATOM      4  H   UNL     1      -6.225   2.248   2.421  0.00  0.00    +0.153 HD
ENDROOT
BRANCH   1  10
ATOM      5  C   UNL     1      -1.842   6.602   0.499  0.00  0.00    -0.010 C 
ATOM      6  C   UNL     1      -1.144   5.399  -0.140  0.00  0.00    -0.069 C 
ATOM      7  C   UNL     1      -2.180   4.308  -0.439  0.00  0.00    +0.024 C 
ATOM      8  C   UNL     1      -2.702   3.809   0.899  0.00  0.00    -0.021 A 
ATOM      9  C   UNL     1      -4.022   3.292   1.179  0.00  0.00    +0.083 A 
ATOM     10  C   UNL     1      -4.279   2.895   2.485  0.00  0.00    +0.088 A 
ATOM     11  S   UNL     1      -2.840   3.193   3.297  0.00  0.00    -0.078 S 
ATOM     12  C   UNL     1      -1.868   3.831   1.965  0.00  0.00    -0.015 A 
ATOM     13  C   UNL     1      -0.448   4.290   1.969  0.00  0.00    -0.041 C 
ATOM     14  N   UNL     1      -0.062   4.909   0.702  0.00  0.00    +0.389 N 
ATOM     15  C   UNL     1      -0.229   5.271   3.129  0.00  0.00    -0.005 C 
ATOM     16  C   UNL     1       0.454   3.063   2.212  0.00  0.00    -0.005 C 
ATOM     17  C   UNL     1      -0.544   5.860  -1.482  0.00  0.00    -0.010 C 
ATOM     18  H   UNL     1       0.486   4.232   0.166  0.00  0.00    -0.084 HD
ATOM     19  H   UNL     1       0.574   5.684   0.898  0.00  0.00    -0.084 HD
BRANCH   9  20
ATOM     20  C   UNL     1      -5.028   3.185   0.165  0.00  0.00    +0.102 C 
ATOM     21  N   UNL     1      -5.825   3.101  -0.640  0.00  0.00    -0.191 NA
ENDBRANCH   9  20
ENDBRANCH   1  10
BRANCH   3  22
ATOM     22  C   UNL     1      -6.797   1.444   6.269  0.00  0.00    +0.152 C 
BRANCH  22  23
ATOM     23  C   UNL     1      -7.764   2.476   6.790  0.00  0.00    -0.028 A 
ATOM     24  C   UNL     1      -7.326   3.758   7.063  0.00  0.00    +0.005 A 
ATOM     25  C   UNL     1      -8.213   4.704   7.541  0.00  0.00    +0.000 A 
ATOM     26  C   UNL     1      -9.538   4.368   7.745  0.00  0.00    +0.000 A 
ATOM     27  C   UNL     1      -9.977   3.086   7.471  0.00  0.00    +0.000 A 
ATOM     28  C   UNL     1      -9.090   2.141   6.989  0.00  0.00    +0.005 A 
ENDBRANCH  22  23
ENDBRANCH   3  22
BRANCH   3  29
ATOM     29  C   UNL     1      -7.764   1.271   3.929  0.00  0.00    +0.152 C 
BRANCH  29  30
ATOM     30  C   UNL     1      -8.033  -0.211   3.990  0.00  0.00    -0.028 A 
ATOM     31  C   UNL     1      -7.333  -1.075   3.168  0.00  0.00    +0.005 A 
ATOM     32  C   UNL     1      -7.580  -2.434   3.224  0.00  0.00    +0.000 A 
ATOM     33  C   UNL     1      -8.526  -2.929   4.102  0.00  0.00    +0.000 A 
ATOM     34  C   UNL     1      -9.225  -2.065   4.924  0.00  0.00    +0.000 A 
ATOM     35  C   UNL     1      -8.975  -0.707   4.871  0.00  0.00    +0.005 A 
ENDBRANCH  29  30
ENDBRANCH   3  29
TORSDOF 6
