REMARK  Name = ZINC18599702
REMARK  6 active torsions:
REMARK  status: ('A' for Active; 'I' for Inactive)
REMARK    1  A    between atoms: C_1  and  C_2
REMARK    2  A    between atoms: C_2  and  C_4
REMARK    3  A    between atoms: C_2  and  S_15
REMARK    4  A    between atoms: N_6  and  C_7
REMARK    5  A    between atoms: S_15  and  C_16
REMARK    6  A    between atoms: C_22  and  C_27
REMARK                            x       y       z     vdW  Elec       q    Type
REMARK                         _______ _______ _______ _____ _____    ______ ____
ROOT
ATOM      1  C   UNL     1      -2.377   5.239   2.610  0.00  0.00    +0.171 A 
ATOM      2  N   UNL     1      -1.130   4.707   2.763  0.00  0.00    -0.301 N 
ATOM      3  H   UNL     1      -0.549   5.050   3.460  0.00  0.00    +0.171 HD
ATOM      4  C   UNL     1      -0.692   3.717   1.964  0.00  0.00    +0.261 A 
ATOM      5  O   UNL     1       0.425   3.252   2.114  0.00  0.00    -0.267 OA
ATOM      6  C   UNL     1      -1.552   3.217   0.939  0.00  0.00    +0.080 A 
ATOM      7  C   UNL     1      -1.304   2.161  -0.038  0.00  0.00    +0.004 A 
ATOM      8  C   UNL     1      -2.276   1.857  -0.930  0.00  0.00    +0.056 A 
ATOM      9  S   UNL     1      -3.597   2.972  -0.498  0.00  0.00    -0.076 S 
ATOM     10  C   UNL     1      -2.818   3.821   0.852  0.00  0.00    +0.117 A 
ATOM     11  N   UNL     1      -3.191   4.797   1.672  0.00  0.00    -0.216 NA
ENDROOT
BRANCH   7  12
ATOM     12  C   UNL     1      -0.009   1.440  -0.058  0.00  0.00    -0.016 A 
ATOM     13  C   UNL     1       1.189   2.154  -0.066  0.00  0.00    +0.011 A 
ATOM     14  C   UNL     1       2.392   1.478  -0.090  0.00  0.00    +0.039 A 
ATOM     15  C   UNL     1       2.410   0.093  -0.107  0.00  0.00    +0.123 A 
ATOM     16  C   UNL     1       1.223  -0.621  -0.099  0.00  0.00    +0.039 A 
ATOM     17  C   UNL     1       0.015   0.046  -0.075  0.00  0.00    +0.011 A 
ATOM     18  F   UNL     1       3.591  -0.565  -0.131  0.00  0.00    -0.205 F 
ENDBRANCH   7  12
BRANCH   1  19
ATOM     19  S   UNL     1      -2.908   6.535   3.680  0.00  0.00    -0.075 S 
BRANCH  19  21
ATOM     20  C   UNL     1      -4.472   7.349   1.593  0.00  0.00    +0.029 C 
ATOM     21  C   UNL     1      -4.571   6.822   3.026  0.00  0.00    +0.137 C 
BRANCH  21  22
ATOM     22  C   UNL     1      -5.281   7.835   3.887  0.00  0.00    +0.230 C 
ATOM     23  O   UNL     1      -4.641   8.636   4.534  0.00  0.00    -0.274 OA
ATOM     24  N   UNL     1      -6.628   7.851   3.937  0.00  0.00    -0.282 N 
ATOM     25  H   UNL     1      -7.141   7.253   3.371  0.00  0.00    +0.155 HD
BRANCH  24  26
ATOM     26  C   UNL     1      -7.286   8.729   4.807  0.00  0.00    +0.069 A 
ATOM     27  C   UNL     1      -6.753   9.986   5.061  0.00  0.00    +0.027 A 
ATOM     28  C   UNL     1      -7.404  10.851   5.919  0.00  0.00    +0.022 A 
ATOM     29  C   UNL     1      -8.587  10.467   6.526  0.00  0.00    +0.044 A 
ATOM     30  C   UNL     1      -9.122   9.216   6.276  0.00  0.00    +0.060 A 
ATOM     31  C   UNL     1      -8.477   8.347   5.414  0.00  0.00    +0.146 A 
ATOM     32  F   UNL     1      -9.002   7.127   5.165  0.00  0.00    -0.203 F 
ATOM     33 CL   UNL     1      -9.401  11.558   7.604  0.00  0.00    -0.083 Cl
ENDBRANCH  24  26
ENDBRANCH  21  22
ENDBRANCH  19  21
ENDBRANCH   1  19
TORSDOF 5
