REMARK  Name = ZINC36708834
REMARK  13 active torsions:
REMARK  status: ('A' for Active; 'I' for Inactive)
REMARK    1  A    between atoms: C_1  and  C_2
REMARK    2  A    between atoms: C_2  and  C_3
REMARK    3  A    between atoms: C_3  and  C_31
REMARK    4  A    between atoms: N_6  and  C_10
REMARK    5  A    between atoms: C_10  and  C_11
REMARK    6  A    between atoms: C_16  and  C_19
REMARK    7  A    between atoms: C_22  and  C_28
REMARK    8  A    between atoms: C_24  and  C_25
REMARK    9  A    between atoms: C_25  and  C_26
REMARK   10  A    between atoms: C_25  and  C_27
REMARK   11  A    between atoms: C_28  and  C_29
REMARK   12  A    between atoms: C_28  and  C_30
REMARK   13  A    between atoms: C_31  and  C_32
REMARK                            x       y       z     vdW  Elec       q    Type
REMARK                         _______ _______ _______ _____ _____    ______ ____
ROOT
ATOM      1  C   UNL     1      -3.918   2.995   1.350  0.00  0.00    +0.237 C 
ATOM      2  O   UNL     1      -2.776   3.291   1.067  0.00  0.00    -0.274 OA
ATOM      3  N   UNL     1      -4.693   3.868   2.025  0.00  0.00    -0.263 N 
ATOM      4  C   UNL     1      -4.184   5.106   2.396  0.00  0.00    +0.165 A 
ATOM      5  N   UNL     1      -4.771   6.086   3.057  0.00  0.00    -0.225 NA
ATOM      6  C   UNL     1      -4.130   7.213   3.330  0.00  0.00    +0.080 A 
ATOM      7  C   UNL     1      -2.834   7.363   2.919  0.00  0.00    +0.076 A 
ATOM      8  S   UNL     1      -2.558   5.791   2.113  0.00  0.00    -0.060 S 
ATOM      9  H   UNL     1      -5.606   3.631   2.251  0.00  0.00    +0.157 HD
ENDROOT
BRANCH   6  10
ATOM     10  C   UNL     1      -4.811   8.300   4.073  0.00  0.00    +0.004 A 
ATOM     11  C   UNL     1      -4.782   9.606   3.585  0.00  0.00    +0.010 A 
ATOM     12  C   UNL     1      -5.417  10.614   4.281  0.00  0.00    +0.004 A 
ATOM     13  C   UNL     1      -6.081  10.331   5.462  0.00  0.00    -0.044 A 
ATOM     14  C   UNL     1      -6.113   9.038   5.951  0.00  0.00    +0.008 A 
ATOM     15  C   UNL     1      -5.486   8.020   5.260  0.00  0.00    -0.035 A 
BRANCH  15  16
ATOM     16  C   UNL     1      -5.527   6.610   5.790  0.00  0.00    +0.013 C 
ATOM     17  C   UNL     1      -5.008   6.592   7.229  0.00  0.00    +0.012 C 
ATOM     18  C   UNL     1      -6.968   6.096   5.761  0.00  0.00    +0.012 C 
ENDBRANCH  15  16
BRANCH  13  19
ATOM     19  C   UNL     1      -6.772  11.437   6.218  0.00  0.00    +0.013 C 
ATOM     20  C   UNL     1      -5.747  12.501   6.614  0.00  0.00    +0.012 C 
ATOM     21  C   UNL     1      -7.846  12.068   5.330  0.00  0.00    +0.012 C 
ENDBRANCH  13  19
ENDBRANCH   6  10
BRANCH   1  22
ATOM     22  C   UNL     1      -4.470   1.652   0.947  0.00  0.00    +0.214 C 
BRANCH  22  26
ATOM     23  C   UNL     1      -1.697  -0.486  -0.291  0.00  0.00    +0.112 C 
ATOM     24  C   UNL     1      -2.556   0.070   0.827  0.00  0.00    +0.247 C 
ATOM     25  O   UNL     1      -2.466  -0.175   2.011  0.00  0.00    -0.273 OA
ATOM     26  N   UNL     1      -3.440   0.895   0.232  0.00  0.00    -0.215 N 
ATOM     27  C   UNL     1      -3.261   0.937  -1.093  0.00  0.00    +0.310 C 
ATOM     28  O   UNL     1      -3.937   1.611  -1.846  0.00  0.00    -0.252 OA
ATOM     29  N   UNL     1      -2.248   0.150  -1.500  0.00  0.00    -0.285 N 
ATOM     30  H   UNL     1      -1.941   0.025  -2.412  0.00  0.00    +0.151 HD
BRANCH  23  32
ATOM     31  C   UNL     1      -0.131   1.432   0.038  0.00  0.00    +0.006 C 
ATOM     32  C   UNL     1      -0.233  -0.089  -0.094  0.00  0.00    +0.032 C 
ENDBRANCH  23  32
BRANCH  23  33
ATOM     33  C   UNL     1      -1.834  -2.008  -0.373  0.00  0.00    +0.032 C 
ATOM     34  C   UNL     1      -3.285  -2.373  -0.694  0.00  0.00    +0.006 C 
ENDBRANCH  23  33
ENDBRANCH  22  26
ENDBRANCH   1  22
TORSDOF 7
