REMARK  Name = ZINC19909902
REMARK  7 active torsions:
REMARK  status: ('A' for Active; 'I' for Inactive)
REMARK    1  A    between atoms: C_1  and  C_2
REMARK    2  A    between atoms: C_2  and  C_4
REMARK    3  A    between atoms: C_2  and  N_10
REMARK    4  A    between atoms: C_11  and  C_19
REMARK    5  A    between atoms: C_19  and  C_20
REMARK    6  A    between atoms: C_19  and  C_26
REMARK    7  A    between atoms: C_19  and  O_32
REMARK                            x       y       z     vdW  Elec       q    Type
REMARK                         _______ _______ _______ _____ _____    ______ ____
ROOT
ATOM      1  N   UNL     1       0.610  -0.426  -1.278  0.00  0.00    -0.286 NA
ATOM      2  C   UNL     1      -0.194   0.047  -2.410  0.00  0.00    +0.101 C 
ATOM      3  C   UNL     1       0.680   0.871  -3.358  0.00  0.00    +0.010 C 
ATOM      4  C   UNL     1       1.831  -0.004  -3.866  0.00  0.00    +0.007 C 
ATOM      5  C   UNL     1       2.627  -0.523  -2.666  0.00  0.00    +0.019 C 
ATOM      6  C   UNL     1       2.004   0.020  -1.377  0.00  0.00    +0.058 C 
ATOM      7  C   UNL     1       2.055   1.550  -1.392  0.00  0.00    +0.019 C 
ATOM      8  C   UNL     1       1.259   2.067  -2.594  0.00  0.00    +0.007 C 
ENDROOT
BRANCH   1  10
ATOM      9  C   UNL     1       0.566   1.357   0.400  0.00  0.00    +0.029 C 
ATOM     10  C   UNL     1       0.015  -0.013   0.000  0.00  0.00    +0.084 C 
BRANCH  10  11
ATOM     11  C   UNL     1       0.360  -1.023   1.065  0.00  0.00    -0.031 A 
ATOM     12  C   UNL     1       1.653  -1.499   1.173  0.00  0.00    +0.005 A 
ATOM     13  C   UNL     1       1.969  -2.425   2.149  0.00  0.00    +0.000 A 
ATOM     14  C   UNL     1       0.992  -2.874   3.018  0.00  0.00    +0.000 A 
ATOM     15  C   UNL     1      -0.301  -2.397   2.910  0.00  0.00    +0.000 A 
ATOM     16  C   UNL     1      -0.616  -1.468   1.937  0.00  0.00    +0.005 A 
ENDBRANCH  10  11
ENDBRANCH   1  10
BRANCH   2  17
ATOM     17  C   UNL     1      -0.768  -1.154  -3.164  0.00  0.00    +0.132 C 
BRANCH  17  18
ATOM     18  C   UNL     1      -1.540  -2.026  -2.207  0.00  0.00    -0.010 A 
ATOM     19  C   UNL     1      -2.258  -1.452  -1.175  0.00  0.00    +0.007 A 
ATOM     20  C   UNL     1      -2.966  -2.252  -0.297  0.00  0.00    +0.000 A 
ATOM     21  C   UNL     1      -2.955  -3.626  -0.452  0.00  0.00    +0.000 A 
ATOM     22  C   UNL     1      -2.238  -4.200  -1.485  0.00  0.00    +0.000 A 
ATOM     23  C   UNL     1      -1.533  -3.400  -2.365  0.00  0.00    +0.007 A 
ENDBRANCH  17  18
BRANCH  17  24
ATOM     24  C   UNL     1      -1.688  -0.670  -4.255  0.00  0.00    -0.010 A 
ATOM     25  C   UNL     1      -2.378   0.518  -4.101  0.00  0.00    +0.007 A 
ATOM     26  C   UNL     1      -3.221   0.962  -5.102  0.00  0.00    +0.000 A 
ATOM     27  C   UNL     1      -3.374   0.219  -6.258  0.00  0.00    +0.000 A 
ATOM     28  C   UNL     1      -2.683  -0.968  -6.412  0.00  0.00    +0.000 A 
ATOM     29  C   UNL     1      -1.836  -1.410  -5.413  0.00  0.00    +0.007 A 
ENDBRANCH  17  24
BRANCH  17  30
ATOM     30  O   UNL     1       0.300  -1.909  -3.741  0.00  0.00    -0.378 OA
ATOM     31  H   UNL     1       0.932  -2.253  -3.095  0.00  0.00    +0.211 HD
ENDBRANCH  17  30
ENDBRANCH   2  17
TORSDOF 6
