REMARK  Name = ZINC08333146
REMARK  4 active torsions:
REMARK  status: ('A' for Active; 'I' for Inactive)
REMARK    1  A    between atoms: C_8  and  C_12
REMARK    2  A    between atoms: C_12  and  C_14
REMARK    3  A    between atoms: C_14  and  S_15
REMARK    4  A    between atoms: S_15  and  C_16
REMARK                            x       y       z     vdW  Elec       q    Type
REMARK                         _______ _______ _______ _____ _____    ______ ____
ROOT
ATOM      1  C   UNL     1      -0.058  -4.626  -0.021  0.00  0.00    +0.180 C 
ATOM      2  O   UNL     1       1.040  -5.142  -0.033  0.00  0.00    -0.291 OA
ENDROOT
BRANCH   1  10
ATOM      3  C   UNL     1      -6.038  -6.004   0.030  0.00  0.00    +0.001 A 
ATOM      4  C   UNL     1      -5.879  -7.383   0.021  0.00  0.00    +0.004 A 
ATOM      5  C   UNL     1      -4.620  -7.946   0.005  0.00  0.00    +0.047 A 
ATOM      6  C   UNL     1      -3.494  -7.130  -0.001  0.00  0.00    +0.139 A 
ATOM      7  C   UNL     1      -3.658  -5.732   0.007  0.00  0.00    +0.018 A 
ATOM      8  C   UNL     1      -4.949  -5.182   0.023  0.00  0.00    +0.011 A 
ATOM      9  C   UNL     1      -2.523  -4.885   0.001  0.00  0.00    +0.030 A 
ATOM     10  C   UNL     1      -1.260  -5.462  -0.013  0.00  0.00    +0.103 A 
ATOM     11  C   UNL     1      -1.153  -6.927  -0.028  0.00  0.00    +0.348 A 
ATOM     12  O   UNL     1      -0.058  -7.456  -0.046  0.00  0.00    -0.244 OA
ATOM     13  O   UNL     1      -2.263  -7.684  -0.016  0.00  0.00    -0.422 OA
ENDBRANCH   1  10
BRANCH   1  14
ATOM     14  C   UNL     1      -0.184  -3.124  -0.012  0.00  0.00    +0.156 C 
BRANCH  14  15
ATOM     15  S   UNL     1       1.470  -2.378  -0.024  0.00  0.00    -0.089 S 
BRANCH  15  16
ATOM     16  C   UNL     1       1.155  -0.645  -0.012  0.00  0.00    +0.160 A 
ATOM     17  N   UNL     1       0.002  -0.004   0.002  0.00  0.00    -0.133 NA
ATOM     18  N   UNL     1      -0.017   1.371   0.010  0.00  0.00    -0.125 NA
ATOM     19  C   UNL     1       1.118   2.043   0.002  0.00  0.00    +0.180 A 
ATOM     20  S   UNL     1       2.313   0.716  -0.016  0.00  0.00    -0.025 S 
ATOM     21  N   UNL     1       1.328   3.417   0.007  0.00  0.00    -0.336 N 
ATOM     22  H   UNL     1       0.571   4.024   0.017  0.00  0.00    +0.144 HD
ATOM     23  H   UNL     1       2.232   3.770  -0.000  0.00  0.00    +0.144 HD
ENDBRANCH  15  16
ENDBRANCH  14  15
ENDBRANCH   1  14
TORSDOF 4
