REMARK  Name = ZINC04555588
REMARK  4 active torsions:
REMARK  status: ('A' for Active; 'I' for Inactive)
REMARK    1  A    between atoms: C_1  and  C_2
REMARK    2  A    between atoms: C_2  and  N_41
REMARK    3  A    between atoms: C_10  and  O_22
REMARK    4  A    between atoms: C_12  and  C_15
REMARK                            x       y       z     vdW  Elec       q    Type
REMARK                         _______ _______ _______ _____ _____    ______ ____
ROOT
ATOM      1  C   UNL     1      -3.497  -1.600   0.203  0.00  0.00    -0.074 C 
ATOM      2  C   UNL     1      -2.553  -0.426   0.474  0.00  0.00    +0.018 C 
ATOM      3  C   UNL     1      -1.125  -0.893   0.212  0.00  0.00    -0.027 A 
ATOM      4  C   UNL     1      -0.846  -2.217   0.161  0.00  0.00    -0.021 A 
ATOM      5  S   UNL     1       0.894  -2.303  -0.164  0.00  0.00    -0.080 S 
ATOM      6  C   UNL     1       1.235  -0.627  -0.231  0.00  0.00    +0.080 A 
ATOM      7  C   UNL     1       0.002  -0.004   0.002  0.00  0.00    +0.067 A 
ATOM      8  C   UNL     1      -0.018   1.481   0.010  0.00  0.00    +0.220 C 
ATOM      9  N   UNL     1       1.127   2.105   0.003  0.00  0.00    -0.223 NA
ATOM     10  C   UNL     1       2.429   1.455   0.087  0.00  0.00    +0.224 C 
ATOM     11  N   UNL     1       2.389   0.084  -0.455  0.00  0.00    -0.313 N 
ATOM     12  C   UNL     1      -1.817  -3.340   0.346  0.00  0.00    -0.035 C 
ATOM     13  H   UNL     1       3.137  -0.295  -0.943  0.00  0.00    +0.149 HD
ATOM     14  N   UNL     1      -3.043  -2.781   0.966  0.00  0.00    +0.383 N 
ATOM     15  H   UNL     1      -2.830  -2.495   1.929  0.00  0.00    -0.081 HD
ENDROOT
BRANCH  10  16
ATOM     16  C   UNL     1       2.857   1.400   1.531  0.00  0.00    -0.004 A 
ATOM     17  C   UNL     1       3.693   0.389   1.966  0.00  0.00    +0.007 A 
ATOM     18  C   UNL     1       4.090   0.341   3.289  0.00  0.00    +0.002 A 
ATOM     19  C   UNL     1       3.642   1.298   4.181  0.00  0.00    +0.020 A 
ATOM     20  C   UNL     1       2.801   2.307   3.747  0.00  0.00    +0.041 A 
ATOM     21  C   UNL     1       2.409   2.358   2.421  0.00  0.00    +0.027 A 
ATOM     22 CL   UNL     1       2.238   3.509   4.866  0.00  0.00    -0.084 Cl
ENDBRANCH  10  16
BRANCH  14  24
ATOM     23  C   UNL     1      -3.701  -4.918   1.962  0.00  0.00    -0.017 C 
ATOM     24  C   UNL     1      -4.109  -3.806   0.993  0.00  0.00    -0.082 C 
ENDBRANCH  14  24
BRANCH   8  25
ATOM     25  O   UNL     1      -1.186   2.164   0.019  0.00  0.00    -0.492 OA
ATOM     26  H   UNL     1      -1.079   3.126   0.024  0.00  0.00    +0.294 HD
ENDBRANCH   8  25
TORSDOF 3
