REMARK  Name = ZINC45898894
REMARK  12 active torsions:
REMARK  status: ('A' for Active; 'I' for Inactive)
REMARK    1  A    between atoms: C_1  and  C_2
REMARK    2  A    between atoms: C_2  and  O_3
REMARK    3  A    between atoms: O_3  and  C_4
REMARK    4  A    between atoms: C_9  and  N_10
REMARK    5  A    between atoms: C_11  and  C_13
REMARK    6  A    between atoms: C_13  and  N_14
REMARK    7  A    between atoms: N_23  and  C_26
REMARK    8  A    between atoms: C_26  and  C_27
REMARK    9  A    between atoms: C_27  and  C_28
REMARK   10  A    between atoms: C_28  and  C_29
REMARK   11  A    between atoms: C_29  and  C_30
REMARK   12  A    between atoms: N_32  and  C_33
REMARK                            x       y       z     vdW  Elec       q    Type
REMARK                         _______ _______ _______ _____ _____    ______ ____
ROOT
ATOM      1  N   UNL     1      -7.556  -2.010  -0.250  0.00  0.00    -0.284 N 
ATOM      2  C   UNL     1      -8.029  -2.402  -1.493  0.00  0.00    +0.059 A 
ATOM      3  C   UNL     1      -7.380  -2.042  -2.664  0.00  0.00    +0.027 A 
ATOM      4  C   UNL     1      -7.885  -2.454  -3.882  0.00  0.00    +0.002 A 
ATOM      5  C   UNL     1      -9.036  -3.224  -3.946  0.00  0.00    +0.001 A 
ATOM      6  C   UNL     1      -9.695  -3.592  -2.792  0.00  0.00    +0.015 A 
ATOM      7  C   UNL     1      -9.196  -3.183  -1.557  0.00  0.00    +0.063 A 
ATOM      8  C   UNL     1      -9.861  -3.548  -0.293  0.00  0.00    +0.264 A 
ATOM      9  O   UNL     1     -10.873  -4.222  -0.293  0.00  0.00    -0.267 OA
ATOM     10  N   UNL     1      -9.317  -3.114   0.864  0.00  0.00    -0.260 N 
ATOM     11  C   UNL     1      -8.197  -2.373   0.874  0.00  0.00    +0.333 A 
ATOM     12  O   UNL     1      -7.747  -2.013   1.944  0.00  0.00    -0.246 OA
ENDROOT
BRANCH   1  13
ATOM     13  C   UNL     1      -6.341  -1.195  -0.160  0.00  0.00    +0.222 C 
BRANCH  13  15
ATOM     14  N   UNL     1      -3.903  -1.566   0.030  0.00  0.00    -0.281 N 
ATOM     15  C   UNL     1      -5.138  -2.097  -0.062  0.00  0.00    +0.237 C 
ATOM     16  O   UNL     1      -5.280  -3.302  -0.067  0.00  0.00    -0.274 OA
ATOM     17  H   UNL     1      -3.793  -0.606   0.115  0.00  0.00    +0.155 HD
BRANCH  14  23
ATOM     18  C   UNL     1      -1.584  -1.981   0.589  0.00  0.00    +0.142 A 
ATOM     19  C   UNL     1      -0.476  -2.812   0.565  0.00  0.00    +0.047 A 
ATOM     20  C   UNL     1      -0.554  -4.051  -0.043  0.00  0.00    +0.004 A 
ATOM     21  C   UNL     1      -1.736  -4.465  -0.628  0.00  0.00    +0.002 A 
ATOM     22  C   UNL     1      -2.846  -3.643  -0.608  0.00  0.00    +0.027 A 
ATOM     23  C   UNL     1      -2.777  -2.400   0.004  0.00  0.00    +0.076 A 
BRANCH  18  24
ATOM     24  O   UNL     1      -1.509  -0.762   1.187  0.00  0.00    -0.490 OA
BRANCH  24  26
ATOM     25  C   UNL     1      -0.362   0.995   2.386  0.00  0.00    +0.048 C 
ATOM     26  C   UNL     1      -0.254  -0.400   1.765  0.00  0.00    +0.226 C 
ENDBRANCH  24  26
ENDBRANCH  18  24
ENDBRANCH  14  23
ENDBRANCH  13  15
ENDBRANCH   1  13
BRANCH  10  27
ATOM     27  C   UNL     1      -9.959  -3.462   2.135  0.00  0.00    +0.130 C 
BRANCH  27  28
ATOM     28  C   UNL     1      -9.384  -4.782   2.652  0.00  0.00    +0.022 C 
BRANCH  28  29
ATOM     29  C   UNL     1     -10.054  -5.145   3.978  0.00  0.00    +0.011 C 
BRANCH  29  30
ATOM     30  C   UNL     1      -9.479  -6.465   4.495  0.00  0.00    +0.096 C 
BRANCH  30  31
ATOM     31  C   UNL     1     -10.139  -6.823   5.802  0.00  0.00    +0.213 C 
ATOM     32  O   UNL     1     -10.986  -6.094   6.273  0.00  0.00    -0.276 OA
ATOM     33  N   UNL     1      -9.789  -7.954   6.447  0.00  0.00    -0.312 N 
ATOM     34  H   UNL     1      -9.111  -8.537   6.070  0.00  0.00    +0.149 HD
BRANCH  33  35
ATOM     35  C   UNL     1     -10.430  -8.301   7.717  0.00  0.00    +0.073 C 
ATOM     36  C   UNL     1      -9.666  -7.654   8.890  0.00  0.00    +0.022 C 
ATOM     37  C   UNL     1      -9.727  -8.715  10.016  0.00  0.00    +0.002 C 
ATOM     38  C   UNL     1      -9.570 -10.046   9.239  0.00  0.00    +0.002 C 
ATOM     39  C   UNL     1     -10.369  -9.823   7.939  0.00  0.00    +0.022 C 
ENDBRANCH  33  35
ENDBRANCH  30  31
ENDBRANCH  29  30
ENDBRANCH  28  29
ENDBRANCH  27  28
ENDBRANCH  10  27
TORSDOF 11
