REMARK  Name = ZINC00531506
REMARK  4 active torsions:
REMARK  status: ('A' for Active; 'I' for Inactive)
REMARK    1  A    between atoms: C_1  and  C_2
REMARK    2  A    between atoms: C_2  and  C_3
REMARK    3  A    between atoms: C_6  and  C_9
REMARK    4  A    between atoms: C_12  and  C_21
REMARK                            x       y       z     vdW  Elec       q    Type
REMARK                         _______ _______ _______ _____ _____    ______ ____
ROOT
ATOM      1  C   UNL     1       2.707  -1.868  -4.752  0.00  0.00    +0.106 C 
ATOM      2  C   UNL     1       3.393  -0.689  -5.450  0.00  0.00    +0.058 C 
ATOM      3  C   UNL     1       4.368  -0.009  -4.481  0.00  0.00    +0.143 C 
ATOM      4  N   UNL     1       5.209  -1.033  -3.862  0.00  0.00    -0.224 N 
ATOM      5  C   UNL     1       4.903  -2.352  -3.825  0.00  0.00    +0.216 A 
ATOM      6  N   UNL     1       5.868  -2.977  -3.204  0.00  0.00    -0.180 NA
ATOM      7  C   UNL     1       6.804  -2.093  -2.829  0.00  0.00    +0.233 A 
ATOM      8  N   UNL     1       6.436  -0.891  -3.213  0.00  0.00    -0.132 NA
ATOM      9  N   UNL     1       7.979  -2.400  -2.141  0.00  0.00    -0.326 N 
ATOM     10  N   UNL     1       3.732  -2.862  -4.381  0.00  0.00    -0.307 N 
ATOM     11  H   UNL     1       8.171  -3.318  -1.896  0.00  0.00    +0.145 HD
ATOM     12  H   UNL     1       8.603  -1.694  -1.908  0.00  0.00    +0.145 HD
ATOM     13  H   UNL     1       3.598  -3.813  -4.518  0.00  0.00    +0.149 HD
ENDROOT
BRANCH   3  14
ATOM     14  C   UNL     1       5.231   0.969  -5.235  0.00  0.00    -0.023 A 
ATOM     15  C   UNL     1       6.037   0.526  -6.268  0.00  0.00    +0.008 A 
ATOM     16  C   UNL     1       6.828   1.422  -6.960  0.00  0.00    +0.038 A 
ATOM     17  C   UNL     1       6.815   2.764  -6.620  0.00  0.00    +0.123 A 
ATOM     18  C   UNL     1       6.007   3.207  -5.586  0.00  0.00    +0.038 A 
ATOM     19  C   UNL     1       5.213   2.310  -4.898  0.00  0.00    +0.008 A 
ATOM     20  F   UNL     1       7.588   3.641  -7.296  0.00  0.00    -0.205 F 
ENDBRANCH   3  14
BRANCH   1  24
ATOM     21  C   UNL     1       0.707  -0.490  -1.238  0.00  0.00    -0.048 A 
ATOM     22  C   UNL     1      -0.011  -0.719  -2.397  0.00  0.00    +0.004 A 
ATOM     23  C   UNL     1       0.636  -1.164  -3.534  0.00  0.00    +0.006 A 
ATOM     24  C   UNL     1       2.002  -1.381  -3.513  0.00  0.00    -0.027 A 
ATOM     25  C   UNL     1       2.720  -1.152  -2.354  0.00  0.00    +0.006 A 
ATOM     26  C   UNL     1       2.073  -0.702  -1.218  0.00  0.00    +0.004 A 
BRANCH  21  28
ATOM     27  C   UNL     1      -0.019   1.526   0.010  0.00  0.00    +0.009 C 
ATOM     28  C   UNL     1       0.002  -0.004   0.002  0.00  0.00    +0.032 C 
ENDBRANCH  21  28
ENDBRANCH   1  24
TORSDOF 3
