REMARK  Name = ZINC22010263
REMARK  4 active torsions:
REMARK  status: ('A' for Active; 'I' for Inactive)
REMARK    1  A    between atoms: C_1  and  C_2
REMARK    2  A    between atoms: C_5  and  C_25
REMARK    3  A    between atoms: N_8  and  C_10
REMARK    4  A    between atoms: C_10  and  C_11
REMARK                            x       y       z     vdW  Elec       q    Type
REMARK                         _______ _______ _______ _____ _____    ______ ____
ROOT
ATOM      1  C   UNL     1      -2.086   0.763   3.887  0.00  0.00    +0.116 A 
ATOM      2  N   UNL     1      -2.115  -0.433   4.449  0.00  0.00    -0.219 NA
ATOM      3  C   UNL     1      -3.169  -1.228   4.359  0.00  0.00    +0.128 A 
ATOM      4  C   UNL     1      -4.311  -0.785   3.636  0.00  0.00    +0.051 A 
ATOM      5  C   UNL     1      -5.577  -1.482   3.406  0.00  0.00    -0.025 A 
ATOM      6  C   UNL     1      -6.509  -0.834   2.677  0.00  0.00    -0.004 A 
ATOM      7  S   UNL     1      -5.769   0.722   2.259  0.00  0.00    -0.073 S 
ATOM      8  C   UNL     1      -4.205   0.500   3.066  0.00  0.00    +0.114 A 
ATOM      9  N   UNL     1      -3.116   1.229   3.208  0.00  0.00    -0.227 NA
ATOM     10  C   UNL     1      -7.873  -1.327   2.303  0.00  0.00    +0.043 C 
ATOM     11  C   UNL     1      -7.930  -2.840   2.560  0.00  0.00    +0.005 C 
ATOM     12  C   UNL     1      -7.361  -3.123   3.954  0.00  0.00    +0.005 C 
ATOM     13  C   UNL     1      -5.851  -2.878   3.957  0.00  0.00    +0.037 C 
ATOM     14  N   UNL     1      -3.161  -2.473   4.962  0.00  0.00    -0.343 N 
ATOM     15  H   UNL     1      -4.041  -3.128   4.883  0.00  0.00    +0.144 HD
ATOM     16  H   UNL     1      -2.274  -2.808   5.520  0.00  0.00    +0.144 HD
ENDROOT
BRANCH   1  17
ATOM     17  C   UNL     1      -0.851   1.614   4.031  0.00  0.00    -0.001 C 
BRANCH  17  23
ATOM     18  C   UNL     1       3.705   2.205   2.276  0.00  0.00    +0.005 C 
ATOM     19  C   UNL     1       2.350   1.533   2.050  0.00  0.00    -0.031 C 
ATOM     20  C   UNL     1       1.792   1.953   0.687  0.00  0.00    +0.003 C 
ATOM     21  C   UNL     1       0.409   1.324   0.495  0.00  0.00    -0.031 C 
ATOM     22  C   UNL     1      -0.508   1.761   1.639  0.00  0.00    -0.075 C 
ATOM     23  N   UNL     1       0.069   1.335   2.921  0.00  0.00    +0.385 N 
ATOM     24  C   UNL     1       1.376   1.963   3.149  0.00  0.00    -0.075 C 
ATOM     25  C   UNL     1      -0.181   1.787  -0.839  0.00  0.00    +0.005 C 
ATOM     26  H   UNL     1       0.224   0.247   2.873  0.00  0.00    -0.081 HD
ENDBRANCH  17  23
ENDBRANCH   1  17
TORSDOF 2
