REMARK  Name = ZINC16298878
REMARK  6 active torsions:
REMARK  status: ('A' for Active; 'I' for Inactive)
REMARK    1  A    between atoms: C_3  and  C_9
REMARK    2  A    between atoms: N_11  and  C_12
REMARK    3  A    between atoms: C_12  and  C_13
REMARK    4  A    between atoms: N_15  and  C_16
REMARK    5  A    between atoms: C_16  and  C_17
REMARK    6  A    between atoms: N_19  and  C_20
REMARK                            x       y       z     vdW  Elec       q    Type
REMARK                         _______ _______ _______ _____ _____    ______ ____
ROOT
ATOM      1  C   UNL     1       0.002  -0.004   0.002  0.00  0.00    +0.231 C 
ATOM      2  O   UNL     1      -1.040  -0.625   0.009  0.00  0.00    -0.274 OA
ATOM      3  N   UNL     1      -0.016   1.344   0.009  0.00  0.00    -0.305 N 
ATOM      4  H   UNL     1       0.817   1.840   0.004  0.00  0.00    +0.149 HD
ENDROOT
BRANCH   1   5
ATOM      5  C   UNL     1       1.317  -0.740  -0.015  0.00  0.00    +0.200 C 
BRANCH   5   8
ATOM      6  C   UNL     1       2.105  -3.045  -0.034  0.00  0.00    +0.246 C 
ATOM      7  O   UNL     1       3.246  -2.624  -0.043  0.00  0.00    -0.270 OA
ATOM      8  N   UNL     1       1.069  -2.183  -0.020  0.00  0.00    -0.303 N 
ATOM      9  H   UNL     1       0.159  -2.519  -0.013  0.00  0.00    +0.150 HD
BRANCH   6  12
ATOM     10  C   UNL     1       0.319  -6.348  -0.034  0.00  0.00    +0.021 A 
ATOM     11  C   UNL     1       0.546  -4.988  -0.024  0.00  0.00    +0.016 A 
ATOM     12  C   UNL     1       1.855  -4.501  -0.040  0.00  0.00    +0.055 A 
ATOM     13  C   UNL     1       2.927  -5.397  -0.055  0.00  0.00    +0.054 A 
ATOM     14  C   UNL     1       2.686  -6.757  -0.059  0.00  0.00    +0.040 A 
ATOM     15  C   UNL     1       1.385  -7.231  -0.049  0.00  0.00    +0.042 A 
ATOM     16 CL   UNL     1       1.090  -8.942  -0.055  0.00  0.00    -0.083 Cl
ATOM     17 CL   UNL     1       4.558  -4.803  -0.068  0.00  0.00    -0.083 Cl
ENDBRANCH   6  12
ENDBRANCH   5   8
ENDBRANCH   1   5
BRANCH   3  18
ATOM     18  C   UNL     1      -1.295   2.059   0.019  0.00  0.00    +0.200 C 
BRANCH  18  19
ATOM     19  C   UNL     1      -1.040   3.544   0.026  0.00  0.00    +0.231 C 
ATOM     20  O   UNL     1       0.098   3.964   0.023  0.00  0.00    -0.274 OA
ATOM     21  N   UNL     1      -2.076   4.406   0.036  0.00  0.00    -0.307 N 
ATOM     22  H   UNL     1      -2.986   4.070   0.038  0.00  0.00    +0.149 HD
BRANCH  21  23
ATOM     23  C   UNL     1      -1.827   5.850   0.043  0.00  0.00    +0.105 C 
ATOM     24  C   UNL     1      -3.006   6.541   0.706  0.00  0.00    +0.038 C 
ATOM     25  C   UNL     1      -2.728   8.050   0.774  0.00  0.00    +0.076 C 
ATOM     26  S   UNL     1      -2.875   8.696  -0.918  0.00  0.00    -0.125 S 
ATOM     27  C   UNL     1      -1.974   7.522  -1.881  0.00  0.00    +0.013 A 
ATOM     28  C   UNL     1      -1.582   6.300  -1.367  0.00  0.00    -0.012 A 
ATOM     29  C   UNL     1      -0.906   5.409  -2.197  0.00  0.00    +0.026 A 
ATOM     30  C   UNL     1      -0.619   5.736  -3.506  0.00  0.00    +0.041 A 
ATOM     31  C   UNL     1      -1.000   6.966  -4.012  0.00  0.00    +0.021 A 
ATOM     32  C   UNL     1      -1.673   7.854  -3.202  0.00  0.00    +0.016 A 
ATOM     33 CL   UNL     1       0.223   4.604  -4.518  0.00  0.00    -0.084 Cl
ENDBRANCH  21  23
ENDBRANCH  18  19
ENDBRANCH   3  18
TORSDOF 6
