REMARK  Name = ZINC08214734
REMARK  14 active torsions:
REMARK  status: ('A' for Active; 'I' for Inactive)
REMARK    1  A    between atoms: C_1  and  C_2
REMARK    2  A    between atoms: C_3  and  C_4
REMARK    3  A    between atoms: C_3  and  C_5
REMARK    4  A    between atoms: C_5  and  O_7
REMARK    5  A    between atoms: O_7  and  C_8
REMARK    6  A    between atoms: C_12  and  C_48
REMARK    7  A    between atoms: C_15  and  O_47
REMARK    8  A    between atoms: C_19  and  O_46
REMARK    9  A    between atoms: C_24  and  C_45
REMARK   10  A    between atoms: C_30  and  C_43
REMARK   11  A    between atoms: C_30  and  O_44
REMARK   12  A    between atoms: C_31  and  O_42
REMARK   13  A    between atoms: C_32  and  O_41
REMARK   14  A    between atoms: C_35  and  O_40
REMARK                            x       y       z     vdW  Elec       q    Type
REMARK                         _______ _______ _______ _____ _____    ______ ____
ROOT
ATOM      1  C   UNL     1      -1.750  -0.309   6.165  0.00  0.00    +0.236 C 
ATOM      2  C   UNL     1      -0.351  -0.434   5.544  0.00  0.00    +0.051 C 
ATOM      3  C   UNL     1      -0.322  -1.585   4.540  0.00  0.00    +0.014 C 
ATOM      4  C   UNL     1      -1.436  -1.437   3.502  0.00  0.00    +0.005 C 
ATOM      5  C   UNL     1      -2.799  -1.479   4.266  0.00  0.00    +0.061 C 
ATOM      6  C   UNL     1      -2.740  -0.103   4.991  0.00  0.00    +0.209 C 
ATOM      7  O   UNL     1      -2.055   0.784   4.075  0.00  0.00    -0.338 OA
ATOM      8  C   UNL     1      -1.511   0.006   3.005  0.00  0.00    +0.087 C 
ATOM      9  C   UNL     1      -0.246   0.615   2.434  0.00  0.00    +0.074 C 
ATOM     10  C   UNL     1      -0.722   1.549   1.265  0.00  0.00    +0.102 C 
ATOM     11  C   UNL     1      -0.013   1.086   0.008  0.00  0.00    +0.044 C 
ATOM     12  C   UNL     1       1.431   1.588  -0.003  0.00  0.00    -0.069 C 
ATOM     13  C   UNL     1       3.545   1.495  -1.134  0.00  0.00    -0.075 C 
ATOM     14  C   UNL     1       4.319   0.894  -2.306  0.00  0.00    -0.031 C 
ATOM     15  C   UNL     1       3.694   1.385  -3.616  0.00  0.00    -0.000 C 
ATOM     16  C   UNL     1       2.225   0.959  -3.647  0.00  0.00    -0.012 C 
ATOM     17  C   UNL     1       1.491   1.535  -2.432  0.00  0.00    -0.034 C 
ATOM     18  C   UNL     1       0.039   1.046  -2.478  0.00  0.00    +0.083 C 
ATOM     19  C   UNL     1      -0.719   1.565  -1.255  0.00  0.00    +0.122 C 
ATOM     20  C   UNL     1      -2.143   1.002  -1.257  0.00  0.00    +0.152 C 
ATOM     21  C   UNL     1      -2.905   1.630  -0.096  0.00  0.00    +0.072 C 
ATOM     22  C   UNL     1      -2.238   1.412   1.230  0.00  0.00    +0.103 C 
ATOM     23  C   UNL     1      -2.527   0.030   1.824  0.00  0.00    +0.056 C 
ATOM     24  C   UNL     1      -3.917  -0.110   2.436  0.00  0.00    +0.010 C 
ATOM     25  C   UNL     1      -3.953  -1.427   3.261  0.00  0.00    +0.010 C 
ATOM     26  C   UNL     1      -0.633   1.566  -3.751  0.00  0.00    +0.042 C 
ATOM     27  C   UNL     1       4.242  -0.633  -2.242  0.00  0.00    +0.005 C 
ATOM     28  C   UNL     1      -1.348  -2.459   2.367  0.00  0.00    +0.014 C 
ATOM     29  N   UNL     1       2.137   1.058  -1.182  0.00  0.00    +0.384 N 
ATOM     30  H   UNL     1       2.103   0.032  -1.162  0.00  0.00    -0.081 HD
ENDROOT
BRANCH  22  31
ATOM     31  O   UNL     1      -2.760   2.382   2.140  0.00  0.00    -0.385 OA
ATOM     32  H   UNL     1      -3.718   2.332   2.262  0.00  0.00    +0.210 HD
ENDBRANCH  22  31
BRANCH  20  33
ATOM     33  O   UNL     1      -2.102  -0.417  -1.095  0.00  0.00    -0.389 OA
ATOM     34  H   UNL     1      -2.972  -0.838  -1.087  0.00  0.00    +0.210 HD
ENDBRANCH  20  33
BRANCH  19  35
ATOM     35  O   UNL     1      -0.749   2.993  -1.278  0.00  0.00    -0.383 OA
ATOM     36  H   UNL     1      -1.185   3.365  -2.056  0.00  0.00    +0.210 HD
ENDBRANCH  19  35
BRANCH  18  37
ATOM     37  O   UNL     1       0.017  -0.383  -2.479  0.00  0.00    -0.388 OA
ATOM     38  H   UNL     1       0.477  -0.782  -3.229  0.00  0.00    +0.210 HD
ENDBRANCH  18  37
BRANCH  10  39
ATOM     39  O   UNL     1      -0.360   2.901   1.550  0.00  0.00    -0.385 OA
ATOM     40  H   UNL     1       0.589   3.036   1.683  0.00  0.00    +0.210 HD
ENDBRANCH  10  39
BRANCH   6  41
ATOM     41  O   UNL     1      -4.024   0.380   5.391  0.00  0.00    -0.362 OA
ATOM     42  H   UNL     1      -3.997   1.224   5.862  0.00  0.00    +0.213 HD
ENDBRANCH   6  41
BRANCH   1  43
ATOM     43  O   UNL     1      -2.082  -1.524   6.888  0.00  0.00    -0.453 OA
BRANCH  43  44
ATOM     44  C   UNL     1      -1.790  -1.551   8.204  0.00  0.00    +0.335 C 
ATOM     45  O   UNL     1      -1.272  -0.587   8.732  0.00  0.00    -0.245 OA
BRANCH  44  48
ATOM     46  C   UNL     1      -1.169  -1.579  10.954  0.00  0.00    +0.036 C 
ATOM     47  C   UNL     1      -1.811  -2.775  10.299  0.00  0.00    -0.020 C 
ATOM     48  C   UNL     1      -2.099  -2.747   9.000  0.00  0.00    +0.029 C 
ATOM     49  C   UNL     1      -2.741  -3.943   8.345  0.00  0.00    +0.051 C 
ENDBRANCH  44  48
ENDBRANCH  43  44
ENDBRANCH   1  43
TORSDOF 9
