REMARK  Name = ZINC09580424
REMARK  6 active torsions:
REMARK  status: ('A' for Active; 'I' for Inactive)
REMARK    1  A    between atoms: C_4  and  C_7
REMARK    2  A    between atoms: C_7  and  C_9
REMARK    3  A    between atoms: C_7  and  N_14
REMARK    4  A    between atoms: C_15  and  C_17
REMARK    5  A    between atoms: C_17  and  N_60
REMARK    6  A    between atoms: C_21  and  C_23
REMARK                            x       y       z     vdW  Elec       q    Type
REMARK                         _______ _______ _______ _____ _____    ______ ____
ROOT
ATOM      1  C   UNL     1       3.723   4.983  -3.973  0.00  0.00    +0.019 C 
ENDROOT
BRANCH   1   6
ATOM      2  C   UNL     1       2.447   6.261  -5.614  0.00  0.00    -0.077 C 
ATOM      3  C   UNL     1       0.959   6.300  -6.045  0.00  0.00    -0.020 C 
ATOM      4  C   UNL     1       0.427   4.927  -5.577  0.00  0.00    -0.013 C 
ATOM      5  C   UNL     1       1.400   4.473  -4.473  0.00  0.00    -0.037 C 
ATOM      6  N   UNL     1       2.383   5.547  -4.327  0.00  0.00    +0.390 N 
ATOM      7  H   UNL     1       2.083   6.193  -3.587  0.00  0.00    -0.080 HD
BRANCH   5   8
ATOM      8  C   UNL     1       0.653   4.270  -3.180  0.00  0.00    -0.057 A 
ATOM      9  C   UNL     1       0.297   5.363  -2.412  0.00  0.00    +0.006 A 
ATOM     10  C   UNL     1      -0.389   5.184  -1.223  0.00  0.00    +0.049 A 
ATOM     11  C   UNL     1      -0.719   3.906  -0.807  0.00  0.00    +0.162 A 
ATOM     12  C   UNL     1      -0.362   2.809  -1.579  0.00  0.00    +0.162 A 
ATOM     13  C   UNL     1       0.326   2.991  -2.767  0.00  0.00    +0.051 A 
ATOM     14  O   UNL     1      -0.692   1.553  -1.159  0.00  0.00    -0.488 OA
ATOM     15  C   UNL     1      -0.013   1.086   0.008  0.00  0.00    +0.232 C 
ATOM     16  C   UNL     1      -0.712   1.570   1.269  0.00  0.00    +0.082 C 
ATOM     17  C   UNL     1      -0.662   3.083   1.413  0.00  0.00    +0.232 C 
ATOM     18  O   UNL     1      -1.395   3.716   0.363  0.00  0.00    -0.488 OA
ENDBRANCH   5   8
ENDBRANCH   1   6
BRANCH   1  20
ATOM     19  N   UNL     1       6.056   5.782  -3.786  0.00  0.00    -0.306 N 
ATOM     20  C   UNL     1       4.767   6.066  -4.056  0.00  0.00    +0.197 C 
ATOM     21  O   UNL     1       4.447   7.195  -4.365  0.00  0.00    -0.278 OA
ATOM     22  H   UNL     1       6.312   4.879  -3.538  0.00  0.00    +0.150 HD
BRANCH  19  23
ATOM     23  C   UNL     1       7.071   6.835  -3.866  0.00  0.00    +0.140 C 
BRANCH  23  27
ATOM     24  C   UNL     1      10.369   5.829  -1.345  0.00  0.00    +0.000 A 
ATOM     25  C   UNL     1       9.924   7.136  -1.412  0.00  0.00    +0.000 A 
ATOM     26  C   UNL     1       8.857   7.461  -2.228  0.00  0.00    +0.006 A 
ATOM     27  C   UNL     1       8.235   6.480  -2.977  0.00  0.00    -0.022 A 
ATOM     28  C   UNL     1       8.677   5.172  -2.906  0.00  0.00    +0.006 A 
ATOM     29  C   UNL     1       9.747   4.847  -2.093  0.00  0.00    +0.000 A 
ENDBRANCH  23  27
BRANCH  23  30
ATOM     30  C   UNL     1       7.549   6.964  -5.290  0.00  0.00    +0.014 A 
ATOM     31  C   UNL     1       7.838   8.086  -5.995  0.00  0.00    +0.013 A 
ATOM     32  C   UNL     1       8.265   7.963  -7.303  0.00  0.00    +0.008 A 
ATOM     33  C   UNL     1       8.383   6.726  -7.843  0.00  0.00    +0.045 A 
ATOM     34  S   UNL     1       7.888   5.681  -6.483  0.00  0.00    -0.099 S 
ENDBRANCH  23  30
ENDBRANCH  19  23
ENDBRANCH   1  20
TORSDOF 6
