REMARK  Name = ZINC46643243
REMARK  8 active torsions:
REMARK  status: ('A' for Active; 'I' for Inactive)
REMARK    1  A    between atoms: C_3  and  C_6
REMARK    2  A    between atoms: C_6  and  C_7
REMARK    3  A    between atoms: C_7  and  N_8
REMARK    4  A    between atoms: N_8  and  C_9
REMARK    5  A    between atoms: C_9  and  N_11
REMARK    6  A    between atoms: N_11  and  N_12
REMARK    7  A    between atoms: C_13  and  C_15
REMARK    8  A    between atoms: C_17  and  C_21
REMARK                            x       y       z     vdW  Elec       q    Type
REMARK                         _______ _______ _______ _____ _____    ______ ____
ROOT
ATOM      1  N   UNL     1       8.195   3.427   1.337  0.00  0.00    -0.230 N 
ATOM      2  C   UNL     1       9.463   3.883   1.327  0.00  0.00    +0.280 C 
ATOM      3  O   UNL     1      10.045   4.083   2.375  0.00  0.00    -0.267 OA
ATOM      4  H   UNL     1       7.730   3.267   0.501  0.00  0.00    +0.173 HD
ENDROOT
BRANCH   2   5
ATOM      5  C   UNL     1      10.146   4.139   0.042  0.00  0.00    +0.149 A 
ATOM      6  C   UNL     1      11.466   4.609  -0.124  0.00  0.00    +0.062 A 
ATOM      7  C   UNL     1      11.656   4.691  -1.475  0.00  0.00    +0.066 A 
ATOM      8  N   UNL     1      10.494   4.285  -2.062  0.00  0.00    -0.276 N 
ATOM      9  H   UNL     1      10.340   4.241  -3.019  0.00  0.00    +0.189 HD
ATOM     10  N   UNL     1       9.636   3.966  -1.161  0.00  0.00    -0.169 NA
BRANCH   7  11
ATOM     11  C   UNL     1      12.886   5.135  -2.168  0.00  0.00    -0.000 A 
ATOM     12  C   UNL     1      14.006   5.519  -1.429  0.00  0.00    +0.013 A 
ATOM     13  C   UNL     1      15.150   5.932  -2.080  0.00  0.00    +0.039 A 
ATOM     14  C   UNL     1      15.188   5.966  -3.465  0.00  0.00    +0.123 A 
ATOM     15  C   UNL     1      14.079   5.587  -4.203  0.00  0.00    +0.039 A 
ATOM     16  C   UNL     1      12.932   5.166  -3.562  0.00  0.00    +0.013 A 
ATOM     17  F   UNL     1      16.311   6.372  -4.097  0.00  0.00    -0.205 F 
ENDBRANCH   7  11
ENDBRANCH   2   5
BRANCH   1  18
ATOM     18  N   UNL     1       7.547   3.184   2.555  0.00  0.00    -0.246 N 
ATOM     19  H   UNL     1       8.012   3.344   3.392  0.00  0.00    +0.172 HD
BRANCH  18  20
ATOM     20  C   UNL     1       6.279   2.728   2.565  0.00  0.00    +0.147 C 
ATOM     21  S   UNL     1       5.488   2.431   4.054  0.00  0.00    -0.017 S 
BRANCH  20  22
ATOM     22  N   UNL     1       5.633   2.506   1.403  0.00  0.00    -0.325 N 
ATOM     23  H   UNL     1       6.082   2.674   0.560  0.00  0.00    +0.148 HD
BRANCH  22  24
ATOM     24  C   UNL     1       4.255   2.011   1.414  0.00  0.00    +0.108 C 
BRANCH  24  25
ATOM     25  C   UNL     1       3.761   1.845  -0.024  0.00  0.00    +0.061 C 
BRANCH  25  28
ATOM     26  C   UNL     1      -0.016   1.351   0.009  0.00  0.00    +0.008 A 
ATOM     27  C   UNL     1       1.183   2.038   0.002  0.00  0.00    +0.011 A 
ATOM     28  C   UNL     1       2.343   1.336  -0.013  0.00  0.00    -0.009 A 
ATOM     29  S   UNL     1       1.754  -0.349  -0.017  0.00  0.00    -0.102 S 
ATOM     30  C   UNL     1       0.002  -0.004   0.002  0.00  0.00    +0.045 A 
ENDBRANCH  25  28
ENDBRANCH  24  25
ENDBRANCH  22  24
ENDBRANCH  20  22
ENDBRANCH  18  20
ENDBRANCH   1  18
TORSDOF 8
