REMARK  Name = ZINC02793939
REMARK  11 active torsions:
REMARK  status: ('A' for Active; 'I' for Inactive)
REMARK    1  A    between atoms: C_1  and  C_2
REMARK    2  A    between atoms: C_5  and  N_9
REMARK    3  A    between atoms: C_6  and  C_8
REMARK    4  A    between atoms: N_9  and  C_10
REMARK    5  A    between atoms: C_10  and  N_12
REMARK    6  A    between atoms: N_12  and  N_13
REMARK    7  A    between atoms: C_14  and  C_16
REMARK    8  A    between atoms: C_21  and  C_35
REMARK    9  A    between atoms: C_24  and  C_27
REMARK   10  A    between atoms: C_30  and  C_34
REMARK   11  A    between atoms: C_31  and  C_33
REMARK                            x       y       z     vdW  Elec       q    Type
REMARK                         _______ _______ _______ _____ _____    ______ ____
ROOT
ATOM      1  C   UNL     1       5.845   4.545   0.083  0.00  0.00    +0.150 A 
ATOM      2  C   UNL     1       4.860   4.758   1.073  0.00  0.00    +0.078 A 
ATOM      3  C   UNL     1       3.704   5.044   0.442  0.00  0.00    +0.119 A 
ATOM      4  N   UNL     1       3.936   5.019  -0.904  0.00  0.00    -0.238 N 
ATOM      5  N   UNL     1       5.279   4.704  -1.101  0.00  0.00    -0.164 NA
ATOM      6  C   UNL     1       2.906   5.287  -1.911  0.00  0.00    +0.215 C 
ATOM      7  C   UNL     1       1.748   6.042  -1.249  0.00  0.00    +0.063 C 
ATOM      8  C   UNL     1       1.316   5.316   0.030  0.00  0.00    +0.104 C 
ATOM      9  N   UNL     1       2.442   5.327   0.984  0.00  0.00    -0.322 N 
ATOM     10  H   UNL     1       2.261   5.548   2.046  0.00  0.00    +0.148 HD
ENDROOT
BRANCH   8  11
ATOM     11  C   UNL     1       0.943   3.893  -0.297  0.00  0.00    -0.027 A 
ATOM     12  C   UNL     1       1.931   2.942  -0.469  0.00  0.00    +0.006 A 
ATOM     13  C   UNL     1       1.589   1.637  -0.769  0.00  0.00    +0.004 A 
ATOM     14  C   UNL     1       0.258   1.283  -0.898  0.00  0.00    -0.048 A 
ATOM     15  C   UNL     1      -0.729   2.234  -0.726  0.00  0.00    -0.047 A 
ATOM     16  C   UNL     1      -0.387   3.540  -0.426  0.00  0.00    +0.009 A 
ATOM     17  C   UNL     1      -2.179   1.849  -0.867  0.00  0.00    +0.044 C 
ATOM     18  C   UNL     1      -0.115  -0.140  -1.225  0.00  0.00    +0.044 C 
ENDBRANCH   8  11
BRANCH   1  20
ATOM     19  N   UNL     1       8.102   4.028  -0.711  0.00  0.00    -0.230 N 
ATOM     20  C   UNL     1       7.262   4.205   0.328  0.00  0.00    +0.280 C 
ATOM     21  O   UNL     1       7.670   4.086   1.467  0.00  0.00    -0.267 OA
ATOM     22  H   UNL     1       7.733   4.136  -1.742  0.00  0.00    +0.173 HD
BRANCH  19  23
ATOM     23  N   UNL     1       9.445   3.705  -0.478  0.00  0.00    -0.245 N 
ATOM     24  H   UNL     1       9.814   3.597   0.552  0.00  0.00    +0.172 HD
BRANCH  23  25
ATOM     25  C   UNL     1      10.285   3.528  -1.517  0.00  0.00    +0.151 C 
ATOM     26  S   UNL     1      11.927   3.134  -1.233  0.00  0.00    -0.017 S 
BRANCH  25  27
ATOM     27  N   UNL     1       9.833   3.661  -2.780  0.00  0.00    -0.296 N 
ATOM     28  H   UNL     1       8.761   3.824  -2.966  0.00  0.00    +0.154 HD
BRANCH  27  33
ATOM     29  C   UNL     1      13.457   3.375  -7.135  0.00  0.00    +0.044 C 
ATOM     30  C   UNL     1      12.494   3.451  -5.978  0.00  0.00    -0.050 A 
ATOM     31  C   UNL     1      12.822   4.188  -4.855  0.00  0.00    +0.005 A 
ATOM     32  C   UNL     1      11.940   4.264  -3.795  0.00  0.00    +0.024 A 
ATOM     33  C   UNL     1      10.727   3.590  -3.854  0.00  0.00    +0.036 A 
ATOM     34  C   UNL     1      10.400   2.851  -4.983  0.00  0.00    -0.029 A 
ATOM     35  C   UNL     1      11.285   2.784  -6.042  0.00  0.00    +0.008 A 
ATOM     36  C   UNL     1       9.083   2.123  -5.053  0.00  0.00    +0.045 C 
ENDBRANCH  27  33
ENDBRANCH  25  27
ENDBRANCH  23  25
ENDBRANCH  19  23
ENDBRANCH   1  20
BRANCH   6  37
ATOM     37  C   UNL     1       3.498   6.140  -3.035  0.00  0.00    +0.412 C 
ATOM     38  F   UNL     1       3.972   7.345  -2.505  0.00  0.00    -0.168 F 
ATOM     39  F   UNL     1       4.554   5.449  -3.638  0.00  0.00    -0.168 F 
ATOM     40  F   UNL     1       2.510   6.407  -3.989  0.00  0.00    -0.168 F 
ENDBRANCH   6  37
TORSDOF 7
