REMARK  Name = ZINC37264062
REMARK  14 active torsions:
REMARK  status: ('A' for Active; 'I' for Inactive)
REMARK    1  A    between atoms: C_1  and  C_2
REMARK    2  A    between atoms: C_5  and  N_8
REMARK    3  A    between atoms: C_11  and  C_13
REMARK    4  A    between atoms: C_13  and  C_14
REMARK    5  A    between atoms: C_13  and  C_15
REMARK    6  A    between atoms: C_13  and  C_16
REMARK    7  A    between atoms: C_17  and  C_33
REMARK    8  A    between atoms: N_23  and  C_24
REMARK    9  A    between atoms: C_24  and  C_25
REMARK   10  A    between atoms: N_27  and  C_28
REMARK   11  A    between atoms: C_28  and  C_29
REMARK   12  A    between atoms: C_29  and  C_30
REMARK   13  A    between atoms: C_30  and  O_31
REMARK   14  A    between atoms: O_31  and  C_32
REMARK                            x       y       z     vdW  Elec       q    Type
REMARK                         _______ _______ _______ _____ _____    ______ ____
ROOT
ATOM      1  N   UNL     1       1.417  -5.586   1.069  0.00  0.00    -0.218 N 
ATOM      2  C   UNL     1       1.230  -6.789   1.663  0.00  0.00    +0.136 A 
ATOM      3  C   UNL     1       0.440  -7.537   0.859  0.00  0.00    +0.034 A 
ATOM      4  C   UNL     1       0.125  -6.772  -0.266  0.00  0.00    +0.075 A 
ATOM      5  N   UNL     1       0.704  -5.602  -0.141  0.00  0.00    -0.169 NA
ATOM      6  C   UNL     1       0.001  -8.948   1.155  0.00  0.00    +0.118 C 
ATOM      7  S   UNL     1      -1.265  -8.900   2.474  0.00  0.00    -0.138 S 
ATOM      8  C   UNL     1      -0.588  -7.633   3.599  0.00  0.00    +0.166 C 
ATOM      9  C   UNL     1       0.892  -7.804   3.760  0.00  0.00    +0.231 C 
ATOM     10  O   UNL     1       1.327  -8.463   4.681  0.00  0.00    -0.274 OA
ATOM     11  N   UNL     1       1.735  -7.233   2.894  0.00  0.00    -0.246 N 
ENDROOT
BRANCH   1  16
ATOM     12  C   UNL     1       4.492  -1.271   3.102  0.00  0.00    +0.044 C 
ATOM     13  C   UNL     1       3.675  -2.417   2.562  0.00  0.00    -0.050 A 
ATOM     14  C   UNL     1       3.947  -2.927   1.306  0.00  0.00    +0.005 A 
ATOM     15  C   UNL     1       3.201  -3.977   0.808  0.00  0.00    +0.028 A 
ATOM     16  C   UNL     1       2.176  -4.521   1.571  0.00  0.00    +0.067 A 
ATOM     17  C   UNL     1       1.905  -4.008   2.832  0.00  0.00    +0.028 A 
ATOM     18  C   UNL     1       2.659  -2.961   3.326  0.00  0.00    +0.005 A 
ENDBRANCH   1  16
BRANCH   6  19
ATOM     19  C   UNL     1      -0.582  -9.568  -0.088  0.00  0.00    +0.007 A 
ATOM     20  C   UNL     1      -1.873  -9.603  -0.500  0.00  0.00    +0.012 A 
ATOM     21  C   UNL     1      -2.180 -10.235  -1.691  0.00  0.00    +0.008 A 
ATOM     22  C   UNL     1      -1.182 -10.801  -2.411  0.00  0.00    +0.045 A 
ATOM     23  S   UNL     1       0.249 -10.441  -1.405  0.00  0.00    -0.100 S 
ENDBRANCH   6  19
BRANCH   4  24
ATOM     24  C   UNL     1      -0.736  -7.213  -1.421  0.00  0.00    +0.007 C 
ATOM     25  C   UNL     1      -2.032  -7.826  -0.887  0.00  0.00    +0.017 C 
ATOM     26  C   UNL     1      -1.067  -6.006  -2.300  0.00  0.00    +0.017 C 
ATOM     27  C   UNL     1       0.018  -8.256  -2.249  0.00  0.00    +0.017 C 
ENDBRANCH   4  24
BRANCH  11  28
ATOM     28  C   UNL     1       3.154  -7.075   3.222  0.00  0.00    +0.210 C 
BRANCH  28  29
ATOM     29  C   UNL     1       3.916  -8.289   2.756  0.00  0.00    +0.231 C 
ATOM     30  O   UNL     1       3.349  -9.153   2.121  0.00  0.00    -0.274 OA
ATOM     31  N   UNL     1       5.226  -8.414   3.045  0.00  0.00    -0.314 N 
ATOM     32  H   UNL     1       5.661  -7.763   3.618  0.00  0.00    +0.149 HD
BRANCH  31  33
ATOM     33  C   UNL     1       5.994  -9.534   2.494  0.00  0.00    +0.106 C 
BRANCH  33  34
ATOM     34  C   UNL     1       7.413  -9.509   3.066  0.00  0.00    +0.047 C 
BRANCH  34  35
ATOM     35  C   UNL     1       8.215 -10.678   2.491  0.00  0.00    +0.161 C 
BRANCH  35  36
ATOM     36  O   UNL     1       9.540 -10.656   3.025  0.00  0.00    -0.383 OA
ATOM     37  C   UNL     1      10.377 -11.712   2.549  0.00  0.00    +0.193 C 
ENDBRANCH  35  36
ENDBRANCH  34  35
ENDBRANCH  33  34
ENDBRANCH  31  33
ENDBRANCH  28  29
ENDBRANCH  11  28
TORSDOF 9
