REMARK  Name = ZINC39518356
REMARK  10 active torsions:
REMARK  status: ('A' for Active; 'I' for Inactive)
REMARK    1  A    between atoms: C_1  and  C_2
REMARK    2  A    between atoms: C_2  and  C_3
REMARK    3  A    between atoms: C_3  and  C_4
REMARK    4  A    between atoms: C_6  and  C_10
REMARK    5  A    between atoms: C_10  and  N_11
REMARK    6  A    between atoms: N_11  and  C_12
REMARK    7  A    between atoms: C_13  and  C_15
REMARK    8  A    between atoms: C_15  and  C_16
REMARK    9  A    between atoms: N_23  and  C_24
REMARK   10  A    between atoms: C_24  and  C_25
REMARK                            x       y       z     vdW  Elec       q    Type
REMARK                         _______ _______ _______ _____ _____    ______ ____
ROOT
ATOM      1  C   UNL     1      -0.485  -7.684   4.351  0.00  0.00    +0.028 C 
ATOM      2  C   UNL     1      -0.876  -9.123   4.534  0.00  0.00    +0.200 C 
ATOM      3  O   UNL     1      -0.015  -9.974   4.456  0.00  0.00    -0.278 OA
ATOM      4  N   UNL     1      -2.135  -9.504   4.780  0.00  0.00    -0.318 N 
ATOM      5  C   UNL     1      -3.242  -8.555   4.864  0.00  0.00    +0.085 C 
ATOM      6  C   UNL     1      -2.700  -7.139   5.071  0.00  0.00    -0.058 C 
ATOM      7  N   UNL     1      -1.673  -6.874   4.052  0.00  0.00    +0.391 N 
ATOM      8  H   UNL     1      -2.319 -10.447   4.907  0.00  0.00    +0.149 HD
ATOM      9  H   UNL     1      -2.029  -7.120   3.140  0.00  0.00    -0.080 HD
ENDROOT
BRANCH   1  10
ATOM     10  C   UNL     1       0.509  -7.571   3.194  0.00  0.00    +0.090 C 
BRANCH  10  13
ATOM     11  N   UNL     1       0.527  -8.003   0.759  0.00  0.00    -0.302 N 
ATOM     12  C   UNL     1       1.845  -7.365   0.703  0.00  0.00    +0.132 C 
ATOM     13  C   UNL     1      -0.121  -8.109   1.935  0.00  0.00    +0.214 C 
ATOM     14  O   UNL     1      -1.212  -8.638   1.982  0.00  0.00    -0.276 OA
BRANCH  11  15
ATOM     15  C   UNL     1      -0.086  -8.526  -0.465  0.00  0.00    +0.140 C 
BRANCH  15  18
ATOM     16  C   UNL     1      -1.098 -11.593  -1.325  0.00  0.00    +0.061 C 
ATOM     17  C   UNL     1      -0.387 -10.594  -1.853  0.00  0.00    +0.028 C 
ATOM     18  C   UNL     1       0.330  -9.986  -0.660  0.00  0.00    +0.170 C 
ATOM     19  N   UNL     1      -0.134 -10.818   0.464  0.00  0.00    -0.178 NA
ATOM     20  N   UNL     1      -0.911 -11.662   0.011  0.00  0.00    -0.159 NA
BRANCH  16  21
ATOM     21  C   UNL     1      -1.992 -12.514  -2.113  0.00  0.00    +0.057 C 
BRANCH  21  23
ATOM     22  C   UNL     1      -2.131 -14.722  -3.275  0.00  0.00    +0.004 C 
ATOM     23  C   UNL     1      -1.223 -13.786  -2.475  0.00  0.00    +0.003 C 
ENDBRANCH  21  23
ENDBRANCH  16  21
ENDBRANCH  15  18
ENDBRANCH  11  15
ENDBRANCH  10  13
ENDBRANCH   1  10
BRANCH   7  24
ATOM     24  C   UNL     1      -1.316  -5.449   4.076  0.00  0.00    -0.041 C 
BRANCH  24  25
ATOM     25  C   UNL     1      -2.509  -4.626   3.663  0.00  0.00    -0.056 A 
ATOM     26  C   UNL     1      -2.693  -4.294   2.356  0.00  0.00    +0.002 A 
ATOM     27  C   UNL     1      -3.789  -3.534   1.956  0.00  0.00    +0.001 A 
ATOM     28  C   UNL     1      -4.709  -3.100   2.861  0.00  0.00    +0.008 A 
ATOM     29  C   UNL     1      -4.553  -3.423   4.219  0.00  0.00    -0.018 A 
ATOM     30  C   UNL     1      -3.441  -4.202   4.625  0.00  0.00    -0.017 A 
ATOM     31  C   UNL     1      -3.289  -4.529   5.984  0.00  0.00    +0.009 A 
ATOM     32  C   UNL     1      -4.211  -4.101   6.888  0.00  0.00    +0.001 A 
ATOM     33  C   UNL     1      -5.309  -3.340   6.487  0.00  0.00    +0.001 A 
ATOM     34  C   UNL     1      -5.482  -2.992   5.183  0.00  0.00    +0.008 A 
ENDBRANCH  24  25
ENDBRANCH   7  24
TORSDOF 8
