REMARK  Name = ZINC06507131
REMARK  9 active torsions:
REMARK  status: ('A' for Active; 'I' for Inactive)
REMARK    1  A    between atoms: C_1  and  C_2
REMARK    2  A    between atoms: C_2  and  C_3
REMARK    3  A    between atoms: C_2  and  C_4
REMARK    4  A    between atoms: C_2  and  C_5
REMARK    5  A    between atoms: C_12  and  N_27
REMARK    6  A    between atoms: C_13  and  C_25
REMARK    7  A    between atoms: C_14  and  C_16
REMARK    8  A    between atoms: C_18  and  O_23
REMARK    9  A    between atoms: O_23  and  C_24
REMARK                            x       y       z     vdW  Elec       q    Type
REMARK                         _______ _______ _______ _____ _____    ______ ____
ROOT
ATOM      1  C   UNL     1       1.050  -0.406  -1.552  0.00  0.00    +0.076 A 
ATOM      2  C   UNL     1       1.018  -1.733  -1.957  0.00  0.00    +0.050 A 
ATOM      3  C   UNL     1       1.667  -1.826  -3.157  0.00  0.00    +0.222 A 
ATOM      4  N   UNL     1       2.091  -0.595  -3.485  0.00  0.00    -0.246 N 
ATOM      5  H   UNL     1       2.584  -0.354  -4.285  0.00  0.00    +0.192 HD
ATOM      6  N   UNL     1       1.688   0.284  -2.467  0.00  0.00    -0.175 NA
ATOM      7  O   UNL     1       1.808  -2.998  -3.825  0.00  0.00    -0.423 OA
ATOM      8  C   UNL     1       1.056  -4.041  -3.420  0.00  0.00    +0.200 C 
ATOM      9  C   UNL     1       0.379  -4.072  -2.251  0.00  0.00    +0.098 C 
ATOM     10  C   UNL     1       0.404  -2.926  -1.271  0.00  0.00    +0.104 C 
ENDROOT
BRANCH  10  11
ATOM     11  C   UNL     1       1.232  -3.303  -0.070  0.00  0.00    +0.004 A 
ATOM     12  C   UNL     1       2.583  -3.556  -0.214  0.00  0.00    +0.053 A 
ATOM     13  C   UNL     1       3.345  -3.902   0.892  0.00  0.00    +0.121 A 
ATOM     14  C   UNL     1       2.750  -3.994   2.142  0.00  0.00    +0.048 A 
ATOM     15  C   UNL     1       1.400  -3.741   2.283  0.00  0.00    +0.042 A 
ATOM     16  C   UNL     1       0.641  -3.390   1.179  0.00  0.00    +0.128 A 
ATOM     17  F   UNL     1      -0.679  -3.137   1.320  0.00  0.00    -0.205 F 
BRANCH  13  18
ATOM     18  O   UNL     1       4.674  -4.152   0.751  0.00  0.00    -0.495 OA
ATOM     19  C   UNL     1       5.397  -4.503   1.933  0.00  0.00    +0.277 C 
ENDBRANCH  13  18
ENDBRANCH  10  11
BRANCH   1  21
ATOM     20  C   UNL     1       0.402   1.674  -0.367  0.00  0.00    +0.017 C 
ATOM     21  C   UNL     1       0.451   0.147  -0.284  0.00  0.00    +0.007 C 
ATOM     22  C   UNL     1       1.309  -0.272   0.910  0.00  0.00    +0.017 C 
ATOM     23  C   UNL     1      -0.968  -0.400  -0.110  0.00  0.00    +0.017 C 
ENDBRANCH   1  21
BRANCH   8  24
ATOM     24  N   UNL     1       0.974  -5.136  -4.244  0.00  0.00    -0.328 N 
ATOM     25  H   UNL     1       1.449  -5.144  -5.090  0.00  0.00    +0.145 HD
ATOM     26  H   UNL     1       0.440  -5.902  -3.981  0.00  0.00    +0.145 HD
ENDBRANCH   8  24
BRANCH   9  27
ATOM     27  C   UNL     1      -0.392  -5.236  -1.932  0.00  0.00    +0.101 C 
ATOM     28  N   UNL     1      -1.004  -6.159  -1.678  0.00  0.00    -0.191 NA
ENDBRANCH   9  27
TORSDOF 5
