REMARK  Name = ZINC59293494
REMARK  7 active torsions:
REMARK  status: ('A' for Active; 'I' for Inactive)
REMARK    1  A    between atoms: C_4  and  C_7
REMARK    2  A    between atoms: C_7  and  N_8
REMARK    3  A    between atoms: C_9  and  C_11
REMARK    4  A    between atoms: C_17  and  C_18
REMARK    5  A    between atoms: C_24  and  N_35
REMARK    6  A    between atoms: C_25  and  C_33
REMARK    7  A    between atoms: C_26  and  C_28
REMARK                            x       y       z     vdW  Elec       q    Type
REMARK                         _______ _______ _______ _____ _____    ______ ____
ROOT
ATOM      1  C   UNL     1       5.729  -1.841   2.886  0.00  0.00    +0.058 C 
ATOM      2  C   UNL     1       6.877  -2.538   3.143  0.00  0.00    +0.099 A 
ATOM      3  N   UNL     1       7.360  -2.806   4.410  0.00  0.00    -0.257 N 
ATOM      4  C   UNL     1       8.507  -3.507   4.495  0.00  0.00    +0.271 A 
ATOM      5  O   UNL     1       8.980  -3.773   5.585  0.00  0.00    -0.266 OA
ATOM      6  C   UNL     1       9.161  -3.935   3.312  0.00  0.00    +0.080 A 
ATOM      7  C   UNL     1      10.316  -4.646   3.172  0.00  0.00    +0.035 C 
ATOM      8  S   UNL     1       8.068  -3.293   2.054  0.00  0.00    -0.065 S 
ATOM      9  C   UNL     1       6.646  -2.343   5.520  0.00  0.00    +0.119 C 
ATOM     10  C   UNL     1       5.496  -1.639   5.435  0.00  0.00    +0.080 C 
ATOM     11  C   UNL     1       4.932  -1.319   4.066  0.00  0.00    +0.107 C 
ENDROOT
BRANCH   7  12
ATOM     12  C   UNL     1      10.796  -4.969   1.882  0.00  0.00    +0.013 A 
ATOM     13  C   UNL     1      11.935  -5.682   1.523  0.00  0.00    +0.015 A 
ATOM     14  C   UNL     1      12.139  -5.836   0.172  0.00  0.00    +0.008 A 
ATOM     15  C   UNL     1      11.245  -5.300  -0.695  0.00  0.00    +0.046 A 
ATOM     16  S   UNL     1      10.094  -4.576   0.291  0.00  0.00    -0.097 S 
ENDBRANCH   7  12
BRANCH  11  17
ATOM     17  C   UNL     1       4.823   0.179   3.936  0.00  0.00    +0.003 A 
ATOM     18  C   UNL     1       3.712   0.949   3.835  0.00  0.00    +0.012 A 
ATOM     19  C   UNL     1       3.854   2.319   3.725  0.00  0.00    +0.008 A 
ATOM     20  C   UNL     1       5.101   2.853   3.719  0.00  0.00    +0.045 A 
ATOM     21  S   UNL     1       6.125   1.399   3.881  0.00  0.00    -0.101 S 
ENDBRANCH  11  17
BRANCH   1  23
ATOM     22  N   UNL     1       4.173  -0.916   1.337  0.00  0.00    -0.307 N 
ATOM     23  C   UNL     1       5.305  -1.611   1.569  0.00  0.00    +0.244 C 
ATOM     24  O   UNL     1       5.959  -2.039   0.634  0.00  0.00    -0.270 OA
ATOM     25  H   UNL     1       3.652  -0.576   2.082  0.00  0.00    +0.149 HD
BRANCH  22  26
ATOM     26  C   UNL     1       3.730  -0.676  -0.038  0.00  0.00    +0.139 C 
BRANCH  26  30
ATOM     27  C   UNL     1       0.098   1.573   0.007  0.00  0.00    +0.000 A 
ATOM     28  C   UNL     1       1.315   2.227  -0.024  0.00  0.00    +0.000 A 
ATOM     29  C   UNL     1       2.491   1.499  -0.038  0.00  0.00    +0.005 A 
ATOM     30  C   UNL     1       2.449   0.118  -0.021  0.00  0.00    -0.030 A 
ATOM     31  C   UNL     1       1.231  -0.536   0.011  0.00  0.00    +0.005 A 
ATOM     32  C   UNL     1       0.056   0.191   0.024  0.00  0.00    +0.000 A 
ENDBRANCH  26  30
ENDBRANCH  22  26
ENDBRANCH   1  23
BRANCH   9  33
ATOM     33  N   UNL     1       7.144  -2.620   6.771  0.00  0.00    -0.343 N 
ATOM     34  H   UNL     1       8.098  -2.743   6.897  0.00  0.00    +0.144 HD
ATOM     35  H   UNL     1       6.541  -2.692   7.527  0.00  0.00    +0.144 HD
ENDBRANCH   9  33
BRANCH  10  36
ATOM     36  C   UNL     1       4.823  -1.200   6.620  0.00  0.00    +0.099 C 
ATOM     37  N   UNL     1       4.289  -0.851   7.560  0.00  0.00    -0.191 NA
ENDBRANCH  10  36
TORSDOF 7
