REMARK  Name = ZINC20356904
REMARK  11 active torsions:
REMARK  status: ('A' for Active; 'I' for Inactive)
REMARK    1  A    between atoms: C_1  and  C_2
REMARK    2  A    between atoms: C_4  and  N_7
REMARK    3  A    between atoms: N_7  and  S_8
REMARK    4  A    between atoms: S_8  and  C_11
REMARK    5  A    between atoms: C_14  and  N_17
REMARK    6  A    between atoms: N_17  and  C_18
REMARK    7  A    between atoms: C_18  and  N_20
REMARK    8  A    between atoms: N_20  and  C_21
REMARK    9  A    between atoms: C_22  and  C_31
REMARK   10  A    between atoms: C_31  and  O_33
REMARK   11  A    between atoms: O_33  and  C_34
REMARK                            x       y       z     vdW  Elec       q    Type
REMARK                         _______ _______ _______ _____ _____    ______ ____
ROOT
ATOM      1  N   UNL     1      -3.431   2.885   0.035  0.00  0.00    -0.297 N 
ATOM      2  H   UNL     1      -3.250   3.945  -0.197  0.00  0.00    +0.154 HD
ENDROOT
BRANCH   1   6
ATOM      3  C   UNL     1      -7.278   1.315  -0.266  0.00  0.00    +0.111 A 
ATOM      4  C   UNL     1      -6.500   1.027   0.840  0.00  0.00    +0.031 A 
ATOM      5  C   UNL     1      -5.224   1.546   0.943  0.00  0.00    +0.025 A 
ATOM      6  C   UNL     1      -4.723   2.358  -0.066  0.00  0.00    +0.033 A 
ATOM      7  C   UNL     1      -5.509   2.650  -1.173  0.00  0.00    +0.025 A 
ATOM      8  C   UNL     1      -6.782   2.123  -1.273  0.00  0.00    +0.031 A 
BRANCH   3   9
ATOM      9  S   UNL     1      -8.905   0.650  -0.394  0.00  0.00    +0.093 S 
ATOM     10  O   UNL     1      -9.225   0.623  -1.778  0.00  0.00    -0.148 OA
ATOM     11  O   UNL     1      -8.932  -0.516   0.417  0.00  0.00    -0.148 OA
BRANCH   9  12
ATOM     12  N   UNL     1      -9.935   1.740   0.308  0.00  0.00    -0.074 NA
BRANCH  12  16
ATOM     13  C   UNL     1     -11.399   6.408  -0.634  0.00  0.00    +0.089 C 
ATOM     14  C   UNL     1     -10.749   5.048  -0.660  0.00  0.00    +0.136 A 
ATOM     15  C   UNL     1     -10.942   4.044   0.224  0.00  0.00    +0.094 A 
ATOM     16  C   UNL     1     -10.102   3.002  -0.254  0.00  0.00    +0.205 A 
ATOM     17  N   UNL     1      -9.513   3.469  -1.324  0.00  0.00    -0.060 NA
ATOM     18  O   UNL     1      -9.866   4.600  -1.564  0.00  0.00    -0.358 OA
ENDBRANCH  12  16
ENDBRANCH   9  12
ENDBRANCH   3   9
ENDBRANCH   1   6
BRANCH   1  19
ATOM     19  C   UNL     1      -2.409   2.095   0.418  0.00  0.00    +0.139 C 
ATOM     20  S   UNL     1      -2.707   0.474   0.883  0.00  0.00    -0.018 S 
BRANCH  19  21
ATOM     21  N   UNL     1      -1.151   2.580   0.433  0.00  0.00    -0.291 N 
ATOM     22  H   UNL     1      -0.960   3.621   0.134  0.00  0.00    +0.154 HD
BRANCH  21  23
ATOM     23  C   UNL     1      -0.101   1.768   0.826  0.00  0.00    +0.086 A 
ATOM     24  C   UNL     1       1.249   2.080   0.902  0.00  0.00    +0.091 A 
ATOM     25  C   UNL     1       2.162   1.035   1.348  0.00  0.00    -0.021 A 
ATOM     26  C   UNL     1       1.576  -0.147   1.637  0.00  0.00    -0.004 A 
ATOM     27  S   UNL     1      -0.151   0.113   1.335  0.00  0.00    -0.077 S 
ATOM     28  C   UNL     1       2.239  -1.408   2.095  0.00  0.00    +0.043 C 
ATOM     29  C   UNL     1       3.191  -1.088   3.256  0.00  0.00    +0.005 C 
ATOM     30  C   UNL     1       4.561  -0.753   2.676  0.00  0.00    +0.001 C 
ATOM     31  C   UNL     1       4.405  -0.060   1.323  0.00  0.00    +0.005 C 
ATOM     32  C   UNL     1       3.662   1.261   1.485  0.00  0.00    +0.037 C 
BRANCH  24  33
ATOM     33  C   UNL     1       1.740   3.412   0.546  0.00  0.00    +0.342 C 
ATOM     34  O   UNL     1       1.815   4.279   1.396  0.00  0.00    -0.245 OA
BRANCH  33  35
ATOM     35  O   UNL     1       2.108   3.678  -0.724  0.00  0.00    -0.464 OA
ATOM     36  C   UNL     1       2.585   5.021  -1.005  0.00  0.00    +0.280 C 
ENDBRANCH  33  35
ENDBRANCH  24  33
ENDBRANCH  21  23
ENDBRANCH  19  21
ENDBRANCH   1  19
TORSDOF 9
