REMARK  Name = ZINC00718038
REMARK  6 active torsions:
REMARK  status: ('A' for Active; 'I' for Inactive)
REMARK    1  A    between atoms: C_1  and  C_2
REMARK    2  A    between atoms: C_2  and  C_3
REMARK    3  A    between atoms: C_23  and  C_26
REMARK    4  A    between atoms: C_26  and  C_27
REMARK    5  A    between atoms: C_26  and  C_28
REMARK    6  A    between atoms: C_26  and  C_29
REMARK                            x       y       z     vdW  Elec       q    Type
REMARK                         _______ _______ _______ _____ _____    ______ ____
ROOT
ATOM      1  C   UNL     1       0.002  -0.004   0.002  0.00  0.00    +0.218 C 
ATOM      2  O   UNL     1      -1.040  -0.625   0.009  0.00  0.00    -0.275 OA
ATOM      3  N   UNL     1      -0.016   1.344   0.009  0.00  0.00    -0.270 N 
ATOM      4  C   UNL     1      -1.228   2.021   0.019  0.00  0.00    +0.140 A 
ATOM      5  C   UNL     1      -1.281   3.418   0.003  0.00  0.00    +0.107 A 
ATOM      6  C   UNL     1      -2.538   4.052   0.177  0.00  0.00    +0.008 A 
ATOM      7  C   UNL     1      -2.538   5.511   0.385  0.00  0.00    +0.026 A 
ATOM      8  C   UNL     1      -3.658   6.206   0.831  0.00  0.00    +0.012 A 
ATOM      9  C   UNL     1      -3.628   7.580   0.962  0.00  0.00    +0.001 A 
ATOM     10  C   UNL     1      -2.470   8.283   0.676  0.00  0.00    +0.004 A 
ATOM     11  C   UNL     1      -1.336   7.609   0.277  0.00  0.00    +0.047 A 
ATOM     12  C   UNL     1      -1.352   6.226   0.140  0.00  0.00    +0.140 A 
ATOM     13  O   UNL     1      -0.208   5.592  -0.195  0.00  0.00    -0.422 OA
ATOM     14  C   UNL     1      -0.101   4.253  -0.226  0.00  0.00    +0.348 A 
ATOM     15  O   UNL     1       0.984   3.758  -0.461  0.00  0.00    -0.244 OA
ATOM     16  C   UNL     1      -3.686   3.261   0.133  0.00  0.00    -0.017 A 
ATOM     17  C   UNL     1      -3.555   1.892   0.052  0.00  0.00    +0.047 A 
ATOM     18  N   UNL     1      -2.351   1.327   0.020  0.00  0.00    -0.236 NA
ATOM     19  C   UNL     1      -4.732   0.952  -0.015  0.00  0.00    +0.056 C 
ATOM     20  C   UNL     1      -6.039   1.662   0.319  0.00  0.00    +0.010 C 
ATOM     21  C   UNL     1      -6.088   2.978  -0.467  0.00  0.00    -0.001 C 
ATOM     22  C   UNL     1      -5.041   3.916   0.136  0.00  0.00    +0.041 C 
ATOM     23  H   UNL     1       0.817   1.840   0.004  0.00  0.00    +0.156 HD
ENDROOT
BRANCH  21  24
ATOM     24  C   UNL     1      -7.477   3.605  -0.340  0.00  0.00    -0.035 C 
ATOM     25  C   UNL     1      -7.503   4.941  -1.086  0.00  0.00    +0.011 C 
ATOM     26  C   UNL     1      -8.520   2.663  -0.945  0.00  0.00    +0.011 C 
ATOM     27  C   UNL     1      -7.798   3.840   1.137  0.00  0.00    +0.011 C 
ENDBRANCH  21  24
BRANCH   1  29
ATOM     28  C   UNL     1       1.058  -2.248  -0.020  0.00  0.00    +0.013 C 
ATOM     29  C   UNL     1       1.317  -0.740  -0.015  0.00  0.00    +0.093 C 
ENDBRANCH   1  29
TORSDOF 2
