REMARK  Name = ZINC62368229
REMARK  3 active torsions:
REMARK  status: ('A' for Active; 'I' for Inactive)
REMARK    1  A    between atoms: C_6  and  N_7
REMARK    2  A    between atoms: N_10  and  C_11
REMARK    3  A    between atoms: C_21  and  C_23
REMARK                            x       y       z     vdW  Elec       q    Type
REMARK                         _______ _______ _______ _____ _____    ______ ____
ROOT
ATOM      1  C   UNL     1      -0.163   0.370   0.570  0.00  0.00    +0.025 A 
ATOM      2  C   UNL     1       0.786   1.357   0.394  0.00  0.00    +0.025 A 
ATOM      3  C   UNL     1       2.119   1.016   0.196  0.00  0.00    +0.040 A 
ATOM      4  C   UNL     1       2.502  -0.316   0.175  0.00  0.00    -0.024 A 
ATOM      5  C   UNL     1       1.548  -1.305   0.349  0.00  0.00    +0.028 A 
ATOM      6  C   UNL     1       0.218  -0.966   0.546  0.00  0.00    +0.035 A 
ATOM      7  C   UNL     1       3.939  -0.719  -0.027  0.00  0.00    +0.038 C 
ATOM      8  C   UNL     1       4.724   0.413  -0.688  0.00  0.00    +0.024 C 
ATOM      9  C   UNL     1       4.493   1.707   0.104  0.00  0.00    +0.114 C 
ATOM     10  N   UNL     1       3.064   2.038   0.015  0.00  0.00    -0.271 N 
ATOM     11  C   UNL     1       2.668   3.301  -0.237  0.00  0.00    +0.223 C 
ATOM     12  O   UNL     1       1.487   3.576  -0.245  0.00  0.00    -0.275 OA
ENDROOT
BRANCH   6  13
ATOM     13  N   UNL     1      -0.743  -1.971   0.723  0.00  0.00    -0.269 N 
ATOM     14  C   UNL     1      -1.997  -1.792   0.264  0.00  0.00    +0.304 C 
ATOM     15  O   UNL     1      -2.272  -0.800  -0.384  0.00  0.00    -0.253 OA
ATOM     16  N   UNL     1      -2.947  -2.712   0.522  0.00  0.00    -0.296 N 
ATOM     17  H   UNL     1      -0.504  -2.795   1.175  0.00  0.00    +0.156 HD
ATOM     18  H   UNL     1      -2.727  -3.504   1.039  0.00  0.00    +0.151 HD
BRANCH  16  19
ATOM     19  C   UNL     1      -4.310  -2.518   0.024  0.00  0.00    +0.079 C 
ATOM     20  C   UNL     1      -5.100  -1.655   1.013  0.00  0.00    +0.050 C 
ATOM     21  C   UNL     1      -6.544  -1.524   0.523  0.00  0.00    +0.161 C 
ATOM     22  O   UNL     1      -7.120  -2.824   0.384  0.00  0.00    -0.380 OA
ATOM     23  C   UNL     1      -6.451  -3.659  -0.564  0.00  0.00    +0.161 C 
ATOM     24  C   UNL     1      -5.003  -3.877  -0.117  0.00  0.00    +0.050 C 
ENDBRANCH  16  19
ENDBRANCH   6  13
BRANCH  11  25
ATOM     25  C   UNL     1       3.693   4.372  -0.510  0.00  0.00    +0.076 C 
ATOM     26  C   UNL     1       3.864   5.471   0.541  0.00  0.00    +0.013 C 
ATOM     27  C   UNL     1       3.180   5.786  -0.791  0.00  0.00    +0.013 C 
ENDBRANCH  11  25
TORSDOF 3
