REMARK  Name = ZINC39481490
REMARK  12 active torsions:
REMARK  status: ('A' for Active; 'I' for Inactive)
REMARK    1  A    between atoms: C_1  and  C_2
REMARK    2  A    between atoms: C_2  and  C_3
REMARK    3  A    between atoms: C_3  and  C_4
REMARK    4  A    between atoms: C_7  and  N_23
REMARK    5  A    between atoms: C_8  and  N_10
REMARK    6  A    between atoms: C_14  and  S_17
REMARK    7  A    between atoms: S_17  and  C_20
REMARK    8  A    between atoms: C_20  and  C_21
REMARK    9  A    between atoms: C_20  and  C_22
REMARK   10  A    between atoms: N_23  and  S_24
REMARK   11  A    between atoms: S_24  and  C_27
REMARK   12  A    between atoms: C_32  and  O_33
REMARK                            x       y       z     vdW  Elec       q    Type
REMARK                         _______ _______ _______ _____ _____    ______ ____
ROOT
ATOM      1  C   UNL     1      -0.198  -2.004  -1.281  0.00  0.00    -0.046 A 
ATOM      2  C   UNL     1       1.033  -2.420  -0.807  0.00  0.00    +0.005 A 
ATOM      3  C   UNL     1       1.376  -3.759  -0.844  0.00  0.00    +0.026 A 
ATOM      4  C   UNL     1       0.485  -4.689  -1.357  0.00  0.00    +0.069 A 
ATOM      5  C   UNL     1      -0.757  -4.270  -1.834  0.00  0.00    +0.053 A 
ATOM      6  C   UNL     1      -1.095  -2.926  -1.789  0.00  0.00    +0.028 A 
ENDROOT
BRANCH   5   7
ATOM      7  N   UNL     1      -1.662  -5.204  -2.354  0.00  0.00    -0.324 N 
ATOM      8  C   UNL     1      -2.649  -5.862  -1.485  0.00  0.00    +0.120 C 
ATOM      9  C   UNL     1      -4.035  -5.712  -2.122  0.00  0.00    +0.101 C 
ATOM     10  N   UNL     1      -3.992  -6.211  -3.503  0.00  0.00    -0.293 NA
ATOM     11  C   UNL     1      -3.074  -5.415  -4.329  0.00  0.00    +0.215 C 
ATOM     12  C   UNL     1      -1.653  -5.548  -3.784  0.00  0.00    +0.147 C 
ATOM     13  H   UNL     1      -3.743  -7.189  -3.527  0.00  0.00    +0.124 HD
BRANCH  11  14
ATOM     14  S   UNL     1      -3.127  -6.013  -6.041  0.00  0.00    -0.012 S 
ATOM     15  O   UNL     1      -2.249  -5.215  -6.823  0.00  0.00    -0.173 OA
ATOM     16  O   UNL     1      -2.954  -7.423  -6.030  0.00  0.00    -0.173 OA
BRANCH  14  17
ATOM     17  C   UNL     1      -4.832  -5.649  -6.540  0.00  0.00    +0.126 C 
ATOM     18  C   UNL     1      -5.070  -4.138  -6.478  0.00  0.00    +0.031 C 
ATOM     19  C   UNL     1      -5.062  -6.143  -7.970  0.00  0.00    +0.031 C 
ENDBRANCH  14  17
ENDBRANCH  11  14
ENDBRANCH   5   7
BRANCH   4  20
ATOM     20  N   UNL     1       0.830  -6.046  -1.396  0.00  0.00    -0.214 N 
ATOM     21  H   UNL     1       0.533  -6.601  -2.134  0.00  0.00    +0.174 HD
BRANCH  20  22
ATOM     22  S   UNL     1       1.746  -6.702  -0.182  0.00  0.00    +0.076 S 
ATOM     23  O   UNL     1       1.192  -6.238   1.041  0.00  0.00    -0.150 OA
ATOM     24  O   UNL     1       1.884  -8.085  -0.480  0.00  0.00    -0.150 OA
BRANCH  22  25
ATOM     25  C   UNL     1       3.356  -5.997  -0.306  0.00  0.00    +0.150 A 
ATOM     26  C   UNL     1       3.848  -5.212   0.719  0.00  0.00    +0.032 A 
ATOM     27  C   UNL     1       5.111  -4.658   0.623  0.00  0.00    +0.002 A 
ATOM     28  C   UNL     1       5.886  -4.889  -0.499  0.00  0.00    +0.004 A 
ATOM     29  C   UNL     1       5.399  -5.674  -1.526  0.00  0.00    +0.047 A 
ATOM     30  C   UNL     1       4.134  -6.235  -1.429  0.00  0.00    +0.143 A 
BRANCH  30  31
ATOM     31  O   UNL     1       3.655  -7.012  -2.436  0.00  0.00    -0.505 OA
ATOM     32  H   UNL     1       3.242  -6.515  -3.155  0.00  0.00    +0.292 HD
ENDBRANCH  30  31
ENDBRANCH  22  25
ENDBRANCH  20  22
ENDBRANCH   4  20
BRANCH   1  33
ATOM     33  C   UNL     1      -0.565  -0.543  -1.237  0.00  0.00    +0.035 C 
BRANCH  33  35
ATOM     34  C   UNL     1      -1.622   1.254   0.139  0.00  0.00    +0.004 C 
ATOM     35  C   UNL     1      -1.250  -0.229   0.095  0.00  0.00    +0.001 C 
ENDBRANCH  33  35
ENDBRANCH   1  33
TORSDOF 9
