REMARK  Name = ZINC39867466
REMARK  8 active torsions:
REMARK  status: ('A' for Active; 'I' for Inactive)
REMARK    1  A    between atoms: C_1  and  C_2
REMARK    2  A    between atoms: C_5  and  C_8
REMARK    3  A    between atoms: N_10  and  N_11
REMARK    4  A    between atoms: C_12  and  C_14
REMARK    5  A    between atoms: C_14  and  C_15
REMARK    6  A    between atoms: C_15  and  C_16
REMARK    7  A    between atoms: C_16  and  C_17
REMARK    8  A    between atoms: C_25  and  C_27
REMARK                            x       y       z     vdW  Elec       q    Type
REMARK                         _______ _______ _______ _____ _____    ______ ____
ROOT
ATOM      1  C   UNL     1       0.175 -11.077   5.139  0.00  0.00    -0.013 A 
ATOM      2  C   UNL     1      -0.991 -11.387   5.963  0.00  0.00    +0.005 A 
ATOM      3  C   UNL     1      -2.371 -11.327   5.748  0.00  0.00    +0.030 A 
ATOM      4  C   UNL     1      -3.230 -11.696   6.746  0.00  0.00    +0.042 A 
ATOM      5  C   UNL     1      -2.741 -12.131   7.972  0.00  0.00    +0.022 A 
ATOM      6  C   UNL     1      -1.385 -12.198   8.204  0.00  0.00    +0.027 A 
ATOM      7  C   UNL     1      -0.492 -11.828   7.204  0.00  0.00    +0.047 A 
ATOM      8  N   UNL     1       0.882 -11.787   7.135  0.00  0.00    -0.353 N 
ATOM      9  C   UNL     1       1.273 -11.341   5.892  0.00  0.00    +0.069 A 
ATOM     10  H   UNL     1       1.485 -12.037   7.852  0.00  0.00    +0.166 HD
ATOM     11 CL   UNL     1      -4.944 -11.620   6.479  0.00  0.00    -0.084 Cl
ENDROOT
BRANCH   9  12
ATOM     12  C   UNL     1       2.671 -11.172   5.447  0.00  0.00    +0.088 A 
ATOM     13  C   UNL     1       3.678 -10.966   6.407  0.00  0.00    +0.030 A 
ATOM     14  C   UNL     1       4.971 -10.810   6.010  0.00  0.00    +0.012 A 
ATOM     15  C   UNL     1       5.258 -10.862   4.631  0.00  0.00    +0.000 A 
ATOM     16  C   UNL     1       6.570 -10.709   4.155  0.00  0.00    +0.010 A 
ATOM     17  C   UNL     1       6.811 -10.764   2.815  0.00  0.00    +0.001 A 
ATOM     18  C   UNL     1       5.773 -10.971   1.910  0.00  0.00    +0.002 A 
ATOM     19  C   UNL     1       4.489 -11.123   2.336  0.00  0.00    +0.028 A 
ATOM     20  C   UNL     1       4.200 -11.072   3.712  0.00  0.00    +0.072 A 
ATOM     21  N   UNL     1       2.950 -11.224   4.157  0.00  0.00    -0.245 NA
ENDBRANCH   9  12
BRANCH   1  22
ATOM     22  C   UNL     1       0.161 -10.567   3.721  0.00  0.00    +0.038 C 
BRANCH  22  23
ATOM     23  C   UNL     1       0.141  -9.037   3.729  0.00  0.00    +0.014 C 
BRANCH  23  24
ATOM     24  C   UNL     1       0.127  -8.519   2.290  0.00  0.00    +0.097 C 
BRANCH  24  26
ATOM     25  N   UNL     1       0.092  -6.332   1.134  0.00  0.00    -0.234 N 
ATOM     26  C   UNL     1       0.107  -7.013   2.298  0.00  0.00    +0.229 C 
ATOM     27  O   UNL     1       0.104  -6.412   3.352  0.00  0.00    -0.274 OA
ATOM     28  H   UNL     1       0.095  -6.813   0.292  0.00  0.00    +0.173 HD
BRANCH  25  31
ATOM     29  C   UNL     1       0.059  -4.251  -0.021  0.00  0.00    +0.260 C 
ATOM     30  O   UNL     1       0.062  -4.853  -1.077  0.00  0.00    -0.269 OA
ATOM     31  N   UNL     1       0.074  -4.931   1.142  0.00  0.00    -0.230 N 
ATOM     32  H   UNL     1       0.072  -4.451   1.985  0.00  0.00    +0.173 HD
BRANCH  29  37
ATOM     33  C   UNL     1      -0.018   1.503   0.010  0.00  0.00    +0.044 C 
ATOM     34  C   UNL     1       0.002  -0.004   0.002  0.00  0.00    -0.050 A 
ATOM     35  C   UNL     1       0.006  -0.686  -1.202  0.00  0.00    +0.004 A 
ATOM     36  C   UNL     1       0.024  -2.066  -1.216  0.00  0.00    +0.013 A 
ATOM     37  C   UNL     1       0.040  -2.773  -0.013  0.00  0.00    +0.038 A 
ATOM     38  C   UNL     1       0.036  -2.079   1.198  0.00  0.00    +0.013 A 
ATOM     39  C   UNL     1       0.023  -0.699   1.198  0.00  0.00    +0.004 A 
ENDBRANCH  29  37
ENDBRANCH  25  31
ENDBRANCH  24  26
ENDBRANCH  23  24
ENDBRANCH  22  23
ENDBRANCH   1  22
TORSDOF 7
