REMARK  Name = ZINC12153683
REMARK  12 active torsions:
REMARK  status: ('A' for Active; 'I' for Inactive)
REMARK    1  A    between atoms: C_1  and  O_2
REMARK    2  A    between atoms: O_2  and  C_3
REMARK    3  A    between atoms: C_5  and  C_10
REMARK    4  A    between atoms: C_8  and  O_9
REMARK    5  A    between atoms: C_14  and  O_29
REMARK    6  A    between atoms: C_15  and  O_27
REMARK    7  A    between atoms: C_19  and  C_24
REMARK    8  A    between atoms: C_19  and  O_26
REMARK    9  A    between atoms: C_20  and  C_22
REMARK   10  A    between atoms: C_22  and  O_23
REMARK   11  A    between atoms: C_24  and  O_25
REMARK   12  A    between atoms: O_27  and  C_28
REMARK                            x       y       z     vdW  Elec       q    Type
REMARK                         _______ _______ _______ _____ _____    ______ ____
ROOT
ATOM      1  C   UNL     1      -2.425   1.101   0.063  0.00  0.00    +0.057 C 
ATOM      2  C   UNL     1      -1.236   2.017   0.189  0.00  0.00    -0.033 A 
ATOM      3  C   UNL     1       0.022   1.434   0.271  0.00  0.00    +0.053 A 
ATOM      4  C   UNL     1       1.153   2.217   0.405  0.00  0.00    +0.159 A 
ATOM      5  C   UNL     1       1.028   3.602   0.464  0.00  0.00    +0.162 A 
ATOM      6  C   UNL     1      -0.227   4.178   0.385  0.00  0.00    +0.053 A 
ATOM      7  C   UNL     1      -1.361   3.387   0.248  0.00  0.00    -0.037 A 
ATOM      8  C   UNL     1      -2.693   4.085   0.160  0.00  0.00    +0.073 C 
ATOM      9  C   UNL     1      -3.831   3.109   0.451  0.00  0.00    +0.099 C 
ATOM     10  C   UNL     1      -3.646   1.872  -0.435  0.00  0.00    +0.060 C 
ENDROOT
BRANCH   1  13
ATOM     11  C   UNL     1      -2.362  -2.262  -1.657  0.00  0.00    +0.162 A 
ATOM     12  C   UNL     1      -2.658  -1.252  -0.756  0.00  0.00    +0.053 A 
ATOM     13  C   UNL     1      -2.099   0.002  -0.915  0.00  0.00    -0.036 A 
ATOM     14  C   UNL     1      -1.235   0.248  -1.966  0.00  0.00    +0.008 A 
ATOM     15  C   UNL     1      -0.932  -0.756  -2.866  0.00  0.00    +0.049 A 
ATOM     16  C   UNL     1      -1.494  -2.014  -2.715  0.00  0.00    +0.158 A 
BRANCH  11  18
ATOM     17  C   UNL     1      -3.799  -3.678  -0.396  0.00  0.00    +0.277 C 
ATOM     18  O   UNL     1      -2.916  -3.495  -1.505  0.00  0.00    -0.491 OA
ENDBRANCH  11  18
BRANCH  16  19
ATOM     19  O   UNL     1      -1.197  -3.003  -3.600  0.00  0.00    -0.503 OA
ATOM     20  H   UNL     1      -0.428  -3.534  -3.353  0.00  0.00    +0.292 HD
ENDBRANCH  16  19
ENDBRANCH   1  13
BRANCH   9  21
ATOM     21  O   UNL     1      -3.796   2.725   1.827  0.00  0.00    -0.386 OA
ATOM     22  H   UNL     1      -3.891   3.463   2.444  0.00  0.00    +0.210 HD
ENDBRANCH   9  21
BRANCH   5  23
ATOM     23  O   UNL     1       2.132   4.384   0.600  0.00  0.00    -0.491 OA
ATOM     24  C   UNL     1       1.924   5.797   0.653  0.00  0.00    +0.277 C 
ENDBRANCH   5  23
BRANCH   4  25
ATOM     25  O   UNL     1       2.381   1.638   0.480  0.00  0.00    -0.503 OA
ATOM     26  H   UNL     1       2.811   1.514  -0.378  0.00  0.00    +0.292 HD
ENDBRANCH   4  25
BRANCH  10  27
ATOM     27  C   UNL     1      -3.425   2.305  -1.886  0.00  0.00    +0.163 C 
BRANCH  27  28
ATOM     28  O   UNL     1      -3.429   1.155  -2.733  0.00  0.00    -0.395 OA
ATOM     29  H   UNL     1      -3.294   1.355  -3.669  0.00  0.00    +0.209 HD
ENDBRANCH  27  28
ENDBRANCH  10  27
BRANCH   9  30
ATOM     30  C   UNL     1      -5.173   3.773   0.135  0.00  0.00    +0.191 C 
BRANCH  30  31
ATOM     31  O   UNL     1      -5.279   5.000   0.860  0.00  0.00    -0.392 OA
ATOM     32  H   UNL     1      -6.107   5.476   0.707  0.00  0.00    +0.210 HD
ENDBRANCH  30  31
ENDBRANCH   9  30
TORSDOF 10
