REMARK  Name = ZINC12568391
REMARK  7 active torsions:
REMARK  status: ('A' for Active; 'I' for Inactive)
REMARK    1  A    between atoms: C_1  and  C_2
REMARK    2  A    between atoms: C_2  and  C_4
REMARK    3  A    between atoms: C_2  and  S_19
REMARK    4  A    between atoms: N_6  and  C_7
REMARK    5  A    between atoms: S_19  and  C_20
REMARK    6  A    between atoms: C_24  and  S_29
REMARK    7  A    between atoms: S_29  and  N_32
REMARK                            x       y       z     vdW  Elec       q    Type
REMARK                         _______ _______ _______ _____ _____    ______ ____
ROOT
ATOM      1  S   UNL     1       4.518   5.888  -0.919  0.00  0.00    -0.055 S 
ENDROOT
BRANCH   1   2
ATOM      2  C   UNL     1       6.164   6.491  -1.091  0.00  0.00    +0.259 A 
ATOM      3  N   UNL     1       6.486   7.671  -1.558  0.00  0.00    -0.203 NA
ATOM      4  C   UNL     1       7.842   7.791  -1.545  0.00  0.00    +0.112 A 
ATOM      5  C   UNL     1       8.723   8.806  -1.919  0.00  0.00    +0.060 A 
ATOM      6  C   UNL     1      10.081   8.618  -1.780  0.00  0.00    +0.108 A 
ATOM      7  C   UNL     1      10.575   7.427  -1.272  0.00  0.00    +0.032 A 
ATOM      8  C   UNL     1       9.715   6.415  -0.898  0.00  0.00    +0.050 A 
ATOM      9  C   UNL     1       8.347   6.587  -1.031  0.00  0.00    +0.156 A 
ATOM     10  O   UNL     1       7.274   5.809  -0.757  0.00  0.00    -0.431 OA
BRANCH   6  11
ATOM     11  S   UNL     1      11.195   9.899  -2.252  0.00  0.00    +0.061 S 
ATOM     12  O   UNL     1      12.439   9.271  -2.535  0.00  0.00    -0.153 OA
ATOM     13  O   UNL     1      10.512  10.700  -3.206  0.00  0.00    -0.153 OA
BRANCH  11  14
ATOM     14  N   UNL     1      11.438  10.852  -0.920  0.00  0.00    -0.177 NA
ATOM     15  C   UNL     1      10.574  12.012  -0.662  0.00  0.00    +0.109 C 
ATOM     16  C   UNL     1      10.007  11.892   0.761  0.00  0.00    +0.017 C 
ATOM     17  C   UNL     1      11.162  11.736   1.752  0.00  0.00    +0.003 C 
ATOM     18  C   UNL     1      11.941  10.457   1.435  0.00  0.00    +0.017 C 
ATOM     19  C   UNL     1      12.526  10.558   0.023  0.00  0.00    +0.109 C 
ENDBRANCH  11  14
ENDBRANCH   6  11
ENDBRANCH   1   2
BRANCH   1  21
ATOM     20  C   UNL     1       5.493   4.391   1.148  0.00  0.00    +0.029 C 
ATOM     21  C   UNL     1       4.854   4.246  -0.235  0.00  0.00    +0.139 C 
BRANCH  21  22
ATOM     22  C   UNL     1       3.564   3.478  -0.113  0.00  0.00    +0.230 C 
ATOM     23  O   UNL     1       2.505   4.069  -0.100  0.00  0.00    -0.274 OA
ATOM     24  N   UNL     1       3.586   2.134  -0.019  0.00  0.00    -0.285 N 
ATOM     25  H   UNL     1       4.433   1.666   0.047  0.00  0.00    +0.155 HD
BRANCH  24  26
ATOM     26  C   UNL     1       2.385   1.412  -0.018  0.00  0.00    +0.035 A 
ATOM     27  C   UNL     1       2.281   0.241   0.724  0.00  0.00    +0.025 A 
ATOM     28  C   UNL     1       1.101  -0.475   0.729  0.00  0.00    +0.029 A 
ATOM     29  C   UNL     1       0.015  -0.025  -0.007  0.00  0.00    +0.067 A 
ATOM     30  C   UNL     1       0.117   1.151  -0.753  0.00  0.00    +0.069 A 
ATOM     31  C   UNL     1       1.303   1.867  -0.756  0.00  0.00    +0.051 A 
ATOM     32  N   UNL     1      -1.115   1.341  -1.375  0.00  0.00    -0.306 N 
ATOM     33  H   UNL     1      -1.347   2.078  -1.961  0.00  0.00    +0.170 HD
ATOM     34  C   UNL     1      -1.929   0.328  -1.024  0.00  0.00    +0.325 A 
ATOM     35  O   UNL     1      -3.080   0.193  -1.395  0.00  0.00    -0.247 OA
ATOM     36  N   UNL     1      -1.277  -0.513  -0.200  0.00  0.00    -0.306 N 
ATOM     37  H   UNL     1      -1.644  -1.321   0.193  0.00  0.00    +0.170 HD
ENDBRANCH  24  26
ENDBRANCH  21  22
ENDBRANCH   1  21
TORSDOF 6
