REMARK  Name = ZINC12347772
REMARK  5 active torsions:
REMARK  status: ('A' for Active; 'I' for Inactive)
REMARK    1  A    between atoms: C_1  and  C_2
REMARK    2  A    between atoms: C_2  and  C_31
REMARK    3  A    between atoms: C_6  and  C_16
REMARK    4  A    between atoms: C_13  and  O_14
REMARK    5  A    between atoms: C_19  and  C_22
REMARK                            x       y       z     vdW  Elec       q    Type
REMARK                         _______ _______ _______ _____ _____    ______ ____
ROOT
ATOM      1  C   UNL     1       2.471   8.882   3.475  0.00  0.00    +0.011 C 
ATOM      2  C   UNL     1       2.050  10.337   3.689  0.00  0.00    -0.023 C 
ATOM      3  C   UNL     1       2.486  11.182   2.491  0.00  0.00    +0.058 C 
ATOM      4  C   UNL     1       1.812  10.675   1.236  0.00  0.00    +0.017 C 
ATOM      5  C   UNL     1       0.588  10.109   1.288  0.00  0.00    +0.024 C 
ATOM      6  C   UNL     1      -0.128   9.603   0.055  0.00  0.00    +0.092 C 
ATOM      7  C   UNL     1       0.560  10.119  -1.177  0.00  0.00    +0.067 A 
ATOM      8  C   UNL     1       1.806  10.687  -1.137  0.00  0.00    +0.126 A 
ATOM      9  N   UNL     1       2.138  11.037  -2.394  0.00  0.00    -0.260 N 
ATOM     10  H   UNL     1       2.993  11.472  -2.679  0.00  0.00    +0.190 HD
ATOM     11  N   UNL     1       1.070  10.682  -3.234  0.00  0.00    -0.134 NA
ATOM     12  C   UNL     1       0.128  10.133  -2.499  0.00  0.00    +0.237 A 
ATOM     13  N   UNL     1       2.501  10.825   0.059  0.00  0.00    -0.303 N 
ATOM     14  C   UNL     1      -0.089   9.965   2.514  0.00  0.00    +0.162 C 
ATOM     15  O   UNL     1      -1.194   9.460   2.527  0.00  0.00    -0.292 OA
ATOM     16  C   UNL     1       0.525  10.421   3.808  0.00  0.00    +0.086 C 
ATOM     17  C   UNL     1       2.699  10.879   4.965  0.00  0.00    +0.011 C 
ATOM     18  H   UNL     1       3.450  11.024   0.061  0.00  0.00    +0.153 HD
ENDROOT
BRANCH   6  19
ATOM     19  C   UNL     1      -0.108   8.096   0.046  0.00  0.00    -0.035 A 
ATOM     20  C   UNL     1      -1.298   7.391   0.053  0.00  0.00    +0.005 A 
ATOM     21  C   UNL     1      -1.285   6.011   0.045  0.00  0.00    +0.009 A 
ATOM     22  C   UNL     1      -0.070   5.328   0.030  0.00  0.00    -0.018 A 
ATOM     23  C   UNL     1       1.125   6.043   0.029  0.00  0.00    +0.009 A 
ATOM     24  C   UNL     1       1.101   7.423   0.031  0.00  0.00    +0.005 A 
BRANCH  22  25
ATOM     25  C   UNL     1      -0.050   3.844   0.022  0.00  0.00    -0.018 A 
ATOM     26  C   UNL     1       1.164   3.161   0.007  0.00  0.00    +0.008 A 
ATOM     27  C   UNL     1       1.177   1.781   0.000  0.00  0.00    +0.001 A 
ATOM     28  C   UNL     1      -0.013   1.076   0.008  0.00  0.00    +0.000 A 
ATOM     29  C   UNL     1      -1.221   1.748   0.017  0.00  0.00    +0.001 A 
ATOM     30  C   UNL     1      -1.246   3.128   0.030  0.00  0.00    +0.008 A 
ENDBRANCH  22  25
ENDBRANCH   6  19
BRANCH  12  31
ATOM     31  O   UNL     1      -1.064   9.660  -2.953  0.00  0.00    -0.491 OA
ATOM     32  H   UNL     1      -1.120   9.793  -3.943  0.00  0.00    +0.294 HD
ENDBRANCH  12  31
TORSDOF 3
