REMARK  Name = ZINC54375153
REMARK  3 active torsions:
REMARK  status: ('A' for Active; 'I' for Inactive)
REMARK    1  A    between atoms: C_1  and  C_2
REMARK    2  A    between atoms: N_8  and  C_9
REMARK    3  A    between atoms: C_14  and  N_15
REMARK                            x       y       z     vdW  Elec       q    Type
REMARK                         _______ _______ _______ _____ _____    ______ ____
ROOT
ATOM      1  C   UNL     1       1.410   0.380   2.027  0.00  0.00    +0.060 A 
ATOM      2  C   UNL     1       0.771   0.990   3.099  0.00  0.00    +0.026 A 
ATOM      3  C   UNL     1       1.471   1.854   3.917  0.00  0.00    +0.017 A 
ATOM      4  C   UNL     1       2.807   2.115   3.669  0.00  0.00    +0.020 A 
ATOM      5  C   UNL     1       3.446   1.509   2.602  0.00  0.00    +0.050 A 
ATOM      6  C   UNL     1       2.753   0.638   1.784  0.00  0.00    +0.148 A 
ATOM      7 BR   UNL     1       3.762   3.300   4.792  0.00  0.00    -0.050 Br
ENDROOT
BRANCH   1  14
ATOM      8  C   UNL     1      -0.019   1.526   0.010  0.00  0.00    +0.026 C 
ATOM      9  C   UNL     1       0.002  -0.004   0.002  0.00  0.00    +0.053 C 
ATOM     10  C   UNL     1      -1.434  -0.539   0.023  0.00  0.00    -0.060 C 
ATOM     11  N   UNL     1      -1.409  -2.001   0.153  0.00  0.00    +0.381 N 
ATOM     12  C   UNL     1      -0.828  -2.378   1.447  0.00  0.00    -0.063 C 
ATOM     13  C   UNL     1       0.638  -1.935   1.497  0.00  0.00    +0.086 C 
ATOM     14  N   UNL     1       0.705  -0.495   1.198  0.00  0.00    -0.329 N 
ATOM     15  H   UNL     1      -2.350  -2.359   0.091  0.00  0.00    -0.086 HD
ATOM     16  H   UNL     1      -0.852  -2.394  -0.592  0.00  0.00    -0.086 HD
ENDBRANCH   1  14
BRANCH   6  17
ATOM     17  N   UNL     1       3.439  -0.014   0.646  0.00  0.00    +0.058 N 
ATOM     18  O   UNL     1       4.608   0.211   0.436  0.00  0.00    -0.126 OA
ATOM     19  O   UNL     1       2.830  -0.772  -0.072  0.00  0.00    -0.126 OA
ENDBRANCH   6  17
TORSDOF 2
