REMARK  Name = ZINC44714463
REMARK  7 active torsions:
REMARK  status: ('A' for Active; 'I' for Inactive)
REMARK    1  A    between atoms: C_1  and  C_2
REMARK    2  A    between atoms: C_3  and  C_14
REMARK    3  A    between atoms: C_6  and  C_12
REMARK    4  A    between atoms: C_14  and  C_15
REMARK    5  A    between atoms: C_15  and  N_16
REMARK    6  A    between atoms: C_17  and  C_19
REMARK    7  A    between atoms: C_30  and  C_32
REMARK                            x       y       z     vdW  Elec       q    Type
REMARK                         _______ _______ _______ _____ _____    ______ ____
ROOT
ATOM      1  C   UNL     1       2.297   1.275  -7.088  0.00  0.00    +0.100 C 
ATOM      2  C   UNL     1       1.571   2.617  -6.843  0.00  0.00    +0.121 C 
ATOM      3  N   UNL     1       2.661   3.613  -6.710  0.00  0.00    -0.296 N 
ATOM      4  C   UNL     1       3.658   3.207  -7.730  0.00  0.00    +0.115 C 
ATOM      5  C   UNL     1       3.664   1.666  -7.673  0.00  0.00    -0.004 C 
ATOM      6  C   UNL     1       3.824   1.087  -9.076  0.00  0.00    -0.010 C 
ATOM      7  C   UNL     1       5.213   1.440  -9.614  0.00  0.00    -0.082 C 
ATOM      8  N   UNL     1       6.240   0.895  -8.718  0.00  0.00    +0.379 N 
ATOM      9  C   UNL     1       6.138   1.526  -7.397  0.00  0.00    -0.082 C 
ATOM     10  C   UNL     1       4.788   1.177  -6.765  0.00  0.00    -0.010 C 
ATOM     11  C   UNL     1       2.730   4.653  -5.856  0.00  0.00    +0.247 C 
ATOM     12  O   UNL     1       1.888   4.784  -4.988  0.00  0.00    -0.270 OA
ATOM     13  H   UNL     1       6.108  -0.101  -8.624  0.00  0.00    -0.086 HD
ATOM     14  H   UNL     1       7.154   1.076  -9.106  0.00  0.00    -0.086 HD
ENDROOT
BRANCH  11  15
ATOM     15  C   UNL     1       3.829   5.634  -5.973  0.00  0.00    +0.037 A 
ATOM     16  C   UNL     1       4.528   5.763  -7.175  0.00  0.00    +0.014 A 
ATOM     17  C   UNL     1       5.552   6.680  -7.278  0.00  0.00    +0.021 A 
ATOM     18  C   UNL     1       5.888   7.473  -6.193  0.00  0.00    +0.041 A 
ATOM     19  C   UNL     1       5.198   7.350  -4.998  0.00  0.00    +0.021 A 
ATOM     20  C   UNL     1       4.168   6.440  -4.885  0.00  0.00    +0.014 A 
ATOM     21 CL   UNL     1       7.180   8.625  -6.331  0.00  0.00    -0.084 Cl
ENDBRANCH  11  15
BRANCH   1  23
ATOM     22  N   UNL     1       2.631  -0.808  -5.796  0.00  0.00    -0.315 N 
ATOM     23  C   UNL     1       2.476   0.531  -5.790  0.00  0.00    +0.218 C 
ATOM     24  O   UNL     1       2.480   1.136  -4.739  0.00  0.00    -0.275 OA
ATOM     25  H   UNL     1       2.628  -1.292  -6.637  0.00  0.00    +0.149 HD
BRANCH  22  26
ATOM     26  C   UNL     1       2.805  -1.532  -4.535  0.00  0.00    +0.109 C 
BRANCH  26  27
ATOM     27  C   UNL     1       2.959  -3.027  -4.821  0.00  0.00    +0.056 C 
BRANCH  27  30
ATOM     28  C   UNL     1       0.691  -4.220  -3.069  0.00  0.00    +0.063 C 
ATOM     29  C   UNL     1       2.164  -4.290  -2.759  0.00  0.00    +0.017 A 
ATOM     30  C   UNL     1       3.138  -3.771  -3.523  0.00  0.00    -0.018 A 
ATOM     31  C   UNL     1       4.409  -4.066  -2.854  0.00  0.00    +0.004 A 
ATOM     32  C   UNL     1       5.742  -3.794  -3.149  0.00  0.00    +0.029 A 
ATOM     33  C   UNL     1       6.737  -4.228  -2.278  0.00  0.00    +0.052 A 
ATOM     34  C   UNL     1       6.393  -4.934  -1.116  0.00  0.00    +0.021 A 
ATOM     35  C   UNL     1       5.088  -5.201  -0.825  0.00  0.00    +0.027 A 
ATOM     36  C   UNL     1       4.077  -4.776  -1.684  0.00  0.00    +0.047 A 
ATOM     37  N   UNL     1       2.707  -4.889  -1.655  0.00  0.00    -0.358 N 
ATOM     38  H   UNL     1       2.200  -5.330  -0.955  0.00  0.00    +0.166 HD
BRANCH  33  39
ATOM     39  C   UNL     1       8.112  -3.955  -2.569  0.00  0.00    +0.099 C 
ATOM     40  N   UNL     1       9.203  -3.739  -2.800  0.00  0.00    -0.191 NA
ENDBRANCH  33  39
ENDBRANCH  27  30
ENDBRANCH  26  27
ENDBRANCH  22  26
ENDBRANCH   1  23
TORSDOF 6
