REMARK  Name = ZINC44121794
REMARK  1 active torsions:
REMARK  status: ('A' for Active; 'I' for Inactive)
REMARK    1  A    between atoms: C_3  and  C_8
REMARK                            x       y       z     vdW  Elec       q    Type
REMARK                         _______ _______ _______ _____ _____    ______ ____
ROOT
ATOM      1  C   UNL     1      -0.017   1.379   0.010  0.00  0.00    +0.054 A 
ATOM      2  C   UNL     1       0.002  -0.004   0.002  0.00  0.00    +0.032 A 
ATOM      3  C   UNL     1       1.228  -0.666  -0.013  0.00  0.00    +0.071 A 
ATOM      4  N   UNL     1       2.366   0.017  -0.020  0.00  0.00    -0.251 NA
ATOM      5  C   UNL     1       2.382   1.333  -0.013  0.00  0.00    +0.162 A 
ATOM      6  C   UNL     1       1.198   2.059   0.002  0.00  0.00    +0.197 A 
ATOM      7  O   UNL     1       1.225   3.417   0.008  0.00  0.00    -0.286 OA
ENDROOT
BRANCH   3   8
ATOM      8  C   UNL     1       1.262  -2.149  -0.021  0.00  0.00    +0.003 A 
ATOM      9  C   UNL     1       0.080  -2.894  -0.020  0.00  0.00    +0.030 A 
ATOM     10  C   UNL     1       0.156  -4.272  -0.029  0.00  0.00    +0.111 A 
ATOM     11  N   UNL     1       1.325  -4.885  -0.038  0.00  0.00    -0.263 NA
ATOM     12  C   UNL     1       2.463  -4.219  -0.039  0.00  0.00    +0.111 A 
ATOM     13  C   UNL     1       2.478  -2.839  -0.037  0.00  0.00    +0.030 A 
ENDBRANCH   3   8
TORSDOF 1
