REMARK  Name = ZINC04799070
REMARK  5 active torsions:
REMARK  status: ('A' for Active; 'I' for Inactive)
REMARK    1  A    between atoms: C_4  and  C_7
REMARK    2  A    between atoms: C_7  and  S_8
REMARK    3  A    between atoms: S_8  and  C_9
REMARK    4  A    between atoms: N_11  and  C_12
REMARK    5  A    between atoms: C_15  and  N_19
REMARK                            x       y       z     vdW  Elec       q    Type
REMARK                         _______ _______ _______ _____ _____    ______ ____
ROOT
ATOM      1  C   UNL     1       0.178   0.966   2.735  0.00  0.00    +0.276 C 
ATOM      2  O   UNL     1       1.143   0.298   2.414  0.00  0.00    -0.263 OA
ATOM      3  N   UNL     1      -0.106   1.155   4.039  0.00  0.00    -0.275 N 
ATOM      4  H   UNL     1      -0.836   1.740   4.297  0.00  0.00    +0.156 HD
ENDROOT
BRANCH   3   5
ATOM      5  C   UNL     1       0.652   0.507   5.022  0.00  0.00    +0.053 A 
ATOM      6  C   UNL     1       2.010   0.291   4.824  0.00  0.00    +0.027 A 
ATOM      7  C   UNL     1       2.755  -0.348   5.795  0.00  0.00    +0.034 A 
ATOM      8  C   UNL     1       2.151  -0.773   6.964  0.00  0.00    +0.128 A 
ATOM      9  C   UNL     1       0.800  -0.560   7.166  0.00  0.00    +0.054 A 
ATOM     10  C   UNL     1       0.049   0.083   6.200  0.00  0.00    +0.064 A 
ATOM     11 CL   UNL     1      -1.646   0.356   6.455  0.00  0.00    -0.082 Cl
BRANCH   8  12
ATOM     12  N   UNL     1       2.954  -1.458   8.003  0.00  0.00    +0.056 N 
ATOM     13  O   UNL     1       4.144  -1.646   7.827  0.00  0.00    -0.126 OA
ATOM     14  O   UNL     1       2.423  -1.833   9.033  0.00  0.00    -0.126 OA
ENDBRANCH   8  12
ENDBRANCH   3   5
BRANCH   1  15
ATOM     15  S   UNL     1      -0.848   1.685   1.497  0.00  0.00    -0.063 S 
BRANCH  15  16
ATOM     16  C   UNL     1       0.002   1.105   0.008  0.00  0.00    +0.114 C 
BRANCH  16  20
ATOM     17  C   UNL     1      -2.043   2.546  -3.454  0.00  0.00    +0.000 A 
ATOM     18  C   UNL     1      -1.030   3.297  -2.888  0.00  0.00    +0.000 A 
ATOM     19  C   UNL     1      -0.368   2.830  -1.767  0.00  0.00    +0.004 A 
ATOM     20  C   UNL     1      -0.720   1.613  -1.213  0.00  0.00    -0.037 A 
ATOM     21  C   UNL     1      -1.729   0.861  -1.783  0.00  0.00    +0.004 A 
ATOM     22  C   UNL     1      -2.395   1.330  -2.900  0.00  0.00    +0.000 A 
ENDBRANCH  16  20
ENDBRANCH  15  16
ENDBRANCH   1  15
TORSDOF 5
