REMARK  Name = ZINC16488723
REMARK  2 active torsions:
REMARK  status: ('A' for Active; 'I' for Inactive)
REMARK    1  A    between atoms: C_4  and  N_7
REMARK    2  A    between atoms: C_21  and  C_25
REMARK                            x       y       z     vdW  Elec       q    Type
REMARK                         _______ _______ _______ _____ _____    ______ ____
ROOT
ATOM      1  N   UNL     1       5.889   9.372  -0.005  0.00  0.00    -0.202 N 
ATOM      2  C   UNL     1       6.765   8.486  -0.514  0.00  0.00    +0.258 C 
ATOM      3  O   UNL     1       7.829   8.874  -0.959  0.00  0.00    -0.269 OA
ATOM      4  C   UNL     1       6.443   7.052  -0.536  0.00  0.00    +0.046 A 
ATOM      5  C   UNL     1       7.320   6.108  -1.053  0.00  0.00    +0.014 A 
ATOM      6  C   UNL     1       6.977   4.763  -1.054  0.00  0.00    +0.001 A 
ATOM      7  C   UNL     1       5.769   4.332  -0.547  0.00  0.00    +0.009 A 
ATOM      8  C   UNL     1       4.864   5.259  -0.019  0.00  0.00    -0.006 A 
ATOM      9  C   UNL     1       5.201   6.626  -0.013  0.00  0.00    +0.007 A 
ATOM     10  C   UNL     1       4.301   7.584   0.516  0.00  0.00    +0.050 A 
ATOM     11  C   UNL     1       3.081   7.180   1.030  0.00  0.00    +0.060 A 
ATOM     12  C   UNL     1       2.707   5.835   1.043  0.00  0.00    +0.139 A 
ATOM     13  C   UNL     1       3.568   4.856   0.530  0.00  0.00    +0.026 A 
ATOM     14  C   UNL     1       3.192   3.491   0.542  0.00  0.00    +0.029 A 
ATOM     15  C   UNL     1       1.964   3.142   1.066  0.00  0.00    +0.077 A 
ATOM     16  C   UNL     1       1.091   4.208   1.589  0.00  0.00    +0.203 A 
ATOM     17  N   UNL     1      -0.079   3.910   2.087  0.00  0.00    -0.369 N 
ATOM     18  O   UNL     1       1.504   5.491   1.558  0.00  0.00    -0.439 OA
ATOM     19  C   UNL     1       4.699   9.002   0.501  0.00  0.00    +0.258 C 
ATOM     20  O   UNL     1       3.945   9.845   0.948  0.00  0.00    -0.269 OA
ATOM     21  H   UNL     1      -0.730   4.706   2.476  0.00  0.00    +0.159 HD
ATOM     22  H   UNL     1      -0.413   2.862   2.116  0.00  0.00    +0.159 HD
ENDROOT
BRANCH  15  23
ATOM     23  C   UNL     1       1.533   1.732   1.098  0.00  0.00    +0.144 A 
ATOM     24  N   UNL     1       0.338   1.284   1.596  0.00  0.00    -0.338 N 
ATOM     25  H   UNL     1      -0.387   1.998   2.015  0.00  0.00    +0.167 HD
ATOM     26  C   UNL     1       0.323  -0.088   1.440  0.00  0.00    +0.066 A 
ATOM     27  C   UNL     1      -0.596  -1.083   1.746  0.00  0.00    +0.028 A 
ATOM     28  C   UNL     1      -0.303  -2.398   1.452  0.00  0.00    +0.002 A 
ATOM     29  C   UNL     1       0.905  -2.734   0.856  0.00  0.00    +0.002 A 
ATOM     30  C   UNL     1       1.822  -1.770   0.548  0.00  0.00    +0.030 A 
ATOM     31  C   UNL     1       1.547  -0.428   0.835  0.00  0.00    +0.089 A 
ATOM     32  N   UNL     1       2.236   0.717   0.653  0.00  0.00    -0.228 NA
ENDBRANCH  15  23
BRANCH   1  36
ATOM     33  C   UNL     1       6.904  13.415   0.006  0.00  0.00    +0.000 A 
ATOM     34  C   UNL     1       7.238  12.617   1.085  0.00  0.00    +0.002 A 
ATOM     35  C   UNL     1       6.903  11.277   1.084  0.00  0.00    +0.024 A 
ATOM     36  C   UNL     1       6.231  10.731  -0.001  0.00  0.00    +0.045 A 
ATOM     37  C   UNL     1       5.902  11.534  -1.086  0.00  0.00    +0.024 A 
ATOM     38  C   UNL     1       6.234  12.874  -1.077  0.00  0.00    +0.002 A 
ENDBRANCH   1  36
TORSDOF 2
