REMARK  Name = ZINC01339587
REMARK  4 active torsions:
REMARK  status: ('A' for Active; 'I' for Inactive)
REMARK    1  A    between atoms: C_12  and  C_14
REMARK    2  A    between atoms: C_14  and  S_15
REMARK    3  A    between atoms: S_15  and  C_16
REMARK    4  A    between atoms: C_21  and  C_32
REMARK                            x       y       z     vdW  Elec       q    Type
REMARK                         _______ _______ _______ _____ _____    ______ ____
ROOT
ATOM      1  C   UNL     1       3.587   1.930  -0.023  0.00  0.00    +0.198 A 
ATOM      2  N   UNL     1       4.391   0.891  -0.038  0.00  0.00    -0.122 NA
ATOM      3  N   UNL     1       3.709  -0.202  -0.038  0.00  0.00    -0.128 NA
ATOM      4  C   UNL     1       2.429   0.079  -0.022  0.00  0.00    +0.173 A 
ATOM      5  N   UNL     1       2.307   1.451  -0.013  0.00  0.00    -0.257 N 
ATOM      6  C   UNL     1       1.075   2.038   0.003  0.00  0.00    +0.122 A 
ATOM      7  N   UNL     1      -0.016   1.326   0.009  0.00  0.00    -0.226 NA
ATOM      8  C   UNL     1       0.002  -0.004   0.002  0.00  0.00    +0.114 A 
ATOM      9  C   UNL     1       1.196  -0.740  -0.014  0.00  0.00    +0.056 A 
ATOM     10  C   UNL     1       1.076  -2.152  -0.019  0.00  0.00    -0.024 A 
ATOM     11  C   UNL     1      -0.171  -2.676  -0.010  0.00  0.00    -0.004 A 
ATOM     12  S   UNL     1      -1.247  -1.267   0.008  0.00  0.00    -0.073 S 
ATOM     13  C   UNL     1      -0.552  -4.124  -0.013  0.00  0.00    +0.043 C 
ATOM     14  C   UNL     1       0.685  -4.949  -0.399  0.00  0.00    +0.005 C 
ATOM     15  C   UNL     1       1.877  -4.462   0.429  0.00  0.00    +0.005 C 
ATOM     16  C   UNL     1       2.299  -3.067  -0.034  0.00  0.00    +0.037 C 
ENDROOT
BRANCH   6  17
ATOM     17  C   UNL     1       0.974   3.541   0.012  0.00  0.00    +0.056 C 
ATOM     18  C   UNL     1      -0.409   4.155   0.235  0.00  0.00    +0.012 C 
ATOM     19  C   UNL     1       0.237   4.207  -1.152  0.00  0.00    +0.012 C 
ENDBRANCH   6  17
BRANCH   1  20
ATOM     20  S   UNL     1       4.070   3.624  -0.016  0.00  0.00    -0.076 S 
BRANCH  20  21
ATOM     21  C   UNL     1       5.883   3.565  -0.035  0.00  0.00    +0.173 C 
BRANCH  21  33
ATOM     22  C   UNL     1       9.407   9.002  -0.013  0.00  0.00    +0.002 A 
ATOM     23  C   UNL     1       8.167   8.793  -0.590  0.00  0.00    +0.002 A 
ATOM     24  C   UNL     1       7.611   7.527  -0.605  0.00  0.00    +0.025 A 
ATOM     25  C   UNL     1       8.300   6.468  -0.040  0.00  0.00    +0.058 A 
ATOM     26  C   UNL     1       9.549   6.676   0.546  0.00  0.00    +0.055 A 
ATOM     27  C   UNL     1      10.099   7.948   0.555  0.00  0.00    +0.025 A 
ATOM     28  N   UNL     1      10.229   5.598   1.124  0.00  0.00    -0.283 N 
ATOM     29  C   UNL     1       9.843   4.332   0.881  0.00  0.00    +0.235 C 
ATOM     30  O   UNL     1      10.419   3.414   1.427  0.00  0.00    -0.274 OA
ATOM     31  C   UNL     1       8.704   4.039  -0.055  0.00  0.00    +0.209 C 
ATOM     32  N   UNL     1       7.764   5.171  -0.044  0.00  0.00    -0.260 N 
ATOM     33  C   UNL     1       6.432   4.968  -0.031  0.00  0.00    +0.231 C 
ATOM     34  O   UNL     1       5.675   5.916  -0.017  0.00  0.00    -0.274 OA
ATOM     35  H   UNL     1      10.986   5.766   1.707  0.00  0.00    +0.155 HD
ENDBRANCH  21  33
ENDBRANCH  20  21
ENDBRANCH   1  20
TORSDOF 4
