REMARK  Name = ZINC40038072
REMARK  8 active torsions:
REMARK  status: ('A' for Active; 'I' for Inactive)
REMARK    1  A    between atoms: C_1  and  C_2
REMARK    2  A    between atoms: C_2  and  C_3
REMARK    3  A    between atoms: C_9  and  C_37
REMARK    4  A    between atoms: C_10  and  C_12
REMARK    5  A    between atoms: N_14  and  C_15
REMARK    6  A    between atoms: C_16  and  C_26
REMARK    7  A    between atoms: C_21  and  C_25
REMARK    8  A    between atoms: N_28  and  C_29
REMARK                            x       y       z     vdW  Elec       q    Type
REMARK                         _______ _______ _______ _____ _____    ______ ____
ROOT
ATOM      1  C   UNL     1       2.749  -3.180   8.761  0.00  0.00    +0.085 A 
ATOM      2  C   UNL     1       3.868  -3.578   9.477  0.00  0.00    +0.069 A 
ATOM      3  C   UNL     1       3.665  -3.977  10.859  0.00  0.00    -0.023 A 
ATOM      4  C   UNL     1       2.381  -3.905  11.271  0.00  0.00    -0.004 A 
ATOM      5  S   UNL     1       1.489  -3.318   9.862  0.00  0.00    -0.077 S 
ATOM      6  C   UNL     1       1.853  -4.248  12.630  0.00  0.00    +0.046 C 
ATOM      7  C   UNL     1       2.927  -5.053  13.376  0.00  0.00    -0.009 C 
ATOM      8  C   UNL     1       4.272  -4.334  13.236  0.00  0.00    +0.008 C 
ATOM      9  C   UNL     1       4.772  -4.441  11.794  0.00  0.00    +0.037 C 
ATOM     10  C   UNL     1       2.552  -5.160  14.856  0.00  0.00    +0.008 C 
ENDROOT
BRANCH   1  13
ATOM     11  C   UNL     1       1.504  -2.400   6.906  0.00  0.00    +0.284 C 
ATOM     12  O   UNL     1       0.491  -2.446   7.579  0.00  0.00    -0.266 OA
ATOM     13  N   UNL     1       2.687  -2.759   7.443  0.00  0.00    -0.273 N 
ATOM     14  H   UNL     1       3.494  -2.723   6.907  0.00  0.00    +0.156 HD
BRANCH  11  22
ATOM     15  C   UNL     1       0.731  -0.503   1.223  0.00  0.00    -0.047 A 
ATOM     16  C   UNL     1       2.103  -0.709   1.171  0.00  0.00    +0.007 A 
ATOM     17  C   UNL     1       2.789  -1.164   2.275  0.00  0.00    +0.047 A 
ATOM     18  C   UNL     1       2.105  -1.423   3.458  0.00  0.00    +0.136 A 
ATOM     19  C   UNL     1       0.714  -1.212   3.505  0.00  0.00    +0.024 A 
ATOM     20  C   UNL     1       0.038  -0.745   2.375  0.00  0.00    +0.015 A 
ATOM     21  C   UNL     1       0.305  -1.570   4.862  0.00  0.00    +0.008 A 
ATOM     22  C   UNL     1       1.438  -1.954   5.508  0.00  0.00    +0.194 A 
ATOM     23  O   UNL     1       2.492  -1.863   4.670  0.00  0.00    -0.450 OA
ATOM     24  C   UNL     1      -1.089  -1.521   5.431  0.00  0.00    +0.048 C 
BRANCH  15  26
ATOM     25  C   UNL     1      -0.019   1.526   0.010  0.00  0.00    +0.009 C 
ATOM     26  C   UNL     1       0.002  -0.004   0.002  0.00  0.00    +0.032 C 
ENDBRANCH  15  26
ENDBRANCH  11  22
ENDBRANCH   1  13
BRANCH   2  27
ATOM     27  C   UNL     1       5.200  -3.596   8.864  0.00  0.00    +0.247 C 
ATOM     28  O   UNL     1       5.909  -2.608   8.921  0.00  0.00    -0.270 OA
ATOM     29  N   UNL     1       5.639  -4.706   8.239  0.00  0.00    -0.307 N 
ATOM     30  H   UNL     1       5.074  -5.493   8.194  0.00  0.00    +0.149 HD
BRANCH  29  31
ATOM     31  C   UNL     1       6.970  -4.724   7.627  0.00  0.00    +0.096 C 
ATOM     32  C   UNL     1       6.891  -4.168   6.196  0.00  0.00    +0.046 C 
ATOM     33  C   UNL     1       8.205  -4.475   5.437  0.00  0.00    +0.168 C 
ATOM     34  S   UNL     1       8.795  -6.011   6.258  0.00  0.00    -0.029 S 
ATOM     35  O   UNL     1      10.041  -5.748   6.889  0.00  0.00    -0.174 OA
ATOM     36  O   UNL     1       8.689  -7.094   5.344  0.00  0.00    -0.174 OA
ATOM     37  C   UNL     1       7.493  -6.186   7.550  0.00  0.00    +0.188 C 
ENDBRANCH  29  31
ENDBRANCH   2  27
TORSDOF 5
