REMARK  Name = ZINC55027558
REMARK  11 active torsions:
REMARK  status: ('A' for Active; 'I' for Inactive)
REMARK    1  A    between atoms: C_1  and  C_2
REMARK    2  A    between atoms: C_2  and  C_4
REMARK    3  A    between atoms: C_2  and  N_14
REMARK    4  A    between atoms: N_6  and  C_7
REMARK    5  A    between atoms: C_7  and  C_8
REMARK    6  A    between atoms: C_7  and  C_9
REMARK    7  A    between atoms: C_7  and  C_11
REMARK    8  A    between atoms: C_11  and  C_12
REMARK    9  A    between atoms: C_11  and  C_13
REMARK   10  A    between atoms: C_17  and  N_20
REMARK   11  A    between atoms: N_23  and  C_24
REMARK                            x       y       z     vdW  Elec       q    Type
REMARK                         _______ _______ _______ _____ _____    ______ ____
ROOT
ATOM      1  N   UNL     1       0.814  -0.908  -0.823  0.00  0.00    +0.387 N 
ATOM      2  C   UNL     1       2.223  -0.501  -0.752  0.00  0.00    -0.076 C 
ATOM      3  C   UNL     1       3.062  -1.389  -1.674  0.00  0.00    +0.004 C 
ATOM      4  C   UNL     1       2.928  -2.848  -1.228  0.00  0.00    +0.071 C 
ATOM      5  C   UNL     1       1.447  -3.239  -1.235  0.00  0.00    +0.004 C 
ATOM      6  C   UNL     1       0.668  -2.283  -0.330  0.00  0.00    -0.076 C 
ATOM      7  H   UNL     1       0.500  -0.860  -1.781  0.00  0.00    -0.081 HD
ENDROOT
BRANCH   4   8
ATOM      8  N   UNL     1       3.667  -3.712  -2.152  0.00  0.00    -0.297 N 
ATOM      9  C   UNL     1       4.124  -4.909  -1.735  0.00  0.00    +0.300 C 
ATOM     10  O   UNL     1       3.922  -5.272  -0.592  0.00  0.00    -0.253 OA
ATOM     11  N   UNL     1       4.804  -5.704  -2.584  0.00  0.00    -0.297 N 
ATOM     12  H   UNL     1       3.828  -3.422  -3.063  0.00  0.00    +0.151 HD
ATOM     13  H   UNL     1       4.965  -5.414  -3.496  0.00  0.00    +0.151 HD
BRANCH  11  14
ATOM     14  C   UNL     1       5.301  -7.006  -2.131  0.00  0.00    +0.074 C 
ATOM     15  C   UNL     1       4.192  -8.051  -2.272  0.00  0.00    +0.022 C 
ATOM     16  C   UNL     1       4.711  -9.411  -1.798  0.00  0.00    +0.002 C 
ATOM     17  C   UNL     1       5.913  -9.823  -2.651  0.00  0.00    +0.000 C 
ATOM     18  C   UNL     1       7.021  -8.777  -2.510  0.00  0.00    +0.002 C 
ATOM     19  C   UNL     1       6.502  -7.418  -2.983  0.00  0.00    +0.022 C 
ENDBRANCH  11  14
ENDBRANCH   4   8
BRANCH   1  21
ATOM     20  C   UNL     1       0.144   1.427  -0.519  0.00  0.00    -0.004 C 
ATOM     21  C   UNL     1       0.002  -0.004   0.002  0.00  0.00    +0.016 C 
BRANCH  21  22
ATOM     22  C   UNL     1      -1.444  -0.423  -0.067  0.00  0.00    +0.200 C 
ATOM     23  O   UNL     1      -1.866  -0.984  -1.056  0.00  0.00    -0.278 OA
ATOM     24  N   UNL     1      -2.268  -0.175   0.970  0.00  0.00    -0.299 N 
ATOM     25  H   UNL     1      -1.930   0.274   1.761  0.00  0.00    +0.150 HD
BRANCH  24  26
ATOM     26  C   UNL     1      -3.674  -0.582   0.902  0.00  0.00    +0.121 C 
ATOM     27  C   UNL     1      -3.756  -2.099   0.719  0.00  0.00    +0.048 C 
BRANCH  26  28
ATOM     28  C   UNL     1      -4.382  -0.186   2.199  0.00  0.00    +0.020 C 
ATOM     29  C   UNL     1      -4.408   1.339   2.320  0.00  0.00    +0.010 C 
ATOM     30  C   UNL     1      -5.816  -0.720   2.181  0.00  0.00    +0.010 C 
ENDBRANCH  26  28
BRANCH  26  31
ATOM     31  C   UNL     1      -4.324   0.086  -0.237  0.00  0.00    +0.088 C 
ATOM     32  N   UNL     1      -4.826   0.601  -1.116  0.00  0.00    -0.194 NA
ENDBRANCH  26  31
ENDBRANCH  24  26
ENDBRANCH  21  22
ENDBRANCH   1  21
TORSDOF 7
