REMARK  Name = ZINC01275734
REMARK  9 active torsions:
REMARK  status: ('A' for Active; 'I' for Inactive)
REMARK    1  A    between atoms: C_1  and  C_2
REMARK    2  A    between atoms: C_2  and  C_39
REMARK    3  A    between atoms: N_11  and  C_30
REMARK    4  A    between atoms: C_14  and  S_17
REMARK    5  A    between atoms: S_17  and  C_18
REMARK    6  A    between atoms: C_18  and  C_19
REMARK    7  A    between atoms: N_21  and  C_22
REMARK    8  A    between atoms: C_22  and  C_23
REMARK    9  A    between atoms: C_23  and  C_24
REMARK                            x       y       z     vdW  Elec       q    Type
REMARK                         _______ _______ _______ _____ _____    ______ ____
ROOT
ATOM      1  C   UNL     1      -3.183  -0.202  -0.717  0.00  0.00    +0.041 C 
ATOM      2  C   UNL     1      -2.324  -1.459  -0.576  0.00  0.00    +0.068 C 
ATOM      3  C   UNL     1      -1.289  -1.496  -1.707  0.00  0.00    +0.071 C 
ATOM      4  C   UNL     1      -0.300  -2.612  -1.398  0.00  0.00    -0.018 A 
ATOM      5  C   UNL     1      -0.218  -3.120  -0.150  0.00  0.00    +0.021 A 
ATOM      6  S   UNL     1       1.032  -4.363  -0.256  0.00  0.00    -0.072 S 
ATOM      7  C   UNL     1       1.431  -4.221  -1.875  0.00  0.00    +0.102 A 
ATOM      8  C   UNL     1       0.610  -3.212  -2.369  0.00  0.00    +0.075 A 
ATOM      9  C   UNL     1       0.765  -2.882  -3.804  0.00  0.00    +0.268 A 
ATOM     10  O   UNL     1       0.081  -2.009  -4.307  0.00  0.00    -0.266 OA
ATOM     11  N   UNL     1       1.662  -3.549  -4.550  0.00  0.00    -0.245 N 
ATOM     12  C   UNL     1       2.454  -4.547  -4.003  0.00  0.00    +0.245 A 
ATOM     13  N   UNL     1       2.338  -4.877  -2.679  0.00  0.00    -0.249 N 
ATOM     14  C   UNL     1       3.232  -5.882  -2.419  0.00  0.00    +0.198 A 
ATOM     15  N   UNL     1       3.869  -6.158  -3.530  0.00  0.00    -0.120 NA
ATOM     16  N   UNL     1       3.377  -5.314  -4.534  0.00  0.00    -0.109 NA
ATOM     17  C   UNL     1      -1.031  -2.689   1.031  0.00  0.00    +0.203 C 
ATOM     18  O   UNL     1      -1.667  -1.445   0.694  0.00  0.00    -0.368 OA
ATOM     19  C   UNL     1      -3.217  -2.697  -0.671  0.00  0.00    +0.041 C 
ENDROOT
BRANCH  11  20
ATOM     20  C   UNL     1       1.799  -3.229  -5.906  0.00  0.00    +0.054 A 
ATOM     21  C   UNL     1       1.028  -3.885  -6.857  0.00  0.00    +0.026 A 
ATOM     22  C   UNL     1       1.165  -3.569  -8.194  0.00  0.00    +0.003 A 
ATOM     23  C   UNL     1       2.070  -2.600  -8.587  0.00  0.00    +0.020 A 
ATOM     24  C   UNL     1       2.840  -1.944  -7.643  0.00  0.00    +0.043 A 
ATOM     25  C   UNL     1       2.703  -2.253  -6.302  0.00  0.00    +0.046 A 
ATOM     26 CL   UNL     1       3.975  -0.729  -8.141  0.00  0.00    -0.083 Cl
ENDBRANCH  11  20
BRANCH  14  27
ATOM     27  S   UNL     1       3.483  -6.667  -0.861  0.00  0.00    -0.076 S 
BRANCH  27  28
ATOM     28  C   UNL     1       4.783  -7.889  -1.189  0.00  0.00    +0.173 C 
BRANCH  28  29
ATOM     29  C   UNL     1       5.097  -8.640   0.079  0.00  0.00    +0.223 C 
ATOM     30  O   UNL     1       4.503  -8.377   1.103  0.00  0.00    -0.275 OA
ATOM     31  N   UNL     1       6.039  -9.604   0.075  0.00  0.00    -0.314 N 
ATOM     32  H   UNL     1       6.514  -9.815  -0.744  0.00  0.00    +0.149 HD
BRANCH  31  33
ATOM     33  C   UNL     1       6.345 -10.335   1.307  0.00  0.00    +0.109 C 
BRANCH  33  34
ATOM     34  C   UNL     1       7.441 -11.366   1.031  0.00  0.00    +0.054 C 
BRANCH  34  35
ATOM     35  C   UNL     1       7.755 -12.117   2.299  0.00  0.00    -0.046 A 
ATOM     36  C   UNL     1       8.730 -11.646   3.158  0.00  0.00    +0.004 A 
ATOM     37  C   UNL     1       9.018 -12.335   4.321  0.00  0.00    +0.000 A 
ATOM     38  C   UNL     1       8.332 -13.496   4.625  0.00  0.00    +0.000 A 
ATOM     39  C   UNL     1       7.357 -13.967   3.766  0.00  0.00    +0.000 A 
ATOM     40  C   UNL     1       7.065 -13.275   2.605  0.00  0.00    +0.004 A 
ENDBRANCH  34  35
ENDBRANCH  33  34
ENDBRANCH  31  33
ENDBRANCH  28  29
ENDBRANCH  27  28
ENDBRANCH  14  27
TORSDOF 7
