REMARK  Name = ZINC39007115
REMARK  8 active torsions:
REMARK  status: ('A' for Active; 'I' for Inactive)
REMARK    1  A    between atoms: C_1  and  O_2
REMARK    2  A    between atoms: O_2  and  C_3
REMARK    3  A    between atoms: C_6  and  C_17
REMARK    4  A    between atoms: C_8  and  O_9
REMARK    5  A    between atoms: O_9  and  C_10
REMARK    6  A    between atoms: C_10  and  C_11
REMARK    7  A    between atoms: N_18  and  N_19
REMARK    8  A    between atoms: C_20  and  C_26
REMARK                            x       y       z     vdW  Elec       q    Type
REMARK                         _______ _______ _______ _____ _____    ______ ____
ROOT
ATOM      1  C   UNL     1       0.407  -0.658  -1.162  0.00  0.00    +0.162 A 
ATOM      2  C   UNL     1       1.159   0.111  -2.038  0.00  0.00    +0.050 A 
ATOM      3  C   UNL     1       1.781  -0.479  -3.118  0.00  0.00    +0.013 A 
ATOM      4  C   UNL     1       1.655  -1.854  -3.332  0.00  0.00    -0.002 A 
ATOM      5  C   UNL     1       0.897  -2.628  -2.449  0.00  0.00    +0.059 A 
ATOM      6  C   UNL     1       0.281  -2.030  -1.365  0.00  0.00    +0.163 A 
ENDROOT
BRANCH   1   8
ATOM      7  C   UNL     1      -0.035   1.339   0.050  0.00  0.00    +0.277 C 
ATOM      8  O   UNL     1      -0.205  -0.071  -0.099  0.00  0.00    -0.491 OA
ENDBRANCH   1   8
BRANCH   4   9
ATOM      9  C   UNL     1       2.318  -2.486  -4.486  0.00  0.00    +0.138 C 
ATOM     10  N   UNL     1       3.022  -1.765  -5.306  0.00  0.00    -0.183 NA
BRANCH  10  11
ATOM     11  N   UNL     1       3.735  -2.379  -6.344  0.00  0.00    -0.172 N 
ATOM     12  C   UNL     1       4.490  -1.727  -7.429  0.00  0.00    +0.265 C 
ATOM     13  N   UNL     1       5.024  -2.852  -8.213  0.00  0.00    -0.189 NA
ATOM     14  N   UNL     1       4.649  -3.900  -7.682  0.00  0.00    -0.219 N 
ATOM     15  C   UNL     1       3.890  -3.702  -6.571  0.00  0.00    +0.174 C 
ATOM     16  S   UNL     1       3.223  -4.948  -5.604  0.00  0.00    -0.015 S 
ATOM     17  H   UNL     1       4.877  -4.780  -8.021  0.00  0.00    +0.176 HD
BRANCH  12  18
ATOM     18  C   UNL     1       5.611  -0.892  -6.866  0.00  0.00    +0.012 A 
ATOM     19  C   UNL     1       5.527  -0.402  -5.576  0.00  0.00    +0.008 A 
ATOM     20  C   UNL     1       6.556   0.364  -5.059  0.00  0.00    +0.000 A 
ATOM     21  C   UNL     1       7.669   0.640  -5.832  0.00  0.00    +0.001 A 
ATOM     22  C   UNL     1       7.753   0.150  -7.122  0.00  0.00    +0.015 A 
ATOM     23  C   UNL     1       6.727  -0.621  -7.638  0.00  0.00    +0.025 A 
ATOM     24 BR   UNL     1       6.845  -1.297  -9.399  0.00  0.00    -0.050 Br
ENDBRANCH  12  18
ENDBRANCH  10  11
ENDBRANCH   4   9
BRANCH   6  25
ATOM     25  O   UNL     1      -0.453  -2.782  -0.501  0.00  0.00    -0.484 OA
BRANCH  25  26
ATOM     26  C   UNL     1      -0.539  -4.182  -0.771  0.00  0.00    +0.264 C 
BRANCH  26  27
ATOM     27  C   UNL     1      -1.386  -4.846   0.284  0.00  0.00    -0.010 A 
ATOM     28  C   UNL     1      -0.798  -5.333   1.437  0.00  0.00    +0.007 A 
ATOM     29  C   UNL     1      -1.575  -5.942   2.405  0.00  0.00    +0.000 A 
ATOM     30  C   UNL     1      -2.940  -6.063   2.221  0.00  0.00    +0.000 A 
ATOM     31  C   UNL     1      -3.528  -5.574   1.069  0.00  0.00    +0.000 A 
ATOM     32  C   UNL     1      -2.752  -4.962   0.103  0.00  0.00    +0.007 A 
ENDBRANCH  26  27
ENDBRANCH  25  26
ENDBRANCH   6  25
TORSDOF 7
