REMARK  Name = ZINC39666617
REMARK  11 active torsions:
REMARK  status: ('A' for Active; 'I' for Inactive)
REMARK    1  A    between atoms: C_1  and  C_2
REMARK    2  A    between atoms: C_2  and  C_4
REMARK    3  A    between atoms: C_2  and  O_31
REMARK    4  A    between atoms: C_4  and  N_5
REMARK    5  A    between atoms: C_6  and  C_8
REMARK    6  A    between atoms: C_19  and  C_21
REMARK    7  A    between atoms: C_21  and  C_22
REMARK    8  A    between atoms: C_22  and  C_23
REMARK    9  A    between atoms: C_26  and  O_29
REMARK   10  A    between atoms: O_29  and  C_30
REMARK   11  A    between atoms: O_31  and  C_32
REMARK                            x       y       z     vdW  Elec       q    Type
REMARK                         _______ _______ _______ _____ _____    ______ ____
ROOT
ATOM      1  C   UNL     1       1.383  -4.285   1.472  0.00  0.00    +0.100 C 
ATOM      2  C   UNL     1      -0.043  -4.843   1.260  0.00  0.00    +0.121 C 
ATOM      3  N   UNL     1      -0.013  -6.189   1.879  0.00  0.00    -0.300 N 
ATOM      4  C   UNL     1       0.800  -6.013   3.106  0.00  0.00    +0.115 C 
ATOM      5  C   UNL     1       1.932  -5.054   2.685  0.00  0.00    -0.004 C 
ATOM      6  C   UNL     1       2.255  -4.089   3.822  0.00  0.00    -0.010 C 
ATOM      7  C   UNL     1       2.854  -4.870   4.995  0.00  0.00    -0.082 C 
ATOM      8  N   UNL     1       4.070  -5.562   4.553  0.00  0.00    +0.379 N 
ATOM      9  C   UNL     1       3.736  -6.556   3.525  0.00  0.00    -0.082 C 
ATOM     10  C   UNL     1       3.175  -5.846   2.290  0.00  0.00    -0.010 C 
ATOM     11  C   UNL     1      -0.594  -7.319   1.428  0.00  0.00    +0.216 C 
ATOM     12  O   UNL     1      -0.478  -8.351   2.054  0.00  0.00    -0.276 OA
ATOM     13  H   UNL     1       4.719  -4.890   4.171  0.00  0.00    -0.086 HD
ATOM     14  H   UNL     1       4.496  -6.027   5.341  0.00  0.00    -0.086 HD
ENDROOT
BRANCH   1  16
ATOM     15  N   UNL     1       2.376  -2.019   1.456  0.00  0.00    -0.312 N 
ATOM     16  C   UNL     1       1.329  -2.808   1.768  0.00  0.00    +0.218 C 
ATOM     17  O   UNL     1       0.343  -2.329   2.287  0.00  0.00    -0.275 OA
ATOM     18  H   UNL     1       3.165  -2.402   1.042  0.00  0.00    +0.149 HD
BRANCH  15  19
ATOM     19  C   UNL     1       2.324  -0.584   1.744  0.00  0.00    +0.148 C 
BRANCH  19  21
ATOM     20  C   UNL     1       3.627   1.548   1.708  0.00  0.00    +0.053 C 
ATOM     21  C   UNL     1       3.630   0.074   1.296  0.00  0.00    +0.187 C 
BRANCH  21  22
ATOM     22  O   UNL     1       3.749  -0.022  -0.125  0.00  0.00    -0.486 OA
BRANCH  22  23
ATOM     23  C   UNL     1       5.003   0.030  -0.645  0.00  0.00    +0.139 A 
ATOM     24  C   UNL     1       6.088   0.286   0.182  0.00  0.00    +0.047 A 
ATOM     25  C   UNL     1       7.362   0.339  -0.348  0.00  0.00    +0.004 A 
ATOM     26  C   UNL     1       7.558   0.138  -1.702  0.00  0.00    +0.002 A 
ATOM     27  C   UNL     1       6.480  -0.117  -2.529  0.00  0.00    +0.023 A 
ATOM     28  C   UNL     1       5.203  -0.177  -2.003  0.00  0.00    +0.083 A 
ATOM     29 CL   UNL     1       3.850  -0.505  -3.040  0.00  0.00    -0.080 Cl
ENDBRANCH  22  23
ENDBRANCH  21  22
ENDBRANCH  19  21
ENDBRANCH  15  19
ENDBRANCH   1  16
BRANCH  11  30
ATOM     30  C   UNL     1      -1.387  -7.298   0.147  0.00  0.00    +0.100 C 
BRANCH  30  31
ATOM     31  C   UNL     1      -1.936  -8.698  -0.135  0.00  0.00    +0.044 C 
BRANCH  31  32
ATOM     32  C   UNL     1      -2.729  -8.678  -1.416  0.00  0.00    -0.047 A 
ATOM     33  C   UNL     1      -4.083  -8.400  -1.385  0.00  0.00    +0.007 A 
ATOM     34  C   UNL     1      -4.813  -8.381  -2.558  0.00  0.00    +0.046 A 
ATOM     35  C   UNL     1      -4.186  -8.641  -3.768  0.00  0.00    +0.120 A 
ATOM     36  C   UNL     1      -2.827  -8.920  -3.797  0.00  0.00    +0.046 A 
ATOM     37  C   UNL     1      -2.101  -8.932  -2.622  0.00  0.00    +0.007 A 
BRANCH  35  38
ATOM     38  O   UNL     1      -4.902  -8.624  -4.923  0.00  0.00    -0.495 OA
ATOM     39  C   UNL     1      -4.190  -8.901  -6.131  0.00  0.00    +0.277 C 
ENDBRANCH  35  38
ENDBRANCH  31  32
ENDBRANCH  30  31
ENDBRANCH  11  30
TORSDOF 9
