REMARK  Name = ZINC59008497
REMARK  7 active torsions:
REMARK  status: ('A' for Active; 'I' for Inactive)
REMARK    1  A    between atoms: C_1  and  C_2
REMARK    2  A    between atoms: C_2  and  C_23
REMARK    3  A    between atoms: N_5  and  C_9
REMARK    4  A    between atoms: C_9  and  C_10
REMARK    5  A    between atoms: C_13  and  C_15
REMARK    6  A    between atoms: C_15  and  C_16
REMARK    7  A    between atoms: C_26  and  N_29
REMARK                            x       y       z     vdW  Elec       q    Type
REMARK                         _______ _______ _______ _____ _____    ______ ____
ROOT
ATOM      1  C   UNL     1      -0.019   1.526   0.010  0.00  0.00    +0.047 C 
ATOM      2  C   UNL     1       0.002  -0.004   0.002  0.00  0.00    +0.135 C 
ATOM      3  C   UNL     1       0.815  -0.520  -1.169  0.00  0.00    +0.251 C 
ATOM      4  O   UNL     1       0.595  -0.342  -2.348  0.00  0.00    -0.272 OA
ATOM      5  N   UNL     1       1.833  -1.217  -0.627  0.00  0.00    -0.218 N 
ATOM      6  C   UNL     1       1.777  -1.214   0.710  0.00  0.00    +0.310 C 
ATOM      7  O   UNL     1       2.586  -1.776   1.421  0.00  0.00    -0.252 OA
ATOM      8  N   UNL     1       0.724  -0.519   1.178  0.00  0.00    -0.281 N 
ATOM      9  H   UNL     1       0.487  -0.383   2.109  0.00  0.00    +0.152 HD
ENDROOT
BRANCH   2  10
ATOM     10  C   UNL     1      -1.401  -0.551  -0.040  0.00  0.00    -0.015 A 
ATOM     11  C   UNL     1      -2.005  -0.815  -1.256  0.00  0.00    +0.008 A 
ATOM     12  C   UNL     1      -3.292  -1.317  -1.294  0.00  0.00    +0.033 A 
ATOM     13  C   UNL     1      -3.976  -1.556  -0.117  0.00  0.00    +0.126 A 
ATOM     14  C   UNL     1      -3.372  -1.294   1.099  0.00  0.00    +0.033 A 
ATOM     15  C   UNL     1      -2.083  -0.796   1.137  0.00  0.00    +0.008 A 
BRANCH  13  16
ATOM     16  N   UNL     1      -5.355  -2.093  -0.158  0.00  0.00    +0.056 N 
ATOM     17  O   UNL     1      -5.883  -2.322  -1.221  0.00  0.00    -0.126 OA
ATOM     18  O   UNL     1      -5.953  -2.303   0.871  0.00  0.00    -0.126 OA
ENDBRANCH  13  16
ENDBRANCH   2  10
BRANCH   5  19
ATOM     19  C   UNL     1       2.871  -1.896  -1.406  0.00  0.00    +0.173 C 
BRANCH  19  20
ATOM     20  C   UNL     1       4.020  -0.950  -1.644  0.00  0.00    +0.067 A 
ATOM     21  C   UNL     1       5.109  -0.938  -0.834  0.00  0.00    +0.071 A 
ATOM     22  S   UNL     1       6.079   0.347  -1.605  0.00  0.00    -0.080 S 
ATOM     23  C   UNL     1       5.013   0.724  -2.852  0.00  0.00    +0.083 A 
ATOM     24  N   UNL     1       4.015  -0.100  -2.651  0.00  0.00    -0.247 NA
BRANCH  23  25
ATOM     25  C   UNL     1       5.171   1.756  -3.939  0.00  0.00    +0.098 C 
BRANCH  25  26
ATOM     26  C   UNL     1       4.598   3.069  -3.473  0.00  0.00    -0.041 A 
ATOM     27  C   UNL     1       3.266   3.362  -3.700  0.00  0.00    +0.005 A 
ATOM     28  C   UNL     1       2.740   4.566  -3.273  0.00  0.00    +0.020 A 
ATOM     29  C   UNL     1       3.546   5.479  -2.617  0.00  0.00    +0.041 A 
ATOM     30  C   UNL     1       4.879   5.186  -2.389  0.00  0.00    +0.020 A 
ATOM     31  C   UNL     1       5.402   3.979  -2.812  0.00  0.00    +0.005 A 
ATOM     32 CL   UNL     1       2.886   6.992  -2.080  0.00  0.00    -0.084 Cl
ENDBRANCH  25  26
ENDBRANCH  23  25
ENDBRANCH  19  20
ENDBRANCH   5  19
TORSDOF 6
