REMARK  Name = ZINC05275474
REMARK  4 active torsions:
REMARK  status: ('A' for Active; 'I' for Inactive)
REMARK    1  A    between atoms: C_1  and  C_2
REMARK    2  A    between atoms: C_4  and  C_19
REMARK    3  A    between atoms: C_13  and  O_15
REMARK    4  A    between atoms: C_24  and  O_25
REMARK                            x       y       z     vdW  Elec       q    Type
REMARK                         _______ _______ _______ _____ _____    ______ ____
ROOT
ATOM      1  C   UNL     1      -0.019   1.526   0.010  0.00  0.00    +0.015 C 
ATOM      2  C   UNL     1       0.002  -0.004   0.002  0.00  0.00    +0.066 C 
ATOM      3  C   UNL     1      -1.431  -0.540   0.042  0.00  0.00    +0.065 C 
ATOM      4  C   UNL     1      -1.412  -2.020   0.330  0.00  0.00    +0.006 A 
ATOM      5  C   UNL     1      -2.546  -2.767   0.047  0.00  0.00    +0.057 A 
ATOM      6  C   UNL     1      -2.571  -4.126   0.304  0.00  0.00    +0.167 A 
ATOM      7  C   UNL     1      -1.449  -4.747   0.850  0.00  0.00    +0.170 A 
ATOM      8  C   UNL     1      -0.319  -4.002   1.129  0.00  0.00    +0.095 A 
ATOM      9  C   UNL     1      -0.297  -2.635   0.869  0.00  0.00    +0.131 A 
ATOM     10  O   UNL     1       0.836  -1.940   1.155  0.00  0.00    -0.463 OA
ATOM     11  C   UNL     1       0.743  -0.518   1.243  0.00  0.00    +0.308 C 
ATOM     12  O   UNL     1      -1.721  -6.076   1.008  0.00  0.00    -0.452 OA
ATOM     13  C   UNL     1      -2.868  -6.336   0.177  0.00  0.00    +0.466 C 
ATOM     14  O   UNL     1      -3.545  -5.066   0.121  0.00  0.00    -0.453 OA
ENDROOT
BRANCH   3  15
ATOM     15  C   UNL     1      -2.095  -0.296  -1.288  0.00  0.00    +0.002 A 
ATOM     16  C   UNL     1      -1.561  -0.844  -2.438  0.00  0.00    +0.008 A 
ATOM     17  C   UNL     1      -2.173  -0.625  -3.659  0.00  0.00    +0.001 A 
ATOM     18  C   UNL     1      -3.314   0.153  -3.733  0.00  0.00    +0.004 A 
ATOM     19  C   UNL     1      -3.849   0.707  -2.586  0.00  0.00    +0.046 A 
ATOM     20  C   UNL     1      -3.240   0.484  -1.360  0.00  0.00    +0.121 A 
BRANCH  20  21
ATOM     21  O   UNL     1      -3.765   1.028  -0.230  0.00  0.00    -0.506 OA
ATOM     22  H   UNL     1      -3.419   1.906  -0.019  0.00  0.00    +0.292 HD
ENDBRANCH  20  21
ENDBRANCH   3  15
BRANCH  11  23
ATOM     23  O   UNL     1       0.019  -0.155   2.421  0.00  0.00    -0.358 OA
ATOM     24  H   UNL     1       0.433  -0.450   3.243  0.00  0.00    +0.214 HD
ENDBRANCH  11  23
TORSDOF 3
