REMARK  Name = ZINC33335208
REMARK  8 active torsions:
REMARK  status: ('A' for Active; 'I' for Inactive)
REMARK    1  A    between atoms: C_1  and  C_2
REMARK    2  A    between atoms: C_3  and  C_29
REMARK    3  A    between atoms: C_4  and  N_9
REMARK    4  A    between atoms: C_6  and  C_8
REMARK    5  A    between atoms: C_16  and  C_18
REMARK    6  A    between atoms: C_19  and  C_20
REMARK    7  A    between atoms: C_23  and  N_26
REMARK    8  A    between atoms: C_29  and  C_30
REMARK                            x       y       z     vdW  Elec       q    Type
REMARK                         _______ _______ _______ _____ _____    ______ ____
ROOT
ATOM      1  N   UNL     1      -2.922   1.518  -0.296  0.00  0.00    -0.313 N 
ATOM      2  C   UNL     1      -2.047   1.990  -1.368  0.00  0.00    +0.108 C 
ATOM      3  C   UNL     1      -0.972   2.896  -0.922  0.00  0.00    +0.038 C 
ATOM      4  C   UNL     1      -0.036   2.152   0.064  0.00  0.00    +0.109 C 
ATOM      5  N   UNL     1      -0.739   1.907   1.305  0.00  0.00    -0.296 N 
ATOM      6  C   UNL     1      -1.544   0.691   1.545  0.00  0.00    +0.127 C 
ATOM      7  C   UNL     1      -2.385   0.317   0.310  0.00  0.00    +0.125 C 
ATOM      8  C   UNL     1      -0.653   2.827   2.286  0.00  0.00    +0.239 C 
ATOM      9  O   UNL     1      -1.154   2.605   3.373  0.00  0.00    -0.271 OA
ENDROOT
BRANCH   1  13
ATOM     10  C   UNL     1      -7.732   0.878   0.532  0.00  0.00    +0.064 C 
ATOM     11  C   UNL     1      -6.544   0.993  -0.387  0.00  0.00    +0.021 A 
ATOM     12  C   UNL     1      -5.279   1.200   0.129  0.00  0.00    +0.016 A 
ATOM     13  C   UNL     1      -4.209   1.305  -0.763  0.00  0.00    +0.128 A 
ATOM     14  N   UNL     1      -4.445   1.192  -2.067  0.00  0.00    -0.219 NA
ATOM     15  C   UNL     1      -5.667   0.989  -2.514  0.00  0.00    +0.106 A 
ATOM     16  N   UNL     1      -6.698   0.891  -1.699  0.00  0.00    -0.347 N 
ATOM     17  C   UNL     1      -5.893   0.867  -3.999  0.00  0.00    +0.086 C 
ATOM     18  H   UNL     1      -7.699   0.722  -2.123  0.00  0.00    +0.167 HD
BRANCH  12  19
ATOM     19  C   UNL     1      -5.060   1.315   1.615  0.00  0.00    +0.075 C 
BRANCH  19  20
ATOM     20  C   UNL     1      -5.119   2.766   2.020  0.00  0.00    -0.043 A 
ATOM     21  C   UNL     1      -3.990   3.558   1.917  0.00  0.00    +0.005 A 
ATOM     22  C   UNL     1      -4.045   4.890   2.283  0.00  0.00    +0.020 A 
ATOM     23  C   UNL     1      -5.226   5.427   2.763  0.00  0.00    +0.041 A 
ATOM     24  C   UNL     1      -6.353   4.632   2.872  0.00  0.00    +0.020 A 
ATOM     25  C   UNL     1      -6.299   3.302   2.500  0.00  0.00    +0.005 A 
ATOM     26 CL   UNL     1      -5.294   7.098   3.229  0.00  0.00    -0.084 Cl
ENDBRANCH  19  20
ENDBRANCH  12  19
ENDBRANCH   1  13
BRANCH   8  27
ATOM     27  C   UNL     1       0.040   4.093   2.044  0.00  0.00    +0.068 C 
ATOM     28  C   UNL     1       0.221   4.967   3.054  0.00  0.00    +0.013 C 
BRANCH  28  29
ATOM     29  C   UNL     1       0.918   6.240   2.810  0.00  0.00    -0.025 A 
ATOM     30  C   UNL     1       1.400   6.544   1.533  0.00  0.00    +0.010 A 
ATOM     31  C   UNL     1       2.048   7.741   1.312  0.00  0.00    +0.033 A 
ATOM     32  C   UNL     1       2.231   8.636   2.352  0.00  0.00    +0.126 A 
ATOM     33  C   UNL     1       1.761   8.340   3.620  0.00  0.00    +0.033 A 
ATOM     34  C   UNL     1       1.107   7.150   3.856  0.00  0.00    +0.010 A 
BRANCH  32  35
ATOM     35  N   UNL     1       2.932   9.916   2.107  0.00  0.00    +0.056 N 
ATOM     36  O   UNL     1       3.095  10.706   3.019  0.00  0.00    -0.126 OA
ATOM     37  O   UNL     1       3.346  10.180   0.992  0.00  0.00    -0.126 OA
ENDBRANCH  32  35
ENDBRANCH  28  29
ENDBRANCH   8  27
TORSDOF 6
