REMARK  Name = ZINC66982163
REMARK  7 active torsions:
REMARK  status: ('A' for Active; 'I' for Inactive)
REMARK    1  A    between atoms: C_1  and  C_2
REMARK    2  A    between atoms: C_2  and  C_4
REMARK    3  A    between atoms: C_2  and  N_11
REMARK    4  A    between atoms: N_11  and  C_12
REMARK    5  A    between atoms: N_15  and  C_16
REMARK    6  A    between atoms: C_18  and  N_24
REMARK    7  A    between atoms: C_25  and  C_27
REMARK                            x       y       z     vdW  Elec       q    Type
REMARK                         _______ _______ _______ _____ _____    ______ ____
ROOT
ATOM      1  N   UNL     1       1.642  -0.816   2.175  0.00  0.00    -0.282 N 
ATOM      2  C   UNL     1       1.560  -0.559   3.615  0.00  0.00    +0.134 C 
ATOM      3  C   UNL     1       2.572  -1.665   1.693  0.00  0.00    +0.307 C 
ATOM      4  O   UNL     1       2.640  -1.877   0.498  0.00  0.00    -0.252 OA
ATOM      5  N   UNL     1       3.426  -2.278   2.537  0.00  0.00    -0.267 N 
ATOM      6  H   UNL     1       3.407  -2.068   3.483  0.00  0.00    +0.156 HD
ENDROOT
BRANCH   5   7
ATOM      7  C   UNL     1       4.341  -3.219   2.046  0.00  0.00    +0.072 A 
ATOM      8  C   UNL     1       4.883  -3.064   0.778  0.00  0.00    +0.052 A 
ATOM      9  C   UNL     1       5.789  -3.997   0.295  0.00  0.00    +0.071 A 
ATOM     10  C   UNL     1       6.152  -5.084   1.081  0.00  0.00    +0.147 A 
ATOM     11  C   UNL     1       5.610  -5.237   2.345  0.00  0.00    +0.080 A 
ATOM     12  C   UNL     1       4.711  -4.305   2.831  0.00  0.00    +0.147 A 
ATOM     13  F   UNL     1       4.188  -4.453   4.068  0.00  0.00    -0.203 F 
ATOM     14  F   UNL     1       7.035  -5.993   0.611  0.00  0.00    -0.203 F 
BRANCH   9  15
ATOM     15  N   UNL     1       6.338  -3.843  -0.986  0.00  0.00    -0.283 N 
ATOM     16  C   UNL     1       6.534  -2.609  -1.491  0.00  0.00    +0.214 C 
ATOM     17  O   UNL     1       6.319  -1.632  -0.806  0.00  0.00    -0.276 OA
ATOM     18  C   UNL     1       7.020  -2.444  -2.908  0.00  0.00    +0.109 C 
ATOM     19  H   UNL     1       6.576  -4.625  -1.508  0.00  0.00    +0.155 HD
ENDBRANCH   9  15
ENDBRANCH   5   7
BRANCH   1  21
ATOM     20  C   UNL     1       0.973   1.359   1.276  0.00  0.00    +0.033 C 
ATOM     21  C   UNL     1       0.714  -0.149   1.258  0.00  0.00    +0.107 C 
BRANCH  21  22
ATOM     22  C   UNL     1      -0.703  -0.421   1.692  0.00  0.00    +0.008 A 
ATOM     23  C   UNL     1      -1.439   0.573   2.311  0.00  0.00    +0.008 A 
ATOM     24  C   UNL     1      -2.739   0.324   2.710  0.00  0.00    +0.000 A 
ATOM     25  C   UNL     1      -3.305  -0.918   2.491  0.00  0.00    +0.003 A 
ATOM     26  C   UNL     1      -2.571  -1.913   1.872  0.00  0.00    +0.039 A 
ATOM     27  C   UNL     1      -1.271  -1.663   1.467  0.00  0.00    +0.128 A 
ATOM     28  F   UNL     1      -0.554  -2.633   0.858  0.00  0.00    -0.205 F 
ENDBRANCH  21  22
ENDBRANCH   1  21
TORSDOF 4
