REMARK  Name = ZINC44649523
REMARK  9 active torsions:
REMARK  status: ('A' for Active; 'I' for Inactive)
REMARK    1  A    between atoms: C_1  and  C_2
REMARK    2  A    between atoms: C_2  and  C_4
REMARK    3  A    between atoms: C_2  and  S_15
REMARK    4  A    between atoms: C_4  and  C_6
REMARK    5  A    between atoms: S_15  and  C_16
REMARK    6  A    between atoms: C_20  and  C_29
REMARK    7  A    between atoms: N_21  and  C_22
REMARK    8  A    between atoms: C_22  and  C_23
REMARK    9  A    between atoms: C_29  and  N_30
REMARK                            x       y       z     vdW  Elec       q    Type
REMARK                         _______ _______ _______ _____ _____    ______ ____
ROOT
ATOM      1  C   UNL     1       2.582  -0.025   1.234  0.00  0.00    +0.237 C 
ATOM      2  N   UNL     1       2.611   1.437   1.058  0.00  0.00    -0.238 N 
ATOM      3  N   UNL     1       3.143   1.665  -0.217  0.00  0.00    -0.176 NA
ATOM      4  C   UNL     1       3.428   0.565  -0.812  0.00  0.00    +0.101 C 
ATOM      5  N   UNL     1       3.134  -0.544  -0.029  0.00  0.00    -0.286 N 
ATOM      6  H   UNL     1       2.321   2.107   1.697  0.00  0.00    +0.171 HD
ENDROOT
BRANCH   1   7
ATOM      7  S   UNL     1       0.879  -0.605   1.472  0.00  0.00    -0.107 S 
BRANCH   7   9
ATOM      8  C   UNL     1      -0.019   1.526   0.010  0.00  0.00    +0.027 C 
ATOM      9  C   UNL     1       0.002  -0.004   0.002  0.00  0.00    +0.117 C 
BRANCH   9  10
ATOM     10  C   UNL     1      -1.412  -0.526   0.013  0.00  0.00    +0.174 C 
ATOM     11  O   UNL     1      -1.940  -0.828   1.064  0.00  0.00    -0.291 OA
BRANCH  10  12
ATOM     12  C   UNL     1      -2.122  -0.663  -1.199  0.00  0.00    +0.024 C 
ATOM     13  C   UNL     1      -3.418  -1.118  -1.361  0.00  0.00    +0.006 A 
ATOM     14  C   UNL     1      -4.402  -1.567  -0.449  0.00  0.00    +0.010 A 
ATOM     15  C   UNL     1      -5.615  -1.963  -0.895  0.00  0.00    +0.001 A 
ATOM     16  C   UNL     1      -5.958  -1.952  -2.257  0.00  0.00    +0.002 A 
ATOM     17  C   UNL     1      -5.091  -1.543  -3.209  0.00  0.00    +0.026 A 
ATOM     18  C   UNL     1      -3.748  -1.093  -2.808  0.00  0.00    +0.043 A 
ATOM     19  N   UNL     1      -2.734  -0.656  -3.499  0.00  0.00    -0.380 N 
ATOM     20  C   UNL     1      -1.628  -0.339  -2.591  0.00  0.00    +0.152 C 
ATOM     21  H   UNL     1      -2.716  -0.554  -4.464  0.00  0.00    +0.160 HD
ENDBRANCH  10  12
ENDBRANCH   9  10
ENDBRANCH   7   9
ENDBRANCH   1   7
BRANCH   5  22
ATOM     22  C   UNL     1       3.330  -1.951  -0.387  0.00  0.00    +0.144 C 
BRANCH  22  23
ATOM     23  C   UNL     1       2.090  -2.476  -1.064  0.00  0.00    -0.030 A 
ATOM     24  C   UNL     1       1.080  -3.043  -0.310  0.00  0.00    +0.005 A 
ATOM     25  C   UNL     1      -0.058  -3.525  -0.931  0.00  0.00    +0.000 A 
ATOM     26  C   UNL     1      -0.185  -3.438  -2.304  0.00  0.00    +0.000 A 
ATOM     27  C   UNL     1       0.825  -2.870  -3.058  0.00  0.00    +0.000 A 
ATOM     28  C   UNL     1       1.961  -2.385  -2.437  0.00  0.00    +0.005 A 
ENDBRANCH  22  23
ENDBRANCH   5  22
BRANCH   4  29
ATOM     29  C   UNL     1       4.015   0.486  -2.198  0.00  0.00    -0.004 C 
BRANCH  29  30
ATOM     30  N   UNL     1       4.198   1.842  -2.731  0.00  0.00    +0.384 N 
ATOM     31  C   UNL     1       2.888   2.484  -2.892  0.00  0.00    -0.078 C 
ATOM     32  C   UNL     1       3.077   3.926  -3.369  0.00  0.00    -0.019 C 
ATOM     33  C   UNL     1       3.813   3.920  -4.713  0.00  0.00    -0.004 C 
ATOM     34  C   UNL     1       5.145   3.182  -4.551  0.00  0.00    -0.019 C 
ATOM     35  C   UNL     1       4.879   1.768  -4.029  0.00  0.00    -0.078 C 
ATOM     36  H   UNL     1       4.759   2.382  -2.089  0.00  0.00    -0.081 HD
ENDBRANCH  29  30
ENDBRANCH   4  29
TORSDOF 8
