REMARK  Name = ZINC42910203
REMARK  5 active torsions:
REMARK  status: ('A' for Active; 'I' for Inactive)
REMARK    1  A    between atoms: C_4  and  C_7
REMARK    2  A    between atoms: C_7  and  C_8
REMARK    3  A    between atoms: C_8  and  C_24
REMARK    4  A    between atoms: N_11  and  C_15
REMARK    5  A    between atoms: C_15  and  N_16
REMARK                            x       y       z     vdW  Elec       q    Type
REMARK                         _______ _______ _______ _____ _____    ______ ____
ROOT
ATOM      1  C   UNL     1       3.954  -1.024   1.431  0.00  0.00    +0.142 C 
ATOM      2  C   UNL     1       3.887   0.378   2.004  0.00  0.00    +0.250 C 
ATOM      3  O   UNL     1       4.271   1.402   1.481  0.00  0.00    -0.272 OA
ATOM      4  N   UNL     1       3.310   0.249   3.215  0.00  0.00    -0.241 N 
ATOM      5  C   UNL     1       3.007  -1.026   3.484  0.00  0.00    +0.308 C 
ATOM      6  O   UNL     1       2.480  -1.392   4.516  0.00  0.00    -0.252 OA
ATOM      7  N   UNL     1       3.351  -1.858   2.485  0.00  0.00    -0.281 N 
ATOM      8  H   UNL     1       3.226  -2.820   2.462  0.00  0.00    +0.152 HD
ENDROOT
BRANCH   1   9
ATOM      9  C   UNL     1       5.384  -1.432   1.185  0.00  0.00    -0.015 A 
ATOM     10  C   UNL     1       5.961  -1.218  -0.053  0.00  0.00    +0.006 A 
ATOM     11  C   UNL     1       7.273  -1.592  -0.278  0.00  0.00    +0.000 A 
ATOM     12  C   UNL     1       8.008  -2.179   0.735  0.00  0.00    +0.000 A 
ATOM     13  C   UNL     1       7.431  -2.392   1.974  0.00  0.00    +0.000 A 
ATOM     14  C   UNL     1       6.121  -2.014   2.200  0.00  0.00    +0.006 A 
ENDBRANCH   1   9
BRANCH   1  15
ATOM     15  C   UNL     1       3.140  -1.117   0.139  0.00  0.00    +0.075 C 
BRANCH  15  19
ATOM     16  C   UNL     1      -0.925  -0.077   0.936  0.00  0.00    +0.000 A 
ATOM     17  C   UNL     1      -0.038   0.888   0.498  0.00  0.00    +0.000 A 
ATOM     18  C   UNL     1       1.277   0.552   0.240  0.00  0.00    +0.004 A 
ATOM     19  C   UNL     1       1.706  -0.750   0.421  0.00  0.00    -0.045 A 
ATOM     20  C   UNL     1       0.820  -1.715   0.860  0.00  0.00    +0.004 A 
ATOM     21  C   UNL     1      -0.497  -1.379   1.117  0.00  0.00    +0.000 A 
ENDBRANCH  15  19
ENDBRANCH   1  15
BRANCH   4  22
ATOM     22  C   UNL     1       3.048   1.367   4.125  0.00  0.00    +0.043 C 
BRANCH  22  23
ATOM     23  N   UNL     1       4.074   1.393   5.176  0.00  0.00    +0.390 N 
ATOM     24  C   UNL     1       5.386   1.658   4.570  0.00  0.00    -0.077 C 
ATOM     25  C   UNL     1       6.395   2.064   5.643  0.00  0.00    -0.019 C 
ATOM     26  C   UNL     1       6.856   0.818   6.408  0.00  0.00    -0.002 C 
ATOM     27  C   UNL     1       5.734   0.380   7.350  0.00  0.00    -0.000 C 
ATOM     28  C   UNL     1       5.150   1.614   8.041  0.00  0.00    -0.002 C 
ATOM     29  C   UNL     1       3.721   1.844   7.558  0.00  0.00    -0.019 C 
ATOM     30  C   UNL     1       3.750   2.447   6.148  0.00  0.00    -0.077 C 
ATOM     31  H   UNL     1       4.097   0.500   5.645  0.00  0.00    -0.079 HD
ENDBRANCH  22  23
ENDBRANCH   4  22
TORSDOF 5
