REMARK  Name = ZINC36146380
REMARK  14 active torsions:
REMARK  status: ('A' for Active; 'I' for Inactive)
REMARK    1  A    between atoms: C_1  and  C_2
REMARK    2  A    between atoms: C_2  and  C_3
REMARK    3  A    between atoms: C_3  and  C_4
REMARK    4  A    between atoms: C_4  and  O_6
REMARK    5  A    between atoms: O_6  and  C_7
REMARK    6  A    between atoms: C_7  and  C_8
REMARK    7  A    between atoms: C_8  and  C_10
REMARK    8  A    between atoms: C_8  and  O_35
REMARK    9  A    between atoms: C_10  and  N_11
REMARK   10  A    between atoms: N_11  and  C_12
REMARK   11  A    between atoms: N_11  and  C_20
REMARK   12  A    between atoms: C_12  and  C_13
REMARK   13  A    between atoms: C_20  and  C_21
REMARK   14  A    between atoms: C_24  and  C_27
REMARK                            x       y       z     vdW  Elec       q    Type
REMARK                         _______ _______ _______ _____ _____    ______ ____
ROOT
ATOM      1  N   UNL     1       3.084  -6.584  -4.590  0.00  0.00    +0.387 N 
ATOM      2  H   UNL     1       3.940  -6.053  -4.647  0.00  0.00    -0.081 HD
ENDROOT
BRANCH   1   3
ATOM      3  C   UNL     1       2.384  -6.253  -3.342  0.00  0.00    -0.043 C 
BRANCH   3   4
ATOM      4  C   UNL     1       3.330  -6.459  -2.157  0.00  0.00    +0.136 C 
BRANCH   4   5
ATOM      5  O   UNL     1       4.467  -5.605  -2.302  0.00  0.00    -0.390 OA
ATOM      6  H   UNL     1       4.258  -4.661  -2.258  0.00  0.00    +0.210 HD
ENDBRANCH   4   5
BRANCH   4   7
ATOM      7  C   UNL     1       2.599  -6.119  -0.857  0.00  0.00    +0.261 C 
BRANCH   7   8
ATOM      8  O   UNL     1       3.443  -6.421   0.257  0.00  0.00    -0.462 OA
BRANCH   8   9
ATOM      9  C   UNL     1       2.948  -6.179   1.480  0.00  0.00    +0.307 C 
ATOM     10  O   UNL     1       1.834  -5.726   1.603  0.00  0.00    -0.251 OA
BRANCH   9  11
ATOM     11  C   UNL     1       3.780  -6.473   2.702  0.00  0.00    +0.120 C 
BRANCH  11  13
ATOM     12  C   UNL     1       3.832  -6.408   5.199  0.00  0.00    +0.004 C 
ATOM     13  C   UNL     1       2.987  -6.110   3.959  0.00  0.00    +0.008 C 
ENDBRANCH  11  13
ENDBRANCH   9  11
ENDBRANCH   8   9
ENDBRANCH   7   8
ENDBRANCH   4   7
ENDBRANCH   3   4
ENDBRANCH   1   3
BRANCH   1  14
ATOM     14  C   UNL     1       2.225  -6.253  -5.736  0.00  0.00    -0.040 C 
BRANCH  14  15
ATOM     15  C   UNL     1       2.012  -4.762  -5.789  0.00  0.00    -0.029 A 
ATOM     16  C   UNL     1       0.815  -4.220  -5.361  0.00  0.00    +0.004 A 
ATOM     17  C   UNL     1       0.619  -2.852  -5.409  0.00  0.00    +0.000 A 
ATOM     18  C   UNL     1       1.619  -2.026  -5.886  0.00  0.00    +0.003 A 
ATOM     19  C   UNL     1       2.817  -2.566  -6.313  0.00  0.00    +0.038 A 
ATOM     20  C   UNL     1       3.017  -3.935  -6.260  0.00  0.00    +0.125 A 
ATOM     21  F   UNL     1       4.189  -4.464  -6.674  0.00  0.00    -0.205 F 
ENDBRANCH  14  15
ENDBRANCH   1  14
BRANCH   1  22
ATOM     22  C   UNL     1       3.396  -8.020  -4.611  0.00  0.00    -0.030 C 
BRANCH  22  23
ATOM     23  C   UNL     1       4.233  -8.342  -5.851  0.00  0.00    +0.194 C 
ATOM     24  C   UNL     1       4.541  -9.856  -5.933  0.00  0.00    +0.104 C 
ATOM     25  C   UNL     1       5.961  -9.874  -6.466  0.00  0.00    +0.091 C 
ATOM     26  N   UNL     1       6.459  -8.691  -6.332  0.00  0.00    -0.089 NA
ATOM     27  O   UNL     1       5.555  -7.777  -5.742  0.00  0.00    -0.392 OA
BRANCH  25  28
ATOM     28  C   UNL     1       6.655 -11.045  -7.039  0.00  0.00    +0.001 A 
ATOM     29  C   UNL     1       5.998 -12.273  -7.131  0.00  0.00    +0.011 A 
ATOM     30  C   UNL     1       6.650 -13.363  -7.667  0.00  0.00    +0.022 A 
ATOM     31  C   UNL     1       7.955 -13.242  -8.114  0.00  0.00    +0.059 A 
ATOM     32  C   UNL     1       8.614 -12.026  -8.025  0.00  0.00    +0.060 A 
ATOM     33  C   UNL     1       7.969 -10.926  -7.495  0.00  0.00    +0.031 A 
ATOM     34 CL   UNL     1      10.250 -11.883  -8.588  0.00  0.00    -0.082 Cl
ATOM     35 CL   UNL     1       8.770 -14.619  -8.787  0.00  0.00    -0.082 Cl
ENDBRANCH  25  28
ENDBRANCH  22  23
ENDBRANCH   1  22
TORSDOF 13
