REMARK  Name = ZINC13332460
REMARK  12 active torsions:
REMARK  status: ('A' for Active; 'I' for Inactive)
REMARK    1  A    between atoms: C_1  and  C_2
REMARK    2  A    between atoms: C_7  and  C_38
REMARK    3  A    between atoms: C_8  and  C_30
REMARK    4  A    between atoms: C_9  and  C_21
REMARK    5  A    between atoms: C_15  and  C_17
REMARK    6  A    between atoms: C_17  and  O_19
REMARK    7  A    between atoms: O_19  and  C_20
REMARK    8  A    between atoms: C_24  and  O_29
REMARK    9  A    between atoms: C_25  and  O_27
REMARK   10  A    between atoms: O_27  and  C_28
REMARK   11  A    between atoms: C_30  and  O_32
REMARK   12  A    between atoms: O_32  and  C_33
REMARK                            x       y       z     vdW  Elec       q    Type
REMARK                         _______ _______ _______ _____ _____    ______ ____
ROOT
ATOM      1  C   UNL     1       0.633  -1.646  -2.880  0.00  0.00    +0.013 C 
ATOM      2  C   UNL     1       1.568  -2.354  -1.897  0.00  0.00    +0.031 C 
ATOM      3  C   UNL     1       1.037  -2.160  -0.470  0.00  0.00    +0.001 C 
ATOM      4  C   UNL     1       1.082  -0.671  -0.177  0.00  0.00    +0.048 C 
ATOM      5  N   UNL     1       0.014  -0.028   0.120  0.00  0.00    -0.260 NA
ATOM      6  C   UNL     1      -0.032   1.315   0.136  0.00  0.00    +0.030 C 
ATOM      7  C   UNL     1       1.079   2.065   0.016  0.00  0.00    +0.150 C 
ATOM      8  C   UNL     1       2.446   1.442   0.019  0.00  0.00    +0.054 C 
ATOM      9  C   UNL     1       2.444  -0.033  -0.247  0.00  0.00    +0.113 C 
ATOM     10  C   UNL     1       2.993  -0.321  -1.621  0.00  0.00    +0.157 C 
ATOM     11  O   UNL     1       3.418   0.552  -2.338  0.00  0.00    -0.296 OA
ATOM     12  C   UNL     1       2.977  -1.781  -2.045  0.00  0.00    +0.171 C 
ATOM     13  C   UNL     1      -1.365   2.000   0.292  0.00  0.00    +0.061 C 
ENDROOT
BRANCH   8  14
ATOM     14  C   UNL     1       3.026   1.544   1.407  0.00  0.00    -0.038 A 
ATOM     15  C   UNL     1       2.405   0.901   2.462  0.00  0.00    +0.008 A 
ATOM     16  C   UNL     1       2.933   0.991   3.737  0.00  0.00    +0.049 A 
ATOM     17  C   UNL     1       4.087   1.726   3.958  0.00  0.00    +0.158 A 
ATOM     18  C   UNL     1       4.711   2.373   2.896  0.00  0.00    +0.162 A 
ATOM     19  C   UNL     1       4.179   2.274   1.620  0.00  0.00    +0.053 A 
BRANCH  18  20
ATOM     20  O   UNL     1       5.843   3.096   3.109  0.00  0.00    -0.491 OA
ATOM     21  C   UNL     1       6.429   3.733   1.972  0.00  0.00    +0.277 C 
ENDBRANCH  18  20
BRANCH  17  22
ATOM     22  O   UNL     1       4.607   1.815   5.212  0.00  0.00    -0.503 OA
ATOM     23  H   UNL     1       5.246   1.121   5.423  0.00  0.00    +0.292 HD
ENDBRANCH  17  22
ENDBRANCH   8  14
BRANCH  12  24
ATOM     24  C   UNL     1       3.927  -2.565  -1.177  0.00  0.00    +0.318 C 
ATOM     25  O   UNL     1       3.515  -3.479  -0.503  0.00  0.00    -0.250 OA
BRANCH  24  26
ATOM     26  O   UNL     1       5.231  -2.247  -1.152  0.00  0.00    -0.467 OA
ATOM     27  C   UNL     1       6.088  -3.045  -0.293  0.00  0.00    +0.280 C 
ENDBRANCH  24  26
ENDBRANCH  12  24
BRANCH   7  28
ATOM     28  C   UNL     1       0.956   3.471  -0.118  0.00  0.00    +0.317 C 
ATOM     29  O   UNL     1      -0.145   3.988  -0.123  0.00  0.00    -0.250 OA
BRANCH  28  30
ATOM     30  O   UNL     1       2.061   4.236  -0.239  0.00  0.00    -0.461 OA
BRANCH  30  31
ATOM     31  C   UNL     1       1.864   5.645  -0.370  0.00  0.00    +0.176 C 
ATOM     32  C   UNL     1       1.783   6.032  -1.861  0.00  0.00    +0.044 C 
ATOM     33  C   UNL     1       2.508   7.399  -1.938  0.00  0.00    +0.004 C 
ATOM     34  C   UNL     1       3.678   7.223  -0.938  0.00  0.00    +0.004 C 
ATOM     35  C   UNL     1       3.068   6.403   0.217  0.00  0.00    +0.044 C 
ENDBRANCH  30  31
ENDBRANCH  28  30
ENDBRANCH   7  28
TORSDOF 8
