REMARK  Name = ZINC39534383
REMARK  12 active torsions:
REMARK  status: ('A' for Active; 'I' for Inactive)
REMARK    1  A    between atoms: C_1  and  C_2
REMARK    2  A    between atoms: C_2  and  O_3
REMARK    3  A    between atoms: O_3  and  C_4
REMARK    4  A    between atoms: N_7  and  C_11
REMARK    5  A    between atoms: C_11  and  C_13
REMARK    6  A    between atoms: C_11  and  C_17
REMARK    7  A    between atoms: C_13  and  N_14
REMARK    8  A    between atoms: N_14  and  S_15
REMARK    9  A    between atoms: S_15  and  C_16
REMARK   10  A    between atoms: C_20  and  S_23
REMARK   11  A    between atoms: S_23  and  O_26
REMARK   12  A    between atoms: O_26  and  C_27
REMARK                            x       y       z     vdW  Elec       q    Type
REMARK                         _______ _______ _______ _____ _____    ______ ____
ROOT
ATOM      1  C   UNL     1      -4.327  -4.206  -0.707  0.00  0.00    -0.022 C 
ENDROOT
BRANCH   1   4
ATOM      2  C   UNL     1      -0.917  -2.705  -0.248  0.00  0.00    +0.169 C 
ATOM      3  C   UNL     1      -2.437  -2.758  -0.412  0.00  0.00    -0.030 C 
ATOM      4  N   UNL     1      -2.869  -4.157  -0.531  0.00  0.00    +0.388 N 
ATOM      5  C   UNL     1      -2.498  -4.891   0.686  0.00  0.00    -0.062 C 
ATOM      6  C   UNL     1      -0.978  -4.856   0.859  0.00  0.00    +0.065 C 
ATOM      7  N   UNL     1      -0.529  -3.459   0.953  0.00  0.00    -0.295 NA
ATOM      8  H   UNL     1       0.467  -3.409   1.106  0.00  0.00    +0.124 HD
ATOM      9  H   UNL     1      -2.420  -4.580  -1.329  0.00  0.00    -0.081 HD
BRANCH   2  10
ATOM     10  O   UNL     1      -0.498  -1.346  -0.112  0.00  0.00    -0.364 OA
BRANCH  10  12
ATOM     11  C   UNL     1       1.238   0.335  -0.124  0.00  0.00    +0.034 C 
ATOM     12  C   UNL     1       0.906  -1.149  -0.290  0.00  0.00    +0.158 C 
ENDBRANCH  10  12
ENDBRANCH   2  10
ENDBRANCH   1   4
BRANCH   1  13
ATOM     13  C   UNL     1      -4.788  -5.640  -0.674  0.00  0.00    -0.060 A 
ATOM     14  C   UNL     1      -4.038  -6.622  -1.294  0.00  0.00    +0.004 A 
ATOM     15  C   UNL     1      -4.462  -7.938  -1.264  0.00  0.00    +0.031 A 
ATOM     16  C   UNL     1      -5.635  -8.271  -0.615  0.00  0.00    +0.128 A 
ATOM     17  C   UNL     1      -6.385  -7.289   0.006  0.00  0.00    +0.031 A 
ATOM     18  C   UNL     1      -5.959  -5.974  -0.020  0.00  0.00    +0.004 A 
BRANCH  16  19
ATOM     19  S   UNL     1      -6.176  -9.948  -0.578  0.00  0.00    +0.151 S 
ATOM     20  O   UNL     1      -7.582  -9.917  -0.375  0.00  0.00    -0.131 OA
ATOM     21  O   UNL     1      -5.581 -10.591  -1.697  0.00  0.00    -0.131 OA
BRANCH  19  22
ATOM     22  O   UNL     1      -5.572 -10.588   0.664  0.00  0.00    -0.342 OA
BRANCH  22  23
ATOM     23  C   UNL     1      -6.173 -10.218   1.825  0.00  0.00    +0.157 A 
ATOM     24  C   UNL     1      -5.720  -9.105   2.518  0.00  0.00    +0.048 A 
ATOM     25  C   UNL     1      -6.333  -8.731   3.698  0.00  0.00    +0.004 A 
ATOM     26  C   UNL     1      -7.397  -9.464   4.188  0.00  0.00    +0.000 A 
ATOM     27  C   UNL     1      -7.851 -10.574   3.500  0.00  0.00    +0.004 A 
ATOM     28  C   UNL     1      -7.245 -10.949   2.316  0.00  0.00    +0.048 A 
ENDBRANCH  22  23
ENDBRANCH  19  22
ENDBRANCH  16  19
ENDBRANCH   1  13
BRANCH   1  29
ATOM     29  C   UNL     1      -4.699  -3.580  -2.052  0.00  0.00    +0.082 C 
BRANCH  29  30
ATOM     30  N   UNL     1      -4.401  -2.142  -2.023  0.00  0.00    -0.265 NA
ATOM     31  H   UNL     1      -5.047  -1.651  -1.424  0.00  0.00    +0.135 HD
BRANCH  30  32
ATOM     32  S   UNL     1      -4.405  -1.462  -3.652  0.00  0.00    -0.084 S 
ATOM     33  C   UNL     1      -4.021   0.292  -3.396  0.00  0.00    +0.102 C 
ENDBRANCH  30  32
ENDBRANCH  29  30
ENDBRANCH   1  29
TORSDOF 10
