REMARK  Name = ZINC58305106
REMARK  12 active torsions:
REMARK  status: ('A' for Active; 'I' for Inactive)
REMARK    1  A    between atoms: C_1  and  C_2
REMARK    2  A    between atoms: C_3  and  C_33
REMARK    3  A    between atoms: N_4  and  C_26
REMARK    4  A    between atoms: C_5  and  N_9
REMARK    5  A    between atoms: C_6  and  C_7
REMARK    6  A    between atoms: C_10  and  C_12
REMARK    7  A    between atoms: C_12  and  N_13
REMARK    8  A    between atoms: N_13  and  C_14
REMARK    9  A    between atoms: N_13  and  C_15
REMARK   10  A    between atoms: C_15  and  C_17
REMARK   11  A    between atoms: C_15  and  C_19
REMARK   12  A    between atoms: C_17  and  O_18
REMARK                            x       y       z     vdW  Elec       q    Type
REMARK                         _______ _______ _______ _____ _____    ______ ____
ROOT
ATOM      1  N   UNL     1      -0.095  -3.343   1.752  0.00  0.00    -0.272 N 
ATOM      2  C   UNL     1       0.096  -4.514   1.113  0.00  0.00    +0.202 C 
ATOM      3  O   UNL     1       0.173  -4.540  -0.097  0.00  0.00    -0.278 OA
ATOM      4  H   UNL     1      -0.068  -3.308   2.720  0.00  0.00    +0.156 HD
ENDROOT
BRANCH   1   9
ATOM      5  C   UNL     1      -2.073   0.977   0.027  0.00  0.00    +0.047 C 
ATOM      6  C   UNL     1      -1.197  -0.234   0.219  0.00  0.00    -0.010 A 
ATOM      7  C   UNL     1      -0.110  -0.560  -0.500  0.00  0.00    +0.027 A 
ATOM      8  N   UNL     1       0.415  -1.733  -0.021  0.00  0.00    -0.300 N 
ATOM      9  C   UNL     1      -0.330  -2.186   1.023  0.00  0.00    +0.128 A 
ATOM     10  C   UNL     1      -1.363  -1.284   1.233  0.00  0.00    +0.095 A 
ATOM     11  C   UNL     1       0.444   0.238  -1.652  0.00  0.00    +0.064 C 
BRANCH   8  12
ATOM     12  C   UNL     1       1.553  -2.371  -0.533  0.00  0.00    +0.051 A 
ATOM     13  C   UNL     1       1.537  -2.895  -1.819  0.00  0.00    +0.026 A 
ATOM     14  C   UNL     1       2.659  -3.523  -2.323  0.00  0.00    +0.005 A 
ATOM     15  C   UNL     1       3.799  -3.632  -1.548  0.00  0.00    +0.038 A 
ATOM     16  C   UNL     1       3.820  -3.110  -0.265  0.00  0.00    +0.125 A 
ATOM     17  C   UNL     1       2.700  -2.475   0.241  0.00  0.00    +0.064 A 
ATOM     18  F   UNL     1       4.935  -3.217   0.490  0.00  0.00    -0.205 F 
ENDBRANCH   8  12
BRANCH  10  19
ATOM     19  C   UNL     1      -2.384  -1.361   2.234  0.00  0.00    +0.103 C 
ATOM     20  N   UNL     1      -3.194  -1.422   3.027  0.00  0.00    -0.191 NA
ENDBRANCH  10  19
ENDBRANCH   1   9
BRANCH   2  21
ATOM     21  C   UNL     1       0.214  -5.792   1.903  0.00  0.00    +0.019 C 
BRANCH  21  22
ATOM     22  N   UNL     1       0.417  -6.920   0.984  0.00  0.00    +0.390 N 
ATOM     23  C   UNL     1      -0.800  -7.126   0.186  0.00  0.00    -0.095 C 
ATOM     24  H   UNL     1       1.191  -6.717   0.369  0.00  0.00    -0.081 HD
BRANCH  22  25
ATOM     25  C   UNL     1       0.709  -8.135   1.755  0.00  0.00    -0.011 C 
BRANCH  25  26
ATOM     26  C   UNL     1       0.982  -9.277   0.810  0.00  0.00    -0.056 A 
ATOM     27  C   UNL     1       1.726  -9.062  -0.335  0.00  0.00    +0.002 A 
ATOM     28  C   UNL     1       1.978 -10.109  -1.203  0.00  0.00    +0.003 A 
ATOM     29  C   UNL     1       1.485 -11.370  -0.926  0.00  0.00    +0.038 A 
ATOM     30  C   UNL     1       0.740 -11.586   0.220  0.00  0.00    +0.124 A 
ATOM     31  C   UNL     1       0.494 -10.538   1.092  0.00  0.00    +0.040 A 
ATOM     32  F   UNL     1       0.258 -12.818   0.491  0.00  0.00    -0.205 F 
ENDBRANCH  25  26
BRANCH  25  33
ATOM     33  C   UNL     1       1.937  -7.897   2.636  0.00  0.00    +0.145 C 
BRANCH  33  34
ATOM     34  O   UNL     1       3.075  -7.648   1.810  0.00  0.00    -0.396 OA
ATOM     35  H   UNL     1       3.892  -7.489   2.302  0.00  0.00    +0.209 HD
ENDBRANCH  33  34
ENDBRANCH  25  33
ENDBRANCH  22  25
ENDBRANCH  21  22
ENDBRANCH   2  21
TORSDOF 9
