REMARK  Name = ZINC41635783
REMARK  7 active torsions:
REMARK  status: ('A' for Active; 'I' for Inactive)
REMARK    1  A    between atoms: C_1  and  C_2
REMARK    2  A    between atoms: C_7  and  N_8
REMARK    3  A    between atoms: N_8  and  C_9
REMARK    4  A    between atoms: C_9  and  C_10
REMARK    5  A    between atoms: C_15  and  O_16
REMARK    6  A    between atoms: O_16  and  C_17
REMARK    7  A    between atoms: C_17  and  C_18
REMARK                            x       y       z     vdW  Elec       q    Type
REMARK                         _______ _______ _______ _____ _____    ______ ____
ROOT
ATOM      1  C   UNL     1       0.048  -0.757   3.679  0.00  0.00    +0.140 C 
ENDROOT
BRANCH   1   2
ATOM      2  C   UNL     1       0.046   0.214   4.831  0.00  0.00    +0.012 A 
ATOM      3  C   UNL     1       1.227   0.521   5.479  0.00  0.00    +0.024 A 
ATOM      4  C   UNL     1       1.226   1.412   6.536  0.00  0.00    +0.018 A 
ATOM      5  C   UNL     1       0.043   1.998   6.948  0.00  0.00    +0.019 A 
ATOM      6  C   UNL     1      -1.140   1.695   6.304  0.00  0.00    +0.047 A 
ATOM      7  C   UNL     1      -1.141   0.805   5.239  0.00  0.00    +0.127 A 
ATOM      8 BR   UNL     1       2.845   1.829   7.421  0.00  0.00    -0.050 Br
BRANCH   7   9
ATOM      9  O   UNL     1      -2.303   0.509   4.600  0.00  0.00    -0.479 OA
BRANCH   9  10
ATOM     10  C   UNL     1      -3.487   1.155   5.074  0.00  0.00    +0.317 C 
BRANCH  10  11
ATOM     11  C   UNL     1      -4.640   0.717   4.270  0.00  0.00    -0.065 C 
ATOM     12  C   UNL     1      -5.559   0.368   3.629  0.00  0.00    +0.007 C 
ENDBRANCH  10  11
ENDBRANCH   9  10
ENDBRANCH   7   9
ENDBRANCH   1   2
BRANCH   1  13
ATOM     13  N   UNL     1       0.026  -0.016   2.415  0.00  0.00    -0.339 N 
ATOM     14  H   UNL     1       0.013   0.954   2.422  0.00  0.00    +0.146 HD
BRANCH  13  21
ATOM     15  C   UNL     1      -0.018   1.503   0.010  0.00  0.00    +0.046 C 
ATOM     16  C   UNL     1       0.002  -0.004   0.002  0.00  0.00    -0.029 A 
ATOM     17  C   UNL     1       0.006  -0.689  -1.198  0.00  0.00    +0.020 A 
ATOM     18  C   UNL     1       0.024  -2.072  -1.206  0.00  0.00    +0.018 A 
ATOM     19  C   UNL     1       0.039  -2.774  -0.013  0.00  0.00    +0.017 A 
ATOM     20  C   UNL     1       0.035  -2.095   1.189  0.00  0.00    +0.024 A 
ATOM     21  C   UNL     1       0.023  -0.706   1.200  0.00  0.00    +0.030 A 
ATOM     22 BR   UNL     1       0.028  -3.006  -2.850  0.00  0.00    -0.050 Br
ENDBRANCH  13  21
ENDBRANCH   1  13
TORSDOF 6
