REMARK  Name = ZINC08720603
REMARK  4 active torsions:
REMARK  status: ('A' for Active; 'I' for Inactive)
REMARK    1  A    between atoms: C_4  and  C_8
REMARK    2  A    between atoms: C_8  and  O_10
REMARK    3  A    between atoms: O_10  and  C_11
REMARK    4  A    between atoms: C_11  and  C_12
REMARK                            x       y       z     vdW  Elec       q    Type
REMARK                         _______ _______ _______ _____ _____    ______ ____
ROOT
ATOM      1  C   UNL     1       0.013  -0.003  -0.169  0.00  0.00    +0.170 A 
ATOM      2  N   UNL     1      -0.005   1.318  -0.156  0.00  0.00    -0.214 NA
ATOM      3  C   UNL     1       1.095   2.037   0.003  0.00  0.00    +0.128 A 
ATOM      4  C   UNL     1       2.340   1.368   0.165  0.00  0.00    +0.051 A 
ATOM      5  C   UNL     1       3.672   1.952   0.357  0.00  0.00    -0.025 A 
ATOM      6  C   UNL     1       4.699   1.088   0.481  0.00  0.00    -0.004 A 
ATOM      7  S   UNL     1       3.970  -0.525   0.361  0.00  0.00    -0.073 S 
ATOM      8  C   UNL     1       2.280  -0.038   0.139  0.00  0.00    +0.114 A 
ATOM      9  N   UNL     1       1.137  -0.677  -0.024  0.00  0.00    -0.221 NA
ATOM     10  C   UNL     1       6.150   1.409   0.664  0.00  0.00    +0.043 C 
ATOM     11  C   UNL     1       6.304   2.441   1.789  0.00  0.00    +0.005 C 
ATOM     12  C   UNL     1       6.228   3.835   1.175  0.00  0.00    +0.001 C 
ATOM     13  C   UNL     1       5.281   3.827  -0.024  0.00  0.00    +0.005 C 
ATOM     14  C   UNL     1       3.868   3.464   0.417  0.00  0.00    +0.037 C 
ATOM     15  N   UNL     1       1.035   3.419   0.010  0.00  0.00    -0.343 N 
ATOM     16  H   UNL     1       1.706   3.930   0.489  0.00  0.00    +0.144 HD
ATOM     17  H   UNL     1       0.322   3.876  -0.462  0.00  0.00    +0.144 HD
ENDROOT
BRANCH   1  18
ATOM     18  C   UNL     1      -1.280  -0.755  -0.353  0.00  0.00    +0.308 C 
BRANCH  18  19
ATOM     19  O   UNL     1      -1.511  -0.981  -1.768  0.00  0.00    -0.453 OA
BRANCH  19  20
ATOM     20  C   UNL     1      -2.633  -1.647  -2.106  0.00  0.00    +0.345 C 
ATOM     21  O   UNL     1      -3.397  -2.027  -1.242  0.00  0.00    -0.245 OA
BRANCH  20  25
ATOM     22  C   UNL     1      -3.497  -2.411  -6.194  0.00  0.00    +0.006 A 
ATOM     23  C   UNL     1      -3.953  -1.248  -5.601  0.00  0.00    +0.039 A 
ATOM     24  C   UNL     1      -3.677  -0.991  -4.271  0.00  0.00    +0.140 A 
ATOM     25  C   UNL     1      -2.933  -1.912  -3.525  0.00  0.00    +0.129 A 
ATOM     26  C   UNL     1      -2.471  -3.084  -4.135  0.00  0.00    +0.140 A 
ATOM     27  C   UNL     1      -2.761  -3.327  -5.464  0.00  0.00    +0.039 A 
ATOM     28  F   UNL     1      -1.748  -3.977  -3.425  0.00  0.00    -0.205 F 
ATOM     29  F   UNL     1      -4.123   0.146  -3.694  0.00  0.00    -0.205 F 
ENDBRANCH  20  25
ENDBRANCH  19  20
ENDBRANCH  18  19
ENDBRANCH   1  18
TORSDOF 4
