REMARK  Name = ZINC63570126
REMARK  7 active torsions:
REMARK  status: ('A' for Active; 'I' for Inactive)
REMARK    1  A    between atoms: C_1  and  C_2
REMARK    2  A    between atoms: C_4  and  C_37
REMARK    3  A    between atoms: N_5  and  C_31
REMARK    4  A    between atoms: C_14  and  C_17
REMARK    5  A    between atoms: N_19  and  C_20
REMARK    6  A    between atoms: C_20  and  C_21
REMARK    7  A    between atoms: C_21  and  C_22
REMARK                            x       y       z     vdW  Elec       q    Type
REMARK                         _______ _______ _______ _____ _____    ______ ____
ROOT
ATOM      1  C   UNL     1       0.676   1.396  -0.007  0.00  0.00    +0.068 C 
ATOM      2  C   UNL     1       0.533  -0.104  -0.042  0.00  0.00    +0.072 A 
ATOM      3  C   UNL     1       0.138  -0.752  -1.233  0.00  0.00    +0.049 A 
ATOM      4  C   UNL     1      -0.192  -0.378  -2.516  0.00  0.00    +0.051 A 
ATOM      5  N   UNL     1      -0.487  -1.492  -3.208  0.00  0.00    -0.236 N 
ATOM      6  N   UNL     1      -0.353  -2.616  -2.382  0.00  0.00    -0.163 NA
ATOM      7  C   UNL     1       0.021  -2.224  -1.186  0.00  0.00    +0.137 A 
ATOM      8  C   UNL     1       0.327  -2.860   0.095  0.00  0.00    +0.172 A 
ATOM      9  N   UNL     1       0.682  -2.086   1.103  0.00  0.00    -0.132 NA
ATOM     10  N   UNL     1       0.778  -0.814   1.028  0.00  0.00    -0.152 NA
ATOM     11  N   UNL     1       0.247  -4.235   0.245  0.00  0.00    -0.312 N 
ATOM     12  C   UNL     1      -0.144  -5.090  -0.885  0.00  0.00    +0.107 C 
ATOM     13  C   UNL     1       0.923  -6.172  -1.076  0.00  0.00    +0.031 C 
ATOM     14  C   UNL     1       1.123  -6.924   0.242  0.00  0.00    +0.078 C 
ATOM     15  C   UNL     1       1.610  -5.951   1.318  0.00  0.00    +0.031 C 
ATOM     16  C   UNL     1       0.556  -4.866   1.535  0.00  0.00    +0.107 C 
ATOM     17  C   UNL     1      -0.218   1.031  -3.050  0.00  0.00    +0.066 C 
ENDROOT
BRANCH   5  18
ATOM     18  C   UNL     1      -0.873  -1.525  -4.555  0.00  0.00    +0.066 A 
ATOM     19  C   UNL     1      -0.213  -0.735  -5.487  0.00  0.00    +0.028 A 
ATOM     20  C   UNL     1      -0.594  -0.769  -6.813  0.00  0.00    +0.002 A 
ATOM     21  C   UNL     1      -1.633  -1.590  -7.214  0.00  0.00    +0.000 A 
ATOM     22  C   UNL     1      -2.292  -2.378  -6.289  0.00  0.00    +0.002 A 
ATOM     23  C   UNL     1      -1.911  -2.352  -4.962  0.00  0.00    +0.028 A 
ENDBRANCH   5  18
BRANCH  14  24
ATOM     24  C   UNL     1       2.148  -8.012   0.049  0.00  0.00    +0.216 C 
ATOM     25  O   UNL     1       2.667  -8.171  -1.036  0.00  0.00    -0.276 OA
ATOM     26  N   UNL     1       2.487  -8.809   1.081  0.00  0.00    -0.315 N 
ATOM     27  H   UNL     1       2.072  -8.683   1.949  0.00  0.00    +0.149 HD
BRANCH  26  28
ATOM     28  C   UNL     1       3.483  -9.867   0.894  0.00  0.00    +0.108 C 
BRANCH  28  29
ATOM     29  C   UNL     1       3.683 -10.619   2.211  0.00  0.00    +0.052 C 
BRANCH  29  30
ATOM     30  C   UNL     1       4.707 -11.707   2.018  0.00  0.00    -0.040 C 
ATOM     31  C   UNL     1       6.032 -11.634   2.283  0.00  0.00    -0.001 A 
ATOM     32  C   UNL     1       6.882 -10.559   2.809  0.00  0.00    +0.010 A 
ATOM     33  C   UNL     1       8.205 -10.788   2.969  0.00  0.00    +0.001 A 
ATOM     34  C   UNL     1       8.784 -12.023   2.644  0.00  0.00    +0.002 A 
ATOM     35  C   UNL     1       8.068 -13.058   2.155  0.00  0.00    +0.026 A 
ATOM     36  C   UNL     1       6.667 -12.928   1.948  0.00  0.00    +0.043 A 
ATOM     37  N   UNL     1       5.770 -13.770   1.494  0.00  0.00    -0.380 N 
ATOM     38  C   UNL     1       4.462 -13.105   1.494  0.00  0.00    +0.144 C 
ATOM     39  H   UNL     1       5.942 -14.681   1.208  0.00  0.00    +0.160 HD
ENDBRANCH  29  30
ENDBRANCH  28  29
ENDBRANCH  26  28
ENDBRANCH  14  24
TORSDOF 5
