REMARK  Name = ZINC66091480
REMARK  10 active torsions:
REMARK  status: ('A' for Active; 'I' for Inactive)
REMARK    1  A    between atoms: C_1  and  C_2
REMARK    2  A    between atoms: C_2  and  C_3
REMARK    3  A    between atoms: C_2  and  C_4
REMARK    4  A    between atoms: C_2  and  N_5
REMARK    5  A    between atoms: C_10  and  C_26
REMARK    6  A    between atoms: N_19  and  C_20
REMARK    7  A    between atoms: C_29  and  O_34
REMARK    8  A    between atoms: C_30  and  O_32
REMARK    9  A    between atoms: O_32  and  C_33
REMARK   10  A    between atoms: O_34  and  C_35
REMARK                            x       y       z     vdW  Elec       q    Type
REMARK                         _______ _______ _______ _____ _____    ______ ____
ROOT
ATOM      1  N   UNL     1       1.271  -0.644  -0.773  0.00  0.00    -0.241 N 
ATOM      2  C   UNL     1       1.334  -1.911  -1.233  0.00  0.00    +0.157 A 
ATOM      3  C   UNL     1       2.090  -1.890  -2.398  0.00  0.00    +0.026 A 
ATOM      4  C   UNL     1       2.494  -0.585  -2.615  0.00  0.00    +0.141 A 
ATOM      5  N   UNL     1       2.006   0.166  -1.654  0.00  0.00    -0.177 NA
ATOM      6  C   UNL     1       2.345  -3.132  -3.223  0.00  0.00    +0.082 C 
ATOM      7  C   UNL     1       1.130  -4.038  -3.021  0.00  0.00    +0.158 C 
ATOM      8  C   UNL     1       0.771  -4.084  -1.549  0.00  0.00    +0.127 C 
ATOM      9  N   UNL     1       0.814  -3.074  -0.726  0.00  0.00    -0.215 NA
ATOM     10  N   UNL     1       0.536  -5.406  -1.284  0.00  0.00    -0.256 N 
ATOM     11  C   UNL     1       0.962  -6.169  -2.304  0.00  0.00    +0.312 C 
ATOM     12  O   UNL     1       0.951  -7.385  -2.287  0.00  0.00    -0.252 OA
ATOM     13  N   UNL     1       1.397  -5.434  -3.370  0.00  0.00    -0.244 N 
ATOM     14  H   UNL     1       0.121  -5.744  -0.474  0.00  0.00    +0.158 HD
ENDROOT
BRANCH  13  15
ATOM     15  C   UNL     1       1.985  -5.905  -4.549  0.00  0.00    +0.039 A 
ATOM     16  C   UNL     1       3.232  -6.515  -4.510  0.00  0.00    +0.023 A 
ATOM     17  C   UNL     1       3.809  -6.979  -5.676  0.00  0.00    +0.002 A 
ATOM     18  C   UNL     1       3.147  -6.837  -6.881  0.00  0.00    +0.000 A 
ATOM     19  C   UNL     1       1.905  -6.229  -6.924  0.00  0.00    +0.002 A 
ATOM     20  C   UNL     1       1.320  -5.768  -5.761  0.00  0.00    +0.023 A 
ENDBRANCH  13  15
BRANCH   6  21
ATOM     21  C   UNL     1       2.485  -2.767  -4.678  0.00  0.00    -0.034 A 
ATOM     22  C   UNL     1       1.421  -2.195  -5.351  0.00  0.00    +0.008 A 
ATOM     23  C   UNL     1       1.545  -1.859  -6.687  0.00  0.00    +0.050 A 
ATOM     24  C   UNL     1       2.736  -2.094  -7.353  0.00  0.00    +0.162 A 
ATOM     25  C   UNL     1       3.807  -2.670  -6.675  0.00  0.00    +0.162 A 
ATOM     26  C   UNL     1       3.678  -3.000  -5.336  0.00  0.00    +0.053 A 
BRANCH  25  27
ATOM     27  O   UNL     1       4.979  -2.903  -7.325  0.00  0.00    -0.491 OA
ATOM     28  C   UNL     1       6.035  -3.496  -6.566  0.00  0.00    +0.277 C 
ENDBRANCH  25  27
BRANCH  24  29
ATOM     29  O   UNL     1       2.859  -1.764  -8.667  0.00  0.00    -0.491 OA
ATOM     30  C   UNL     1       1.719  -1.178  -9.298  0.00  0.00    +0.277 C 
ENDBRANCH  24  29
ENDBRANCH   6  21
BRANCH   1  32
ATOM     31  C   UNL     1       0.735   1.319   0.584  0.00  0.00    +0.036 C 
ATOM     32  C   UNL     1       0.559  -0.193   0.425  0.00  0.00    +0.057 C 
ATOM     33  C   UNL     1       1.128  -0.904   1.654  0.00  0.00    +0.036 C 
ATOM     34  C   UNL     1      -0.929  -0.522   0.288  0.00  0.00    +0.036 C 
ENDBRANCH   1  32
TORSDOF 5
