REMARK  Name = ZINC03366481
REMARK  8 active torsions:
REMARK  status: ('A' for Active; 'I' for Inactive)
REMARK    1  A    between atoms: C_1  and  C_2
REMARK    2  A    between atoms: C_2  and  C_4
REMARK    3  A    between atoms: C_2  and  S_10
REMARK    4  A    between atoms: S_10  and  C_11
REMARK    5  A    between atoms: C_14  and  C_17
REMARK    6  A    between atoms: N_15  and  N_16
REMARK    7  A    between atoms: C_20  and  O_23
REMARK    8  A    between atoms: O_23  and  C_24
REMARK                            x       y       z     vdW  Elec       q    Type
REMARK                         _______ _______ _______ _____ _____    ______ ____
ROOT
ATOM      1  C   UNL     1      -3.072   1.788  -0.131  0.00  0.00    +0.209 A 
ATOM      2  N   UNL     1      -2.418   2.618  -0.912  0.00  0.00    -0.121 NA
ATOM      3  N   UNL     1      -3.189   3.046  -1.847  0.00  0.00    -0.127 NA
ATOM      4  C   UNL     1      -4.384   2.516  -1.720  0.00  0.00    +0.182 A 
ATOM      5  N   UNL     1      -4.344   1.690  -0.620  0.00  0.00    -0.224 N 
ENDROOT
BRANCH   4   6
ATOM      6  C   UNL     1      -5.549   2.756  -2.596  0.00  0.00    +0.021 A 
ATOM      7  C   UNL     1      -6.827   2.377  -2.181  0.00  0.00    +0.015 A 
ATOM      8  C   UNL     1      -7.912   2.608  -3.000  0.00  0.00    +0.046 A 
ATOM      9  C   UNL     1      -7.734   3.205  -4.240  0.00  0.00    +0.127 A 
ATOM     10  C   UNL     1      -6.464   3.578  -4.660  0.00  0.00    +0.046 A 
ATOM     11  C   UNL     1      -5.374   3.356  -3.845  0.00  0.00    +0.015 A 
BRANCH   9  12
ATOM     12  O   UNL     1      -8.805   3.425  -5.047  0.00  0.00    -0.434 OA
BRANCH  12  13
ATOM     13  C   UNL     1     -10.083   3.017  -4.554  0.00  0.00    +0.541 C 
ATOM     14  F   UNL     1     -10.071   1.639  -4.312  0.00  0.00    -0.166 F 
ATOM     15  F   UNL     1     -10.363   3.697  -3.363  0.00  0.00    -0.166 F 
ENDBRANCH  12  13
ENDBRANCH   9  12
ENDBRANCH   4   6
BRANCH   5  16
ATOM     16  N   UNL     1      -5.364   0.932  -0.120  0.00  0.00    -0.295 N 
ATOM     17  H   UNL     1      -5.901   1.450   0.560  0.00  0.00    +0.163 HD
ATOM     18  H   UNL     1      -5.956   0.587  -0.861  0.00  0.00    +0.163 HD
ENDBRANCH   5  16
BRANCH   1  19
ATOM     19  S   UNL     1      -2.427   0.953   1.280  0.00  0.00    -0.072 S 
BRANCH  19  21
ATOM     20  C   UNL     1      -0.013   1.086   0.008  0.00  0.00    +0.029 C 
ATOM     21  C   UNL     1      -0.729   1.579   1.267  0.00  0.00    +0.137 C 
BRANCH  21  22
ATOM     22  C   UNL     1       0.000   1.080   2.488  0.00  0.00    +0.233 C 
ATOM     23  O   UNL     1      -0.360   0.059   3.034  0.00  0.00    -0.274 OA
ATOM     24  N   UNL     1       1.052   1.768   2.973  0.00  0.00    -0.239 N 
ATOM     25  C   UNL     1       1.704   1.322   4.065  0.00  0.00    +0.303 C 
ATOM     26  O   UNL     1       1.343   0.299   4.612  0.00  0.00    -0.253 OA
ATOM     27  N   UNL     1       2.756   2.010   4.550  0.00  0.00    -0.313 N 
ATOM     28  H   UNL     1       1.340   2.585   2.536  0.00  0.00    +0.159 HD
ATOM     29  H   UNL     1       3.044   2.827   4.113  0.00  0.00    +0.146 HD
ATOM     30  H   UNL     1       3.225   1.689   5.336  0.00  0.00    +0.146 HD
ENDBRANCH  21  22
ENDBRANCH  19  21
ENDBRANCH   1  19
TORSDOF 7
