REMARK  Name = ZINC32704045
REMARK  9 active torsions:
REMARK  status: ('A' for Active; 'I' for Inactive)
REMARK    1  A    between atoms: C_6  and  C_7
REMARK    2  A    between atoms: C_7  and  N_8
REMARK    3  A    between atoms: N_11  and  C_14
REMARK    4  A    between atoms: C_14  and  C_15
REMARK    5  A    between atoms: C_15  and  C_17
REMARK    6  A    between atoms: C_15  and  O_35
REMARK    7  A    between atoms: C_17  and  O_18
REMARK    8  A    between atoms: O_18  and  C_19
REMARK    9  A    between atoms: C_22  and  C_25
REMARK                            x       y       z     vdW  Elec       q    Type
REMARK                         _______ _______ _______ _____ _____    ______ ____
ROOT
ATOM      1  C   UNL     1      -0.716   1.596   1.268  0.00  0.00    +0.166 C 
ENDROOT
BRANCH   1   2
ATOM      2  O   UNL     1      -0.606   3.019   1.339  0.00  0.00    -0.387 OA
ATOM      3  H   UNL     1      -1.020   3.643   0.534  0.00  0.00    +0.210 HD
ENDBRANCH   1   2
BRANCH   1   4
ATOM      4  C   UNL     1      -0.064   0.971   2.503  0.00  0.00    +0.119 C 
BRANCH   4   8
ATOM      5  N   UNL     1      -1.921   1.167   6.293  0.00  0.00    +0.384 N 
ATOM      6  C   UNL     1      -2.764   1.347   5.102  0.00  0.00    -0.063 C 
ATOM      7  C   UNL     1      -2.046   0.771   3.880  0.00  0.00    +0.066 C 
ATOM      8  N   UNL     1      -0.751   1.445   3.712  0.00  0.00    -0.303 NA
ATOM      9  C   UNL     1       0.091   1.265   4.902  0.00  0.00    +0.066 C 
ATOM     10  C   UNL     1      -0.627   1.841   6.125  0.00  0.00    -0.063 C 
ATOM     11  H   UNL     1      -1.730   0.090   6.414  0.00  0.00    -0.081 HD
BRANCH   5  12
ATOM     12  C   UNL     1      -2.609   1.641   7.501  0.00  0.00    -0.043 C 
BRANCH  12  18
ATOM     13  C   UNL     1      -1.489   0.558   9.460  0.00  0.00    +0.003 A 
ATOM     14  C   UNL     1      -0.594   0.583  10.513  0.00  0.00    +0.020 A 
ATOM     15  C   UNL     1       0.145   1.725  10.766  0.00  0.00    +0.041 A 
ATOM     16  C   UNL     1      -0.008   2.840   9.961  0.00  0.00    +0.020 A 
ATOM     17  C   UNL     1      -0.900   2.812   8.905  0.00  0.00    +0.003 A 
ATOM     18  C   UNL     1      -1.637   1.670   8.653  0.00  0.00    -0.064 A 
ATOM     19 CL   UNL     1       1.265   1.759  12.092  0.00  0.00    -0.084 Cl
ENDBRANCH  12  18
ENDBRANCH   5  12
ENDBRANCH   4   8
ENDBRANCH   1   4
BRANCH   1  20
ATOM     20  C   UNL     1      -0.008   1.092   0.008  0.00  0.00    +0.261 C 
BRANCH  20  21
ATOM     21  O   UNL     1      -0.689   1.582  -1.149  0.00  0.00    -0.489 OA
BRANCH  21  22
ATOM     22  C   UNL     1      -0.184   1.224  -2.359  0.00  0.00    +0.121 A 
ATOM     23  C   UNL     1       0.946   0.422  -2.431  0.00  0.00    +0.046 A 
ATOM     24  C   UNL     1       1.453   0.056  -3.663  0.00  0.00    +0.008 A 
ATOM     25  C   UNL     1       0.842   0.495  -4.822  0.00  0.00    -0.041 A 
ATOM     26  C   UNL     1      -0.281   1.299  -4.753  0.00  0.00    +0.008 A 
ATOM     27  C   UNL     1      -0.795   1.664  -3.524  0.00  0.00    +0.046 A 
BRANCH  25  28
ATOM     28  C   UNL     1       1.401   0.098  -6.164  0.00  0.00    -0.003 C 
ATOM     29  C   UNL     1       1.796   1.354  -6.944  0.00  0.00    +0.015 C 
ATOM     30  C   UNL     1       2.363   0.951  -8.307  0.00  0.00    -0.010 C 
ATOM     31  C   UNL     1       3.596   0.068  -8.104  0.00  0.00    +0.007 C 
ATOM     32  C   UNL     1       3.201  -1.188  -7.325  0.00  0.00    -0.010 C 
ATOM     33  C   UNL     1       2.634  -0.785  -5.962  0.00  0.00    +0.015 C 
ATOM     34  C   UNL     1       2.142  -1.964  -8.109  0.00  0.00    +0.007 C 
ATOM     35  C   UNL     1       0.909  -1.080  -8.312  0.00  0.00    -0.010 C 
ATOM     36  C   UNL     1       1.303   0.175  -9.091  0.00  0.00    +0.007 C 
ATOM     37  C   UNL     1       0.341  -0.677  -6.949  0.00  0.00    +0.015 C 
ENDBRANCH  25  28
ENDBRANCH  21  22
ENDBRANCH  20  21
ENDBRANCH   1  20
TORSDOF 9
