REMARK  Name = ZINC13369747
REMARK  10 active torsions:
REMARK  status: ('A' for Active; 'I' for Inactive)
REMARK    1  A    between atoms: C_1  and  C_2
REMARK    2  A    between atoms: C_2  and  C_3
REMARK    3  A    between atoms: C_3  and  C_5
REMARK    4  A    between atoms: C_3  and  C_6
REMARK    5  A    between atoms: C_9  and  O_12
REMARK    6  A    between atoms: O_12  and  C_13
REMARK    7  A    between atoms: C_15  and  N_36
REMARK    8  A    between atoms: C_17  and  O_35
REMARK    9  A    between atoms: C_26  and  C_29
REMARK   10  A    between atoms: C_37  and  C_39
REMARK                            x       y       z     vdW  Elec       q    Type
REMARK                         _______ _______ _______ _____ _____    ______ ____
ROOT
ATOM      1  C   UNL     1      -2.815   0.741   1.456  0.00  0.00    +0.331 C 
ATOM      2  C   UNL     1      -2.449   1.117   0.020  0.00  0.00    +0.173 C 
ATOM      3  C   UNL     1      -3.560   1.983  -0.586  0.00  0.00    +0.172 C 
ATOM      4  C   UNL     1      -4.879   1.216  -0.491  0.00  0.00    +0.183 C 
ATOM      5  C   UNL     1      -5.151   0.890   0.983  0.00  0.00    +0.179 C 
ATOM      6  O   UNL     1      -4.086   0.082   1.482  0.00  0.00    -0.332 OA
ATOM      7  C   UNL     1      -6.490   0.158   1.075  0.00  0.00    +0.197 C 
ATOM      8  O   UNL     1      -7.495   0.979   0.467  0.00  0.00    -0.345 OA
ATOM      9  C   UNL     1      -7.227   1.324  -0.893  0.00  0.00    +0.282 C 
ATOM     10  O   UNL     1      -5.965   1.993  -0.992  0.00  0.00    -0.339 OA
ENDROOT
BRANCH   9  11
ATOM     11  C   UNL     1      -8.317   2.232  -1.402  0.00  0.00    +0.008 A 
ATOM     12  C   UNL     1      -8.003   3.498  -1.860  0.00  0.00    +0.008 A 
ATOM     13  C   UNL     1      -9.002   4.330  -2.332  0.00  0.00    +0.000 A 
ATOM     14  C   UNL     1     -10.315   3.899  -2.335  0.00  0.00    +0.000 A 
ATOM     15  C   UNL     1     -10.630   2.635  -1.872  0.00  0.00    +0.000 A 
ATOM     16  C   UNL     1      -9.630   1.802  -1.406  0.00  0.00    +0.008 A 
ENDBRANCH   9  11
BRANCH   2  17
ATOM     17  N   UNL     1      -1.191   1.867   0.018  0.00  0.00    -0.304 N 
ATOM     18  C   UNL     1      -0.014   1.209   0.009  0.00  0.00    +0.210 C 
ATOM     19  O   UNL     1       0.002  -0.004   0.002  0.00  0.00    -0.276 OA
ATOM     20  C   UNL     1       1.280   1.980   0.001  0.00  0.00    +0.109 C 
ATOM     21  H   UNL     1      -1.204   2.837   0.023  0.00  0.00    +0.149 HD
ENDBRANCH   2  17
BRANCH   3  22
ATOM     22  O   UNL     1      -3.262   2.257  -1.957  0.00  0.00    -0.387 OA
ATOM     23  H   UNL     1      -2.429   2.729  -2.091  0.00  0.00    +0.210 HD
ENDBRANCH   3  22
BRANCH   1  24
ATOM     24  O   UNL     1      -1.818  -0.134   1.986  0.00  0.00    -0.462 OA
BRANCH  24  28
ATOM     25  C   UNL     1      -2.174  -1.194   5.957  0.00  0.00    -0.044 A 
ATOM     26  C   UNL     1      -1.123  -1.684   5.204  0.00  0.00    +0.007 A 
ATOM     27  C   UNL     1      -1.001  -1.330   3.874  0.00  0.00    +0.046 A 
ATOM     28  C   UNL     1      -1.935  -0.484   3.295  0.00  0.00    +0.124 A 
ATOM     29  C   UNL     1      -2.986   0.010   4.054  0.00  0.00    +0.046 A 
ATOM     30  C   UNL     1      -3.107  -0.351   5.382  0.00  0.00    +0.007 A 
BRANCH  25  31
ATOM     31  C   UNL     1      -2.305  -1.582   7.408  0.00  0.00    +0.016 C 
ATOM     32  C   UNL     1      -2.253  -0.324   8.278  0.00  0.00    +0.012 C 
BRANCH  31  34
ATOM     33  C   UNL     1      -3.717  -2.802   9.069  0.00  0.00    +0.004 C 
ATOM     34  C   UNL     1      -3.638  -2.299   7.627  0.00  0.00    +0.004 C 
ENDBRANCH  31  34
ENDBRANCH  25  31
ENDBRANCH  24  28
ENDBRANCH   1  24
TORSDOF 7
