REMARK  Name = ZINC04358825
REMARK  4 active torsions:
REMARK  status: ('A' for Active; 'I' for Inactive)
REMARK    1  A    between atoms: C_3  and  N_20
REMARK    2  A    between atoms: C_4  and  N_10
REMARK    3  A    between atoms: C_6  and  N_7
REMARK    4  A    between atoms: C_11  and  C_12
REMARK                            x       y       z     vdW  Elec       q    Type
REMARK                         _______ _______ _______ _____ _____    ______ ____
ROOT
ATOM      1  C   UNL     1      -1.141   2.916   0.507  0.00  0.00    +0.034 A 
ATOM      2  C   UNL     1      -2.236   3.727   0.273  0.00  0.00    +0.027 A 
ATOM      3  C   UNL     1      -3.494   3.166   0.114  0.00  0.00    +0.050 A 
ATOM      4  C   UNL     1      -3.649   1.773   0.187  0.00  0.00    +0.087 A 
ATOM      5  C   UNL     1      -2.534   0.967   0.419  0.00  0.00    +0.062 A 
ATOM      6  C   UNL     1      -1.289   1.542   0.574  0.00  0.00    +0.128 A 
ENDROOT
BRANCH   6   7
ATOM      7  N   UNL     1      -0.107   0.685   0.820  0.00  0.00    +0.056 N 
ATOM      8  O   UNL     1      -0.235  -0.525   0.885  0.00  0.00    -0.126 OA
ATOM      9  O   UNL     1       0.993   1.189   0.953  0.00  0.00    -0.126 OA
ENDBRANCH   6   7
BRANCH   3  10
ATOM     10  N   UNL     1      -4.601   3.983  -0.118  0.00  0.00    -0.356 N 
ATOM     11  H   UNL     1      -5.480   3.588  -0.229  0.00  0.00    +0.142 HD
ATOM     12  H   UNL     1      -4.492   4.946  -0.168  0.00  0.00    +0.142 HD
ENDBRANCH   3  10
BRANCH   4  13
ATOM     13  N   UNL     1      -4.885   1.210   0.031  0.00  0.00    -0.253 NA
ATOM     14  C   UNL     1      -5.042   0.196  -0.772  0.00  0.00    +0.120 C 
BRANCH  14  15
ATOM     15  C   UNL     1      -6.344  -0.486  -0.850  0.00  0.00    +0.011 A 
ATOM     16  C   UNL     1      -6.517  -1.575  -1.711  0.00  0.00    +0.012 A 
ATOM     17  C   UNL     1      -7.739  -2.209  -1.779  0.00  0.00    +0.021 A 
ATOM     18  C   UNL     1      -8.796  -1.770  -0.998  0.00  0.00    +0.042 A 
ATOM     19  C   UNL     1      -8.634  -0.693  -0.143  0.00  0.00    +0.040 A 
ATOM     20  C   UNL     1      -7.414  -0.052  -0.059  0.00  0.00    +0.051 A 
ATOM     21 CL   UNL     1      -7.210   1.294   1.018  0.00  0.00    -0.083 Cl
ATOM     22 CL   UNL     1     -10.331  -2.575  -1.091  0.00  0.00    -0.083 Cl
ENDBRANCH  14  15
ENDBRANCH   4  13
TORSDOF 4
