REMARK  Name = ZINC39666680
REMARK  8 active torsions:
REMARK  status: ('A' for Active; 'I' for Inactive)
REMARK    1  A    between atoms: C_1  and  C_2
REMARK    2  A    between atoms: C_2  and  C_3
REMARK    3  A    between atoms: C_3  and  C_4
REMARK    4  A    between atoms: C_3  and  C_6
REMARK    5  A    between atoms: C_4  and  C_5
REMARK    6  A    between atoms: C_6  and  N_7
REMARK    7  A    between atoms: C_8  and  C_10
REMARK    8  A    between atoms: C_21  and  C_23
REMARK                            x       y       z     vdW  Elec       q    Type
REMARK                         _______ _______ _______ _____ _____    ______ ____
ROOT
ATOM      1  C   UNL     1      -3.704  -4.236  -0.801  0.00  0.00    +0.100 C 
ATOM      2  C   UNL     1      -4.205  -3.634  -2.133  0.00  0.00    +0.121 C 
ATOM      3  N   UNL     1      -4.170  -4.763  -3.092  0.00  0.00    -0.296 N 
ATOM      4  C   UNL     1      -4.636  -5.930  -2.304  0.00  0.00    +0.115 C 
ATOM      5  C   UNL     1      -3.991  -5.742  -0.916  0.00  0.00    -0.004 C 
ATOM      6  C   UNL     1      -2.692  -6.537  -0.828  0.00  0.00    -0.010 C 
ATOM      7  C   UNL     1      -3.009  -8.033  -0.887  0.00  0.00    -0.082 C 
ATOM      8  N   UNL     1      -3.901  -8.391   0.222  0.00  0.00    +0.379 N 
ATOM      9  C   UNL     1      -5.184  -7.693   0.078  0.00  0.00    -0.082 C 
ATOM     10  C   UNL     1      -4.959  -6.181   0.179  0.00  0.00    -0.010 C 
ATOM     11  C   UNL     1      -3.799  -4.736  -4.387  0.00  0.00    +0.247 C 
ATOM     12  O   UNL     1      -3.354  -3.713  -4.871  0.00  0.00    -0.270 OA
ATOM     13  H   UNL     1      -4.060  -9.387   0.217  0.00  0.00    -0.086 HD
ATOM     14  H   UNL     1      -3.472  -8.126   1.096  0.00  0.00    -0.086 HD
ENDROOT
BRANCH  11  15
ATOM     15  C   UNL     1      -3.931  -5.950  -5.219  0.00  0.00    +0.038 A 
ATOM     16  C   UNL     1      -4.829  -6.955  -4.854  0.00  0.00    +0.014 A 
ATOM     17  C   UNL     1      -4.949  -8.086  -5.634  0.00  0.00    +0.022 A 
ATOM     18  C   UNL     1      -4.181  -8.226  -6.778  0.00  0.00    +0.059 A 
ATOM     19  C   UNL     1      -3.288  -7.232  -7.146  0.00  0.00    +0.060 A 
ATOM     20  C   UNL     1      -3.164  -6.093  -6.377  0.00  0.00    +0.034 A 
ATOM     21 CL   UNL     1      -2.329  -7.416  -8.582  0.00  0.00    -0.082 Cl
ATOM     22 CL   UNL     1      -4.336  -9.653  -7.755  0.00  0.00    -0.082 Cl
ENDBRANCH  11  15
BRANCH   1  24
ATOM     23  N   UNL     1      -1.687  -3.911   0.592  0.00  0.00    -0.315 N 
ATOM     24  C   UNL     1      -2.225  -3.995  -0.640  0.00  0.00    +0.218 C 
ATOM     25  O   UNL     1      -1.520  -3.876  -1.620  0.00  0.00    -0.275 OA
ATOM     26  H   UNL     1      -2.251  -4.006   1.376  0.00  0.00    +0.149 HD
BRANCH  23  27
ATOM     27  C   UNL     1      -0.249  -3.676   0.749  0.00  0.00    +0.107 C 
BRANCH  27  28
ATOM     28  C   UNL     1       0.100  -3.624   2.238  0.00  0.00    +0.006 C 
BRANCH  28  30
ATOM     29  C   UNL     1       0.099  -4.916   4.377  0.00  0.00    +0.004 C 
ATOM     30  C   UNL     1      -0.158  -4.993   2.870  0.00  0.00    +0.002 C 
ENDBRANCH  28  30
BRANCH  28  31
ATOM     31  C   UNL     1       1.576  -3.256   2.403  0.00  0.00    +0.002 C 
ATOM     32  C   UNL     1       1.815  -1.849   1.853  0.00  0.00    +0.004 C 
ENDBRANCH  28  31
ENDBRANCH  27  28
ENDBRANCH  23  27
ENDBRANCH   1  24
TORSDOF 6
