REMARK  Name = ZINC21863334
REMARK  10 active torsions:
REMARK  status: ('A' for Active; 'I' for Inactive)
REMARK    1  A    between atoms: C_1  and  C_2
REMARK    2  A    between atoms: C_2  and  C_28
REMARK    3  A    between atoms: C_5  and  C_23
REMARK    4  A    between atoms: N_11  and  C_12
REMARK    5  A    between atoms: C_12  and  C_13
REMARK    6  A    between atoms: C_13  and  C_14
REMARK    7  A    between atoms: C_14  and  N_15
REMARK    8  A    between atoms: N_15  and  C_16
REMARK    9  A    between atoms: N_15  and  C_17
REMARK   10  A    between atoms: N_30  and  C_31
REMARK                            x       y       z     vdW  Elec       q    Type
REMARK                         _______ _______ _______ _____ _____    ______ ____
ROOT
ATOM      1  C   UNL     1      -6.209   2.352   0.859  0.00  0.00    +0.043 C 
ATOM      2  C   UNL     1      -5.163   3.457   1.018  0.00  0.00    +0.128 C 
ATOM      3  C   UNL     1      -3.908   3.066   0.238  0.00  0.00    +0.157 C 
ATOM      4  N   UNL     1      -3.021   4.230   0.141  0.00  0.00    -0.331 N 
ATOM      5  C   UNL     1      -1.671   4.291   0.039  0.00  0.00    +0.085 A 
ATOM      6  C   UNL     1      -1.304   5.625  -0.057  0.00  0.00    +0.032 A 
ATOM      7  C   UNL     1      -2.469   6.392   0.002  0.00  0.00    +0.033 A 
ATOM      8  C   UNL     1      -3.520   5.529   0.135  0.00  0.00    +0.105 A 
ATOM      9  C   UNL     1      -4.961   5.779   0.239  0.00  0.00    +0.264 C 
ATOM     10  O   UNL     1      -5.437   6.881   0.035  0.00  0.00    -0.268 OA
ATOM     11  N   UNL     1      -5.736   4.718   0.559  0.00  0.00    -0.281 N 
ENDROOT
BRANCH   5  12
ATOM     12  C   UNL     1      -0.755   3.142   0.025  0.00  0.00    +0.151 A 
ATOM     13  C   UNL     1       0.608   3.204   0.013  0.00  0.00    +0.051 A 
ATOM     14  C   UNL     1       1.073   1.877   0.002  0.00  0.00    +0.042 A 
ATOM     15  C   UNL     1      -0.013   1.076   0.008  0.00  0.00    +0.196 A 
ATOM     16  O   UNL     1      -1.114   1.843   0.017  0.00  0.00    -0.461 OA
ENDBRANCH   5  12
BRANCH   2  17
ATOM     17  C   UNL     1      -4.810   3.588   2.477  0.00  0.00    +0.238 C 
ATOM     18  O   UNL     1      -4.979   2.651   3.228  0.00  0.00    -0.273 OA
ATOM     19  N   UNL     1      -4.305   4.745   2.947  0.00  0.00    -0.311 N 
ATOM     20  H   UNL     1      -4.151   5.595   2.266  0.00  0.00    +0.149 HD
BRANCH  19  21
ATOM     21  C   UNL     1      -3.961   4.872   4.366  0.00  0.00    +0.073 C 
ATOM     22  C   UNL     1      -5.209   5.263   5.160  0.00  0.00    +0.022 C 
ATOM     23  C   UNL     1      -4.850   5.396   6.641  0.00  0.00    +0.002 C 
ATOM     24  C   UNL     1      -3.778   6.473   6.812  0.00  0.00    +0.000 C 
ATOM     25  C   UNL     1      -2.530   6.082   6.018  0.00  0.00    +0.002 C 
ATOM     26  C   UNL     1      -2.889   5.950   4.537  0.00  0.00    +0.022 C 
ENDBRANCH  19  21
ENDBRANCH   2  17
BRANCH  11  27
ATOM     27  C   UNL     1      -7.192   4.840   0.451  0.00  0.00    +0.107 C 
BRANCH  27  28
ATOM     28  C   UNL     1      -7.761   5.350   1.776  0.00  0.00    +0.000 C 
BRANCH  28  29
ATOM     29  C   UNL     1      -9.282   5.477   1.663  0.00  0.00    -0.077 C 
BRANCH  29  30
ATOM     30  N   UNL     1      -9.828   5.967   2.935  0.00  0.00    +0.380 N 
ATOM     31  C   UNL     1      -9.382   7.340   3.206  0.00  0.00    -0.096 C 
ATOM     32  H   UNL     1      -9.444   5.322   3.739  0.00  0.00    -0.082 HD
BRANCH  30  33
ATOM     33  C   UNL     1     -11.295   5.878   2.948  0.00  0.00    -0.069 C 
ATOM     34  C   UNL     1     -11.872   6.822   1.891  0.00  0.00    -0.015 C 
ATOM     35  C   UNL     1     -13.399   6.729   1.903  0.00  0.00    -0.002 C 
ATOM     36  C   UNL     1     -13.922   7.129   3.284  0.00  0.00    -0.000 C 
ATOM     37  C   UNL     1     -13.345   6.185   4.341  0.00  0.00    -0.002 C 
ATOM     38  C   UNL     1     -11.818   6.278   4.329  0.00  0.00    -0.015 C 
ENDBRANCH  30  33
ENDBRANCH  29  30
ENDBRANCH  28  29
ENDBRANCH  27  28
ENDBRANCH  11  27
TORSDOF 8
