REMARK  Name = ZINC33568220
REMARK  5 active torsions:
REMARK  status: ('A' for Active; 'I' for Inactive)
REMARK    1  A    between atoms: C_3  and  S_27
REMARK    2  A    between atoms: C_6  and  C_7
REMARK    3  A    between atoms: C_10  and  C_12
REMARK    4  A    between atoms: N_15  and  C_16
REMARK    5  A    between atoms: S_27  and  N_30
REMARK                            x       y       z     vdW  Elec       q    Type
REMARK                         _______ _______ _______ _____ _____    ______ ____
ROOT
ATOM      1  C   UNL     1      -1.414  -1.697   0.172  0.00  0.00    +0.136 A 
ATOM      2  C   UNL     1      -1.724  -2.932   0.665  0.00  0.00    +0.050 A 
ATOM      3  C   UNL     1      -3.119  -3.024   0.698  0.00  0.00    +0.050 A 
ATOM      4  C   UNL     1      -3.609  -1.825   0.216  0.00  0.00    +0.130 A 
ATOM      5  O   UNL     1      -2.558  -1.036  -0.090  0.00  0.00    -0.455 OA
ENDROOT
BRANCH   4   6
ATOM      6  C   UNL     1      -4.973  -1.482   0.074  0.00  0.00    +0.065 C 
ATOM      7  C   UNL     1      -5.321  -0.258  -0.417  0.00  0.00    +0.060 C 
ATOM      8  C   UNL     1      -6.653   0.359  -0.532  0.00  0.00    +0.140 C 
ATOM      9  N   UNL     1      -7.745  -0.263  -0.137  0.00  0.00    -0.231 NA
ATOM     10  N   UNL     1      -6.691   1.608  -1.069  0.00  0.00    -0.260 N 
ATOM     11  C   UNL     1      -5.558   2.221  -1.465  0.00  0.00    +0.282 C 
ATOM     12  O   UNL     1      -5.434   3.326  -1.957  0.00  0.00    -0.262 OA
ATOM     13  S   UNL     1      -4.283   1.032  -1.088  0.00  0.00    -0.028 S 
ATOM     14  H   UNL     1      -7.542   2.062  -1.168  0.00  0.00    +0.157 HD
BRANCH   9  15
ATOM     15  C   UNL     1      -7.653  -1.462   0.509  0.00  0.00    +0.066 A 
ATOM     16  C   UNL     1      -7.423  -1.501   1.888  0.00  0.00    +0.029 A 
ATOM     17  C   UNL     1      -7.330  -2.716   2.534  0.00  0.00    +0.022 A 
ATOM     18  C   UNL     1      -7.463  -3.895   1.820  0.00  0.00    +0.041 A 
ATOM     19  C   UNL     1      -7.691  -3.864   0.454  0.00  0.00    +0.022 A 
ATOM     20  C   UNL     1      -7.793  -2.656  -0.204  0.00  0.00    +0.029 A 
ATOM     21 CL   UNL     1      -7.344  -5.420   2.641  0.00  0.00    -0.084 Cl
ENDBRANCH   9  15
ENDBRANCH   4   6
BRANCH   1  27
ATOM     22  C   UNL     1       0.135   0.117  -0.543  0.00  0.00    +0.013 A 
ATOM     23  C   UNL     1       1.412   0.602  -0.732  0.00  0.00    +0.029 A 
ATOM     24  C   UNL     1       2.508  -0.183  -0.420  0.00  0.00    +0.105 A 
ATOM     25  C   UNL     1       2.331  -1.460   0.084  0.00  0.00    +0.029 A 
ATOM     26  C   UNL     1       1.060  -1.959   0.278  0.00  0.00    +0.013 A 
ATOM     27  C   UNL     1      -0.051  -1.171  -0.034  0.00  0.00    +0.017 A 
BRANCH  24  28
ATOM     28  S   UNL     1       4.136   0.445  -0.666  0.00  0.00    +0.056 S 
ATOM     29  O   UNL     1       4.988  -0.683  -0.812  0.00  0.00    -0.153 OA
ATOM     30  O   UNL     1       4.035   1.457  -1.659  0.00  0.00    -0.153 OA
BRANCH  28  31
ATOM     31  N   UNL     1       4.586   1.200   0.736  0.00  0.00    -0.204 NA
ATOM     32  H   UNL     1       3.976   1.227   1.490  0.00  0.00    +0.144 HD
ATOM     33  H   UNL     1       5.460   1.617   0.804  0.00  0.00    +0.144 HD
ENDBRANCH  28  31
ENDBRANCH  24  28
ENDBRANCH   1  27
TORSDOF 5
