REMARK  Name = ZINC05237965
REMARK  10 active torsions:
REMARK  status: ('A' for Active; 'I' for Inactive)
REMARK    1  A    between atoms: C_1  and  C_2
REMARK    2  A    between atoms: C_2  and  C_3
REMARK    3  A    between atoms: C_7  and  C_25
REMARK    4  A    between atoms: C_8  and  N_9
REMARK    5  A    between atoms: C_10  and  C_12
REMARK    6  A    between atoms: C_12  and  C_14
REMARK    7  A    between atoms: C_12  and  S_15
REMARK    8  A    between atoms: S_15  and  C_16
REMARK    9  A    between atoms: C_22  and  N_24
REMARK   10  A    between atoms: C_25  and  C_26
REMARK                            x       y       z     vdW  Elec       q    Type
REMARK                         _______ _______ _______ _____ _____    ______ ____
ROOT
ATOM      1  N   UNL     1      -2.130   7.178  -3.244  0.00  0.00    -0.284 N 
ATOM      2  C   UNL     1      -2.310   5.843  -3.247  0.00  0.00    +0.230 C 
ATOM      3  O   UNL     1      -2.786   5.292  -2.277  0.00  0.00    -0.274 OA
ATOM      4  H   UNL     1      -1.717   7.614  -4.005  0.00  0.00    +0.155 HD
ENDROOT
BRANCH   1  10
ATOM      5  C   UNL     1      -1.642   8.786  -1.509  0.00  0.00    -0.026 A 
ATOM      6  C   UNL     1      -2.051   9.537  -0.424  0.00  0.00    +0.005 A 
ATOM      7  C   UNL     1      -3.350   9.435   0.039  0.00  0.00    +0.001 A 
ATOM      8  C   UNL     1      -4.245   8.585  -0.585  0.00  0.00    +0.005 A 
ATOM      9  C   UNL     1      -3.844   7.836  -1.673  0.00  0.00    -0.026 A 
ATOM     10  C   UNL     1      -2.540   7.936  -2.141  0.00  0.00    +0.040 A 
BRANCH   5  12
ATOM     11  C   UNL     1      -0.188   9.791  -3.248  0.00  0.00    +0.009 C 
ATOM     12  C   UNL     1      -0.225   8.893  -2.009  0.00  0.00    +0.033 C 
ENDBRANCH   5  12
BRANCH   9  13
ATOM     13  C   UNL     1      -4.819   6.910  -2.353  0.00  0.00    +0.033 C 
ATOM     14  C   UNL     1      -5.883   6.463  -1.347  0.00  0.00    +0.009 C 
ENDBRANCH   9  13
ENDBRANCH   1  10
BRANCH   2  15
ATOM     15  C   UNL     1      -1.918   5.033  -4.457  0.00  0.00    +0.137 C 
ATOM     16  C   UNL     1      -3.012   5.144  -5.521  0.00  0.00    +0.029 C 
BRANCH  15  17
ATOM     17  S   UNL     1      -1.714   3.299  -3.981  0.00  0.00    -0.075 S 
BRANCH  17  18
ATOM     18  C   UNL     1      -1.126   2.632  -5.503  0.00  0.00    +0.171 A 
ATOM     19  N   UNL     1      -0.836   1.303  -5.581  0.00  0.00    -0.302 N 
ATOM     20  H   UNL     1      -0.959   0.717  -4.779  0.00  0.00    +0.171 HD
ATOM     21  C   UNL     1      -0.385   0.775  -6.738  0.00  0.00    +0.254 A 
ATOM     22  O   UNL     1      -0.123  -0.415  -6.817  0.00  0.00    -0.268 OA
ATOM     23  C   UNL     1      -0.222   1.614  -7.845  0.00  0.00    +0.113 A 
ATOM     24  C   UNL     1      -0.531   2.960  -7.713  0.00  0.00    +0.124 A 
ATOM     25  N   UNL     1      -0.975   3.428  -6.541  0.00  0.00    -0.209 NA
BRANCH  24  26
ATOM     26  N   UNL     1      -0.381   3.814  -8.787  0.00  0.00    -0.343 N 
ATOM     27  H   UNL     1      -0.597   4.755  -8.693  0.00  0.00    +0.144 HD
ATOM     28  H   UNL     1      -0.059   3.473  -9.636  0.00  0.00    +0.144 HD
ENDBRANCH  24  26
ENDBRANCH  17  18
ENDBRANCH  15  17
ENDBRANCH   2  15
TORSDOF 7
