REMARK  Name = ZINC39659636
REMARK  7 active torsions:
REMARK  status: ('A' for Active; 'I' for Inactive)
REMARK    1  A    between atoms: C_1  and  C_2
REMARK    2  A    between atoms: C_2  and  C_37
REMARK    3  A    between atoms: C_5  and  C_8
REMARK    4  A    between atoms: C_8  and  N_9
REMARK    5  A    between atoms: C_10  and  C_12
REMARK    6  A    between atoms: C_23  and  C_25
REMARK    7  A    between atoms: C_28  and  C_30
REMARK                            x       y       z     vdW  Elec       q    Type
REMARK                         _______ _______ _______ _____ _____    ______ ____
ROOT
ATOM      1  C   UNL     1       3.644  -2.112   5.177  0.00  0.00    +0.100 C 
ATOM      2  C   UNL     1       3.410  -3.632   5.028  0.00  0.00    +0.121 C 
ATOM      3  N   UNL     1       4.751  -4.236   5.208  0.00  0.00    -0.294 N 
ATOM      4  C   UNL     1       5.371  -3.440   6.294  0.00  0.00    +0.115 C 
ATOM      5  C   UNL     1       4.930  -1.990   6.012  0.00  0.00    -0.004 C 
ATOM      6  C   UNL     1       4.643  -1.260   7.321  0.00  0.00    -0.010 C 
ATOM      7  C   UNL     1       5.948  -1.100   8.107  0.00  0.00    -0.082 C 
ATOM      8  N   UNL     1       6.915  -0.343   7.303  0.00  0.00    +0.379 N 
ATOM      9  C   UNL     1       7.256  -1.096   6.090  0.00  0.00    -0.082 C 
ATOM     10  C   UNL     1       6.007  -1.256   5.219  0.00  0.00    -0.010 C 
ATOM     11  C   UNL     1       5.285  -5.276   4.537  0.00  0.00    +0.282 C 
ATOM     12  O   UNL     1       6.410  -5.659   4.804  0.00  0.00    -0.267 OA
ATOM     13  H   UNL     1       6.514   0.545   7.044  0.00  0.00    -0.086 HD
ATOM     14  H   UNL     1       7.751  -0.186   7.846  0.00  0.00    -0.086 HD
ENDROOT
BRANCH  11  15
ATOM     15  C   UNL     1       4.514  -5.944   3.487  0.00  0.00    +0.190 A 
ATOM     16  C   UNL     1       4.936  -7.017   2.731  0.00  0.00    +0.055 A 
ATOM     17  C   UNL     1       3.891  -7.330   1.857  0.00  0.00    +0.050 A 
ATOM     18  C   UNL     1       2.879  -6.447   2.107  0.00  0.00    +0.136 A 
ATOM     19  O   UNL     1       3.263  -5.621   3.095  0.00  0.00    -0.450 OA
BRANCH  18  20
ATOM     20  C   UNL     1       1.577  -6.410   1.411  0.00  0.00    +0.017 A 
ATOM     21  C   UNL     1       1.294  -7.335   0.405  0.00  0.00    +0.014 A 
ATOM     22  C   UNL     1       0.076  -7.296  -0.241  0.00  0.00    +0.039 A 
ATOM     23  C   UNL     1      -0.866  -6.341   0.107  0.00  0.00    +0.123 A 
ATOM     24  C   UNL     1      -0.590  -5.420   1.106  0.00  0.00    +0.039 A 
ATOM     25  C   UNL     1       0.622  -5.453   1.762  0.00  0.00    +0.014 A 
ATOM     26  F   UNL     1      -2.057  -6.307  -0.529  0.00  0.00    -0.205 F 
ENDBRANCH  18  20
ENDBRANCH  11  15
BRANCH   1  28
ATOM     27  N   UNL     1       3.493  -0.185   3.632  0.00  0.00    -0.312 N 
ATOM     28  C   UNL     1       3.835  -1.475   3.824  0.00  0.00    +0.218 C 
ATOM     29  O   UNL     1       4.295  -2.123   2.908  0.00  0.00    -0.275 OA
ATOM     30  H   UNL     1       3.125   0.333   4.365  0.00  0.00    +0.149 HD
BRANCH  27  31
ATOM     31  C   UNL     1       3.678   0.434   2.318  0.00  0.00    +0.138 C 
BRANCH  31  36
ATOM     32  C   UNL     1       5.735   4.152   2.056  0.00  0.00    +0.074 C 
ATOM     33  C   UNL     1       4.274   3.949   2.464  0.00  0.00    +0.165 C 
ATOM     34  O   UNL     1       3.443   3.939   1.292  0.00  0.00    -0.347 OA
ATOM     35  C   UNL     1       3.281   2.538   0.964  0.00  0.00    +0.196 C 
ATOM     36  C   UNL     1       3.216   1.891   2.370  0.00  0.00    +0.164 C 
ATOM     37  O   UNL     1       4.133   2.693   3.141  0.00  0.00    -0.342 OA
ATOM     38  C   UNL     1       3.837   5.085   3.391  0.00  0.00    +0.074 C 
ENDBRANCH  31  36
ENDBRANCH  27  31
ENDBRANCH   1  28
TORSDOF 5
