REMARK  Name = ZINC22851833
REMARK  4 active torsions:
REMARK  status: ('A' for Active; 'I' for Inactive)
REMARK    1  A    between atoms: C_5  and  C_7
REMARK    2  A    between atoms: C_7  and  C_9
REMARK    3  A    between atoms: C_7  and  N_23
REMARK    4  A    between atoms: C_15  and  C_17
REMARK                            x       y       z     vdW  Elec       q    Type
REMARK                         _______ _______ _______ _____ _____    ______ ____
ROOT
ATOM      1  C   UNL     1      -8.386   0.319   0.037  0.00  0.00    +0.007 C 
ENDROOT
BRANCH   1   2
ATOM      2  C   UNL     1      -6.885   0.460   0.042  0.00  0.00    +0.050 A 
ATOM      3  C   UNL     1      -6.142   1.573   0.017  0.00  0.00    +0.282 A 
ATOM      4  N   UNL     1      -4.771   1.500   0.028  0.00  0.00    -0.169 N 
ATOM      5  C   UNL     1      -4.213   0.252   0.064  0.00  0.00    +0.200 A 
ATOM      6  S   UNL     1      -5.634  -0.814   0.082  0.00  0.00    -0.050 S 
ATOM      7  N   UNL     1      -2.913   0.350   0.064  0.00  0.00    -0.197 NA
ATOM      8  C   UNL     1      -2.567   1.645   0.038  0.00  0.00    +0.218 A 
ATOM      9  N   UNL     1      -3.657   2.380   0.012  0.00  0.00    -0.138 NA
ATOM     10  O   UNL     1      -6.752   2.788  -0.017  0.00  0.00    -0.265 OA
BRANCH   8  11
ATOM     11  C   UNL     1      -1.183   2.163   0.033  0.00  0.00    +0.173 A 
ATOM     12  C   UNL     1      -0.050   1.411   0.059  0.00  0.00    +0.053 A 
ATOM     13  C   UNL     1       1.035   2.312   0.035  0.00  0.00    +0.042 A 
ATOM     14  C   UNL     1       0.515   3.554   0.003  0.00  0.00    +0.196 A 
ATOM     15  O   UNL     1      -0.825   3.461   0.004  0.00  0.00    -0.460 OA
ENDBRANCH   8  11
ENDBRANCH   1   2
BRANCH   1  20
ATOM     16  C   UNL     1      -9.432  -1.996   2.829  0.00  0.00    +0.000 A 
ATOM     17  C   UNL     1      -9.696  -1.100   3.848  0.00  0.00    +0.001 A 
ATOM     18  C   UNL     1      -9.537   0.256   3.634  0.00  0.00    +0.020 A 
ATOM     19  C   UNL     1      -9.108   0.716   2.401  0.00  0.00    +0.043 A 
ATOM     20  C   UNL     1      -8.848  -0.181   1.381  0.00  0.00    -0.038 A 
ATOM     21  C   UNL     1      -9.007  -1.537   1.596  0.00  0.00    +0.004 A 
ATOM     22 CL   UNL     1      -8.900   2.419   2.134  0.00  0.00    -0.083 Cl
ENDBRANCH   1  20
BRANCH   1  23
ATOM     23  N   UNL     1      -8.784  -0.637  -1.005  0.00  0.00    +0.387 N 
ATOM     24  C   UNL     1      -8.169  -0.297  -2.294  0.00  0.00    -0.077 C 
ATOM     25  C   UNL     1      -8.486  -1.390  -3.317  0.00  0.00    -0.019 C 
ATOM     26  C   UNL     1     -10.005  -1.513  -3.471  0.00  0.00    -0.004 C 
ATOM     27  C   UNL     1     -10.626  -1.819  -2.105  0.00  0.00    -0.019 C 
ATOM     28  C   UNL     1     -10.246  -0.713  -1.118  0.00  0.00    -0.077 C 
ATOM     29  H   UNL     1      -8.418  -1.632  -0.711  0.00  0.00    -0.080 HD
ENDBRANCH   1  23
TORSDOF 4
