REMARK  Name = ZINC12190322
REMARK  10 active torsions:
REMARK  status: ('A' for Active; 'I' for Inactive)
REMARK    1  A    between atoms: C_1  and  C_2
REMARK    2  A    between atoms: C_2  and  O_3
REMARK    3  A    between atoms: O_3  and  C_4
REMARK    4  A    between atoms: C_4  and  C_6
REMARK    5  A    between atoms: C_12  and  C_13
REMARK    6  A    between atoms: C_12  and  N_77
REMARK    7  A    between atoms: C_17  and  O_19
REMARK    8  A    between atoms: O_19  and  C_20
REMARK    9  A    between atoms: C_26  and  C_28
REMARK   10  A    between atoms: C_32  and  N_34
REMARK                            x       y       z     vdW  Elec       q    Type
REMARK                         _______ _______ _______ _____ _____    ______ ____
ROOT
ATOM      1  C   UNL     1      -0.082   4.643  -2.953  0.00  0.00    +0.176 C 
ATOM      2  C   UNL     1      -0.871   4.220  -4.194  0.00  0.00    +0.063 C 
ATOM      3  C   UNL     1      -2.203   4.977  -4.230  0.00  0.00    +0.111 C 
ATOM      4  N   UNL     1      -1.930   6.418  -4.150  0.00  0.00    -0.297 N 
ATOM      5  C   UNL     1      -1.104   6.921  -3.044  0.00  0.00    +0.111 C 
ATOM      6  C   UNL     1       0.216   6.143  -3.022  0.00  0.00    +0.063 C 
ATOM      7  C   UNL     1      -2.429   7.263  -5.074  0.00  0.00    +0.247 C 
ATOM      8  O   UNL     1      -2.126   8.440  -5.048  0.00  0.00    -0.270 OA
ENDROOT
BRANCH   7   9
ATOM      9  C   UNL     1      -3.345   6.759  -6.120  0.00  0.00    +0.039 A 
ATOM     10  C   UNL     1      -4.239   5.727  -5.829  0.00  0.00    +0.013 A 
ATOM     11  C   UNL     1      -5.096   5.262  -6.805  0.00  0.00    +0.003 A 
ATOM     12  C   UNL     1      -5.066   5.806  -8.075  0.00  0.00    +0.023 A 
ATOM     13  C   UNL     1      -4.176   6.830  -8.376  0.00  0.00    +0.039 A 
ATOM     14  C   UNL     1      -3.314   7.309  -7.401  0.00  0.00    +0.036 A 
BRANCH  13  15
ATOM     15  N   UNL     1      -4.149   7.379  -9.664  0.00  0.00    -0.254 N 
ATOM     16  C   UNL     1      -5.083   7.048 -10.750  0.00  0.00    +0.134 C 
ATOM     17  C   UNL     1      -4.609   7.926 -11.925  0.00  0.00    +0.125 C 
ATOM     18  N   UNL     1      -3.453   8.651 -11.378  0.00  0.00    -0.297 N 
ATOM     19  C   UNL     1      -3.265   8.284 -10.104  0.00  0.00    +0.307 C 
ATOM     20  O   UNL     1      -2.373   8.731  -9.409  0.00  0.00    -0.252 OA
ATOM     21  H   UNL     1      -2.911   9.294 -11.863  0.00  0.00    +0.150 HD
ENDBRANCH  13  15
ENDBRANCH   7   9
BRANCH   1  22
ATOM     22  O   UNL     1       1.147   3.916  -2.899  0.00  0.00    -0.489 OA
BRANCH  22  27
ATOM     23  C   UNL     1      -0.127   0.917  -1.281  0.00  0.00    -0.060 A 
ATOM     24  C   UNL     1       1.019   0.144  -1.233  0.00  0.00    +0.002 A 
ATOM     25  C   UNL     1       2.209   0.636  -1.737  0.00  0.00    +0.004 A 
ATOM     26  C   UNL     1       2.253   1.897  -2.300  0.00  0.00    +0.045 A 
ATOM     27  C   UNL     1       1.105   2.673  -2.350  0.00  0.00    +0.121 A 
ATOM     28  C   UNL     1      -0.087   2.180  -1.839  0.00  0.00    +0.047 A 
BRANCH  23  29
ATOM     29  C   UNL     1      -1.421   0.380  -0.725  0.00  0.00    -0.042 C 
BRANCH  29  35
ATOM     30  C   UNL     1      -2.857   0.396   1.223  0.00  0.00    +0.043 C 
ATOM     31  C   UNL     1      -2.987   0.917   2.656  0.00  0.00    -0.004 C 
ATOM     32  C   UNL     1      -1.891   0.291   3.523  0.00  0.00    -0.003 C 
ATOM     33  C   UNL     1      -0.523   0.625   2.923  0.00  0.00    -0.019 C 
ATOM     34  C   UNL     1      -0.464   0.113   1.483  0.00  0.00    -0.077 C 
ATOM     35  N   UNL     1      -1.528   0.771   0.695  0.00  0.00    +0.391 N 
ATOM     36  H   UNL     1      -1.415   1.789   0.770  0.00  0.00    -0.080 HD
BRANCH  30  37
ATOM     37  C   UNL     1      -3.921   1.025   0.362  0.00  0.00    +0.293 C 
ATOM     38  O   UNL     1      -3.700   2.068  -0.207  0.00  0.00    -0.253 OA
BRANCH  37  39
ATOM     39  O   UNL     1      -5.115   0.427   0.226  0.00  0.00    -0.466 OA
BRANCH  39  41
ATOM     40  C   UNL     1      -7.381   0.266  -0.652  0.00  0.00    +0.048 C 
ATOM     41  C   UNL     1      -6.092   1.090  -0.619  0.00  0.00    +0.228 C 
ENDBRANCH  39  41
ENDBRANCH  37  39
ENDBRANCH  30  37
ENDBRANCH  29  35
ENDBRANCH  23  29
ENDBRANCH  22  27
ENDBRANCH   1  22
TORSDOF 9
