REMARK  Name = ZINC15730408
REMARK  5 active torsions:
REMARK  status: ('A' for Active; 'I' for Inactive)
REMARK    1  A    between atoms: C_1  and  C_2
REMARK    2  A    between atoms: C_3  and  N_9
REMARK    3  A    between atoms: N_9  and  S_10
REMARK    4  A    between atoms: S_10  and  C_13
REMARK    5  A    between atoms: C_23  and  C_26
REMARK                            x       y       z     vdW  Elec       q    Type
REMARK                         _______ _______ _______ _____ _____    ______ ____
ROOT
ATOM      1  C   UNL     1       1.287   2.194  -0.125  0.00  0.00    +0.110 A 
ATOM      2  C   UNL     1       0.131   1.438  -0.187  0.00  0.00    +0.030 A 
ATOM      3  C   UNL     1       0.203   0.059  -0.275  0.00  0.00    +0.018 A 
ATOM      4  C   UNL     1       1.441  -0.562  -0.302  0.00  0.00    +0.029 A 
ATOM      5  C   UNL     1       2.607   0.199  -0.242  0.00  0.00    +0.049 A 
ATOM      6  C   UNL     1       2.527   1.579  -0.153  0.00  0.00    +0.053 A 
ATOM      7  N   UNL     1       3.853  -0.445  -0.277  0.00  0.00    -0.284 N 
ATOM      8  C   UNL     1       4.122  -1.345  -1.230  0.00  0.00    +0.218 C 
ATOM      9  O   UNL     1       5.118  -2.031  -1.137  0.00  0.00    -0.275 OA
ATOM     10  C   UNL     1       3.216  -1.521  -2.413  0.00  0.00    +0.110 C 
ATOM     11  C   UNL     1       2.149  -2.589  -2.118  0.00  0.00    +0.057 C 
ATOM     12  S   UNL     1       1.564  -2.318  -0.412  0.00  0.00    -0.120 S 
ATOM     13  C   UNL     1       0.983  -2.443  -3.097  0.00  0.00    +0.020 C 
ATOM     14  H   UNL     1       4.523  -0.236   0.394  0.00  0.00    +0.155 HD
ENDROOT
BRANCH   1  15
ATOM     15  S   UNL     1       1.182   3.949  -0.012  0.00  0.00    +0.072 S 
ATOM     16  O   UNL     1       2.407   4.463  -0.518  0.00  0.00    -0.150 OA
ATOM     17  O   UNL     1      -0.079   4.316  -0.554  0.00  0.00    -0.150 OA
BRANCH  15  18
ATOM     18  N   UNL     1       1.136   4.334   1.598  0.00  0.00    -0.216 N 
ATOM     19  H   UNL     1       0.371   4.805   1.962  0.00  0.00    +0.174 HD
BRANCH  18  22
ATOM     20  C   UNL     1       0.545   3.554   4.269  0.00  0.00    +0.047 C 
ATOM     21  C   UNL     1       1.957   3.593   3.743  0.00  0.00    -0.010 A 
ATOM     22  C   UNL     1       2.200   3.980   2.431  0.00  0.00    +0.052 A 
ATOM     23  C   UNL     1       3.502   4.009   1.948  0.00  0.00    +0.025 A 
ATOM     24  C   UNL     1       4.552   3.663   2.776  0.00  0.00    +0.003 A 
ATOM     25  C   UNL     1       4.308   3.278   4.081  0.00  0.00    +0.020 A 
ATOM     26  C   UNL     1       3.012   3.243   4.565  0.00  0.00    +0.046 A 
ATOM     27 CL   UNL     1       2.710   2.759   6.204  0.00  0.00    -0.083 Cl
ENDBRANCH  18  22
ENDBRANCH  15  18
ENDBRANCH   1  15
TORSDOF 3
