REMARK  Name = ZINC39534238
REMARK  11 active torsions:
REMARK  status: ('A' for Active; 'I' for Inactive)
REMARK    1  A    between atoms: C_1  and  S_2
REMARK    2  A    between atoms: S_2  and  N_3
REMARK    3  A    between atoms: N_3  and  C_4
REMARK    4  A    between atoms: C_4  and  C_5
REMARK    5  A    between atoms: C_5  and  C_7
REMARK    6  A    between atoms: C_5  and  N_23
REMARK    7  A    between atoms: C_10  and  S_13
REMARK    8  A    between atoms: S_13  and  O_16
REMARK    9  A    between atoms: O_16  and  C_17
REMARK   10  A    between atoms: C_27  and  C_30
REMARK   11  A    between atoms: C_35  and  O_36
REMARK                            x       y       z     vdW  Elec       q    Type
REMARK                         _______ _______ _______ _____ _____    ______ ____
ROOT
ATOM      1  C   UNL     1       2.134  -2.216   2.580  0.00  0.00    +0.101 C 
ENDROOT
BRANCH   1   2
ATOM      2  N   UNL     1       2.010  -1.670   3.939  0.00  0.00    -0.297 NA
ATOM      3  C   UNL     1       2.623  -0.337   4.028  0.00  0.00    +0.066 C 
ATOM      4  C   UNL     1       2.421   0.221   5.439  0.00  0.00    -0.066 C 
ATOM      5  N   UNL     1       3.037  -0.686   6.416  0.00  0.00    +0.385 N 
ATOM      6  C   UNL     1       2.398  -2.006   6.332  0.00  0.00    -0.023 C 
ATOM      7  C   UNL     1       2.600  -2.582   4.929  0.00  0.00    +0.074 C 
ATOM      8  H   UNL     1       4.022  -0.776   6.218  0.00  0.00    -0.085 HD
ATOM      9  H   UNL     1       2.914  -0.312   7.346  0.00  0.00    -0.085 HD
BRANCH   6  10
ATOM     10  C   UNL     1       3.019  -2.930   7.348  0.00  0.00    -0.019 A 
ATOM     11  C   UNL     1       4.261  -2.640   7.878  0.00  0.00    +0.005 A 
ATOM     12  C   UNL     1       4.831  -3.488   8.810  0.00  0.00    +0.000 A 
ATOM     13  C   UNL     1       4.160  -4.627   9.214  0.00  0.00    +0.004 A 
ATOM     14  C   UNL     1       2.917  -4.921   8.687  0.00  0.00    +0.045 A 
ATOM     15  C   UNL     1       2.341  -4.070   7.756  0.00  0.00    +0.118 A 
BRANCH  15  16
ATOM     16  O   UNL     1       1.116  -4.354   7.240  0.00  0.00    -0.507 OA
ATOM     17  H   UNL     1       1.142  -4.896   6.439  0.00  0.00    +0.292 HD
ENDBRANCH  15  16
ENDBRANCH   6  10
ENDBRANCH   1   2
BRANCH   1  18
ATOM     18  C   UNL     1       1.942  -3.710   2.620  0.00  0.00    -0.029 A 
ATOM     19  C   UNL     1       0.838  -4.248   3.254  0.00  0.00    +0.007 A 
ATOM     20  C   UNL     1       0.662  -5.619   3.291  0.00  0.00    +0.031 A 
ATOM     21  C   UNL     1       1.590  -6.451   2.693  0.00  0.00    +0.128 A 
ATOM     22  C   UNL     1       2.694  -5.913   2.058  0.00  0.00    +0.031 A 
ATOM     23  C   UNL     1       2.867  -4.542   2.018  0.00  0.00    +0.007 A 
BRANCH  21  24
ATOM     24  S   UNL     1       1.366  -8.198   2.741  0.00  0.00    +0.151 S 
ATOM     25  O   UNL     1       2.654  -8.777   2.583  0.00  0.00    -0.131 OA
ATOM     26  O   UNL     1       0.541  -8.471   3.865  0.00  0.00    -0.131 OA
BRANCH  24  27
ATOM     27  O   UNL     1       0.562  -8.583   1.508  0.00  0.00    -0.342 OA
BRANCH  27  28
ATOM     28  C   UNL     1       1.278  -8.561   0.352  0.00  0.00    +0.157 A 
ATOM     29  C   UNL     1       1.349  -7.397  -0.399  0.00  0.00    +0.048 A 
ATOM     30  C   UNL     1       2.077  -7.378  -1.573  0.00  0.00    +0.004 A 
ATOM     31  C   UNL     1       2.734  -8.517  -1.999  0.00  0.00    +0.000 A 
ATOM     32  C   UNL     1       2.664  -9.678  -1.252  0.00  0.00    +0.004 A 
ATOM     33  C   UNL     1       1.942  -9.701  -0.075  0.00  0.00    +0.048 A 
ENDBRANCH  27  28
ENDBRANCH  24  27
ENDBRANCH  21  24
ENDBRANCH   1  18
BRANCH   1  34
ATOM     34  C   UNL     1       1.068  -1.589   1.680  0.00  0.00    +0.117 C 
BRANCH  34  35
ATOM     35  N   UNL     1       1.174  -0.125   1.741  0.00  0.00    -0.262 NA
ATOM     36  H   UNL     1       0.754   0.233   2.586  0.00  0.00    +0.135 HD
BRANCH  35  38
ATOM     37  C   UNL     1       0.690   2.401   0.582  0.00  0.00    +0.102 C 
ATOM     38  S   UNL     1       0.457   0.622   0.312  0.00  0.00    -0.084 S 
ENDBRANCH  35  38
ENDBRANCH  34  35
ENDBRANCH   1  34
TORSDOF 10
