REMARK  Name = ZINC36633778
REMARK  2 active torsions:
REMARK  status: ('A' for Active; 'I' for Inactive)
REMARK    1  A    between atoms: C_4  and  C_7
REMARK    2  A    between atoms: C_10  and  C_13
REMARK                            x       y       z     vdW  Elec       q    Type
REMARK                         _______ _______ _______ _____ _____    ______ ____
ROOT
ATOM      1  C   UNL     1       3.693  -0.682  -0.037  0.00  0.00    +0.069 C 
ATOM      2  N   UNL     1       4.855  -0.123  -0.040  0.00  0.00    -0.182 NA
ATOM      3  N   UNL     1       5.919  -1.022  -0.057  0.00  0.00    -0.199 N 
ATOM      4  C   UNL     1       5.383  -2.393  -0.067  0.00  0.00    +0.135 C 
ATOM      5  C   UNL     1       3.856  -2.185  -0.047  0.00  0.00    +0.087 C 
ATOM      6  C   UNL     1       7.244  -0.686  -0.064  0.00  0.00    +0.171 C 
ATOM      7  N   UNL     1       8.174  -1.588  -0.086  0.00  0.00    -0.151 NA
ATOM      8  C   UNL     1       9.480  -1.273  -0.093  0.00  0.00    +0.303 C 
ATOM      9  O   UNL     1      10.440  -2.023  -0.114  0.00  0.00    -0.260 OA
ATOM     10  S   UNL     1       9.466   0.513  -0.067  0.00  0.00    -0.003 S 
ATOM     11  C   UNL     1       7.691   0.734  -0.053  0.00  0.00    +0.188 C 
ATOM     12  N   UNL     1       6.987   1.827  -0.037  0.00  0.00    -0.020 NA
ATOM     13  O   UNL     1       7.636   3.086  -0.029  0.00  0.00    -0.143 OA
ENDROOT
BRANCH   4  14
ATOM     14  C   UNL     1       5.811  -3.121  -1.315  0.00  0.00    -0.025 A 
ATOM     15  C   UNL     1       5.865  -2.449  -2.522  0.00  0.00    +0.007 A 
ATOM     16  C   UNL     1       6.258  -3.116  -3.667  0.00  0.00    +0.020 A 
ATOM     17  C   UNL     1       6.598  -4.456  -3.605  0.00  0.00    +0.041 A 
ATOM     18  C   UNL     1       6.543  -5.127  -2.396  0.00  0.00    +0.020 A 
ATOM     19  C   UNL     1       6.156  -4.458  -1.251  0.00  0.00    +0.007 A 
ATOM     20 CL   UNL     1       7.090  -5.295  -5.043  0.00  0.00    -0.084 Cl
ENDBRANCH   4  14
BRANCH   1  24
ATOM     21  C   UNL     1      -0.017   1.380   0.010  0.00  0.00    +0.000 A 
ATOM     22  C   UNL     1       1.168   2.094   0.002  0.00  0.00    +0.001 A 
ATOM     23  C   UNL     1       2.377   1.431  -0.013  0.00  0.00    +0.010 A 
ATOM     24  C   UNL     1       2.404   0.034  -0.021  0.00  0.00    -0.002 A 
ATOM     25  C   UNL     1       1.204  -0.681  -0.013  0.00  0.00    +0.010 A 
ATOM     26  C   UNL     1       0.002  -0.004   0.002  0.00  0.00    +0.001 A 
ENDBRANCH   1  24
TORSDOF 2
