REMARK  Name = ZINC41596713
REMARK  6 active torsions:
REMARK  status: ('A' for Active; 'I' for Inactive)
REMARK    1  A    between atoms: C_1  and  C_2
REMARK    2  A    between atoms: C_2  and  C_3
REMARK    3  A    between atoms: C_2  and  C_4
REMARK    4  A    between atoms: N_12  and  C_13
REMARK    5  A    between atoms: C_16  and  S_19
REMARK    6  A    between atoms: S_19  and  N_22
REMARK                            x       y       z     vdW  Elec       q    Type
REMARK                         _______ _______ _______ _____ _____    ______ ____
ROOT
ATOM      1  C   UNL     1      -0.196  -2.094  -1.788  0.00  0.00    +0.053 A 
ATOM      2  C   UNL     1       0.925  -2.872  -1.735  0.00  0.00    +0.093 A 
ATOM      3  C   UNL     1       1.887  -2.746  -2.753  0.00  0.00    +0.253 A 
ATOM      4  O   UNL     1       2.901  -3.426  -2.737  0.00  0.00    -0.268 OA
ATOM      5  N   UNL     1       1.668  -1.860  -3.747  0.00  0.00    -0.295 N 
ATOM      6  H   UNL     1       2.319  -1.757  -4.460  0.00  0.00    +0.172 HD
ATOM      7  C   UNL     1       0.532  -1.111  -3.747  0.00  0.00    +0.200 A 
ATOM      8  N   UNL     1      -0.368  -1.238  -2.792  0.00  0.00    -0.220 NA
ATOM      9  N   UNL     1       0.317  -0.213  -4.760  0.00  0.00    -0.285 N 
ATOM     10  H   UNL     1       1.002  -0.065  -5.430  0.00  0.00    +0.155 HD
ENDROOT
BRANCH   9  11
ATOM     11  C   UNL     1      -0.890   0.489  -4.827  0.00  0.00    +0.034 A 
ATOM     12  C   UNL     1      -1.512   0.918  -3.662  0.00  0.00    +0.025 A 
ATOM     13  C   UNL     1      -2.704   1.612  -3.732  0.00  0.00    +0.030 A 
ATOM     14  C   UNL     1      -3.279   1.879  -4.960  0.00  0.00    +0.105 A 
ATOM     15  C   UNL     1      -2.663   1.453  -6.123  0.00  0.00    +0.030 A 
ATOM     16  C   UNL     1      -1.468   0.764  -6.060  0.00  0.00    +0.025 A 
BRANCH  14  17
ATOM     17  S   UNL     1      -4.801   2.764  -5.045  0.00  0.00    +0.056 S 
ATOM     18  O   UNL     1      -5.408   2.411  -6.281  0.00  0.00    -0.153 OA
ATOM     19  O   UNL     1      -5.450   2.575  -3.796  0.00  0.00    -0.153 OA
BRANCH  17  20
ATOM     20  N   UNL     1      -4.426   4.374  -5.145  0.00  0.00    -0.204 NA
ATOM     21  H   UNL     1      -3.498   4.657  -5.148  0.00  0.00    +0.144 HD
ATOM     22  H   UNL     1      -5.134   5.034  -5.201  0.00  0.00    +0.144 HD
ENDBRANCH  17  20
ENDBRANCH  14  17
ENDBRANCH   9  11
BRANCH   1  24
ATOM     23  C   UNL     1      -1.413  -0.856  -0.018  0.00  0.00    +0.014 C 
ATOM     24  C   UNL     1      -1.243  -2.209  -0.710  0.00  0.00    +0.032 C 
ATOM     25  C   UNL     1      -2.573  -2.634  -1.335  0.00  0.00    +0.014 C 
ENDBRANCH   1  24
TORSDOF 4
