REMARK  Name = ZINC66244678
REMARK  5 active torsions:
REMARK  status: ('A' for Active; 'I' for Inactive)
REMARK    1  A    between atoms: C_3  and  C_9
REMARK    2  A    between atoms: C_9  and  C_15
REMARK    3  A    between atoms: C_15  and  N_16
REMARK    4  A    between atoms: N_18  and  C_19
REMARK    5  A    between atoms: C_19  and  C_20
REMARK                            x       y       z     vdW  Elec       q    Type
REMARK                         _______ _______ _______ _____ _____    ______ ____
ROOT
ATOM      1  C   UNL     1       3.372   3.686  -0.017  0.00  0.00    +0.127 C 
ENDROOT
BRANCH   1   2
ATOM      2  N   UNL     1       2.589   4.032  -1.205  0.00  0.00    -0.357 N 
ATOM      3  C   UNL     1       2.200   5.334  -1.416  0.00  0.00    +0.169 C 
ATOM      4  N   UNL     1       1.503   5.642  -2.474  0.00  0.00    -0.355 N 
ATOM      5  N   UNL     1       2.545   6.310  -0.512  0.00  0.00    -0.371 N 
ATOM      6  H   UNL     1       2.345   3.344  -1.843  0.00  0.00    +0.162 HD
ATOM      7  H   UNL     1       3.063   6.080   0.275  0.00  0.00    +0.159 HD
ATOM      8  H   UNL     1       2.270   7.228  -0.661  0.00  0.00    +0.159 HD
ATOM      9  H   UNL     1       1.259   4.954  -3.112  0.00  0.00    +0.162 HD
BRANCH   4  10
ATOM     10  C   UNL     1       1.088   7.029  -2.699  0.00  0.00    +0.147 C 
BRANCH  10  11
ATOM     11  C   UNL     1       0.289   7.118  -4.001  0.00  0.00    +0.137 C 
ATOM     12  C   UNL     1      -0.130   8.584  -4.276  0.00  0.00    +0.035 C 
ATOM     13  C   UNL     1      -0.304   8.556  -5.819  0.00  0.00    +0.031 C 
ATOM     14  C   UNL     1       0.790   7.557  -6.254  0.00  0.00    +0.160 C 
ATOM     15  O   UNL     1       1.113   6.745  -5.117  0.00  0.00    -0.375 OA
ENDBRANCH  10  11
ENDBRANCH   4  10
ENDBRANCH   1   2
BRANCH   1  16
ATOM     16  C   UNL     1       3.671   2.185  -0.023  0.00  0.00    +0.019 C 
ATOM     17  C   UNL     1       4.474   1.826  -1.277  0.00  0.00    +0.041 C 
ATOM     18  C   UNL     1       5.820   2.554  -1.239  0.00  0.00    +0.161 C 
ATOM     19  O   UNL     1       6.520   2.196  -0.046  0.00  0.00    -0.380 OA
ATOM     20  C   UNL     1       5.839   2.550   1.159  0.00  0.00    +0.161 C 
ATOM     21  C   UNL     1       4.494   1.822   1.217  0.00  0.00    +0.041 C 
BRANCH  16  24
ATOM     22  C   UNL     1      -0.017   1.379   0.010  0.00  0.00    +0.020 A 
ATOM     23  C   UNL     1       1.171   2.087   0.002  0.00  0.00    +0.007 A 
ATOM     24  C   UNL     1       2.377   1.413  -0.013  0.00  0.00    -0.021 A 
ATOM     25  C   UNL     1       2.397   0.029  -0.021  0.00  0.00    +0.046 A 
ATOM     26  C   UNL     1       1.210  -0.679  -0.013  0.00  0.00    +0.040 A 
ATOM     27  C   UNL     1       0.002  -0.004   0.002  0.00  0.00    +0.042 A 
ATOM     28 CL   UNL     1      -1.489  -0.893   0.012  0.00  0.00    -0.083 Cl
ATOM     29 CL   UNL     1       3.913  -0.817  -0.041  0.00  0.00    -0.083 Cl
ENDBRANCH  16  24
ENDBRANCH   1  16
TORSDOF 5
