REMARK  Name = ZINC65074845
REMARK  7 active torsions:
REMARK  status: ('A' for Active; 'I' for Inactive)
REMARK    1  A    between atoms: C_1  and  C_2
REMARK    2  A    between atoms: C_2  and  C_3
REMARK    3  A    between atoms: C_2  and  C_4
REMARK    4  A    between atoms: C_7  and  S_10
REMARK    5  A    between atoms: S_10  and  N_13
REMARK    6  A    between atoms: N_24  and  C_25
REMARK    7  A    between atoms: C_25  and  C_26
REMARK                            x       y       z     vdW  Elec       q    Type
REMARK                         _______ _______ _______ _____ _____    ______ ____
ROOT
ATOM      1  N   UNL     1       2.686  -0.888   6.091  0.00  0.00    -0.176 NA
ATOM      2  C   UNL     1       3.617   0.236   6.262  0.00  0.00    +0.111 C 
ATOM      3  C   UNL     1       2.818   1.543   6.260  0.00  0.00    +0.047 C 
ATOM      4  C   UNL     1       1.722   1.468   7.327  0.00  0.00    +0.075 C 
ATOM      5  C   UNL     1       0.768   0.318   6.997  0.00  0.00    +0.047 C 
ATOM      6  C   UNL     1       1.540  -1.000   7.004  0.00  0.00    +0.111 C 
ATOM      7  C   UNL     1       0.959   2.762   7.354  0.00  0.00    +0.089 C 
ATOM      8  N   UNL     1       0.623   3.364   8.431  0.00  0.00    -0.374 N 
ATOM      9  C   UNL     1       0.945   2.874   9.768  0.00  0.00    +0.129 C 
ATOM     10  C   UNL     1       1.337   1.396   9.705  0.00  0.00    +0.102 C 
ATOM     11  N   UNL     1       2.340   1.225   8.639  0.00  0.00    -0.303 NA
ATOM     12  N   UNL     1       0.604   3.329   6.158  0.00  0.00    -0.329 N 
ATOM     13  H   UNL     1       2.755   0.306   8.678  0.00  0.00    +0.123 HD
ATOM     14  H   UNL     1       0.846   2.896   5.325  0.00  0.00    +0.147 HD
ATOM     15  H   UNL     1       0.124   4.193   8.356  0.00  0.00    +0.161 HD
ENDROOT
BRANCH   1  16
ATOM     16  S   UNL     1       2.921  -2.003   4.890  0.00  0.00    +0.061 S 
ATOM     17  O   UNL     1       2.256  -3.190   5.302  0.00  0.00    -0.153 OA
ATOM     18  O   UNL     1       4.306  -1.976   4.575  0.00  0.00    -0.153 OA
BRANCH  16  22
ATOM     19  C   UNL     1       0.731  -0.503   1.223  0.00  0.00    -0.045 A 
ATOM     20  C   UNL     1       2.050  -0.148   1.434  0.00  0.00    +0.006 A 
ATOM     21  C   UNL     1       2.719  -0.606   2.554  0.00  0.00    +0.029 A 
ATOM     22  C   UNL     1       2.068  -1.419   3.463  0.00  0.00    +0.105 A 
ATOM     23  C   UNL     1       0.749  -1.773   3.252  0.00  0.00    +0.029 A 
ATOM     24  C   UNL     1       0.079  -1.312   2.135  0.00  0.00    +0.006 A 
BRANCH  19  26
ATOM     25  C   UNL     1      -0.019   1.526   0.010  0.00  0.00    +0.012 C 
ATOM     26  C   UNL     1       0.002  -0.004   0.002  0.00  0.00    +0.013 C 
ATOM     27  C   UNL     1       0.718  -0.497  -1.257  0.00  0.00    +0.012 C 
ENDBRANCH  19  26
ENDBRANCH  16  22
ENDBRANCH   1  16
BRANCH  12  28
ATOM     28  C   UNL     1      -0.141   4.591   6.138  0.00  0.00    +0.138 C 
BRANCH  28  29
ATOM     29  C   UNL     1      -0.404   4.996   4.711  0.00  0.00    -0.030 A 
ATOM     30  C   UNL     1       0.509   5.786   4.037  0.00  0.00    +0.006 A 
ATOM     31  C   UNL     1       0.268   6.158   2.728  0.00  0.00    +0.020 A 
ATOM     32  C   UNL     1      -0.888   5.739   2.092  0.00  0.00    +0.041 A 
ATOM     33  C   UNL     1      -1.801   4.949   2.766  0.00  0.00    +0.020 A 
ATOM     34  C   UNL     1      -1.556   4.573   4.074  0.00  0.00    +0.006 A 
ATOM     35 CL   UNL     1      -1.192   6.207   0.448  0.00  0.00    -0.084 Cl
ENDBRANCH  28  29
ENDBRANCH  12  28
TORSDOF 5
