REMARK  Name = ZINC12807422
REMARK  15 active torsions:
REMARK  status: ('A' for Active; 'I' for Inactive)
REMARK    1  A    between atoms: C_1  and  C_2
REMARK    2  A    between atoms: C_2  and  C_3
REMARK    3  A    between atoms: C_2  and  C_4
REMARK    4  A    between atoms: C_4  and  C_6
REMARK    5  A    between atoms: C_4  and  N_22
REMARK    6  A    between atoms: N_8  and  C_9
REMARK    7  A    between atoms: C_9  and  C_10
REMARK    8  A    between atoms: C_10  and  C_12
REMARK    9  A    between atoms: C_10  and  N_61
REMARK   10  A    between atoms: C_15  and  O_18
REMARK   11  A    between atoms: O_18  and  C_19
REMARK   12  A    between atoms: C_20  and  N_61
REMARK   13  A    between atoms: C_21  and  N_61
REMARK   14  A    between atoms: N_22  and  S_23
REMARK   15  A    between atoms: S_23  and  C_26
REMARK                            x       y       z     vdW  Elec       q    Type
REMARK                         _______ _______ _______ _____ _____    ______ ____
ROOT
ATOM      1  C   UNL     1       2.351  -3.627  -3.336  0.00  0.00    +0.232 C 
ATOM      2  O   UNL     1       1.469  -4.417  -3.072  0.00  0.00    -0.274 OA
ATOM      3  N   UNL     1       2.961  -3.674  -4.537  0.00  0.00    -0.315 N 
ATOM      4  H   UNL     1       3.711  -3.088  -4.723  0.00  0.00    +0.149 HD
ENDROOT
BRANCH   1   5
ATOM      5  C   UNL     1       2.765  -2.593  -2.321  0.00  0.00    +0.165 C 
BRANCH   5   7
ATOM      6  C   UNL     1       0.612  -1.379  -2.690  0.00  0.00    +0.009 C 
ATOM      7  C   UNL     1       2.136  -1.245  -2.680  0.00  0.00    +0.010 C 
ATOM      8  C   UNL     1       2.550  -0.197  -1.645  0.00  0.00    +0.009 C 
ENDBRANCH   5   7
BRANCH   5   9
ATOM      9  N   UNL     1       2.308  -3.005  -0.991  0.00  0.00    -0.178 NA
ATOM     10  H   UNL     1       1.402  -2.809  -0.707  0.00  0.00    +0.149 HD
BRANCH   9  11
ATOM     11  S   UNL     1       3.341  -3.804   0.028  0.00  0.00    +0.059 S 
ATOM     12  O   UNL     1       3.905  -4.872  -0.720  0.00  0.00    -0.153 OA
ATOM     13  O   UNL     1       2.632  -4.015   1.242  0.00  0.00    -0.153 OA
BRANCH  11  14
ATOM     14  C   UNL     1       4.662  -2.699   0.403  0.00  0.00    +0.105 A 
ATOM     15  C   UNL     1       4.525  -1.780   1.426  0.00  0.00    +0.030 A 
ATOM     16  C   UNL     1       5.561  -0.913   1.720  0.00  0.00    +0.022 A 
ATOM     17  C   UNL     1       6.735  -0.966   0.990  0.00  0.00    +0.041 A 
ATOM     18  C   UNL     1       6.871  -1.886  -0.034  0.00  0.00    +0.022 A 
ATOM     19  C   UNL     1       5.835  -2.752  -0.328  0.00  0.00    +0.030 A 
ATOM     20 CL   UNL     1       8.036   0.122   1.359  0.00  0.00    -0.084 Cl
ENDBRANCH  11  14
ENDBRANCH   9  11
ENDBRANCH   5   9
ENDBRANCH   1   5
BRANCH   3  21
ATOM     21  C   UNL     1       2.491  -4.611  -5.561  0.00  0.00    +0.093 C 
BRANCH  21  22
ATOM     22  C   UNL     1       3.405  -4.529  -6.785  0.00  0.00    -0.021 C 
BRANCH  22  23
ATOM     23  C   UNL     1       3.303  -3.156  -7.397  0.00  0.00    -0.059 A 
ATOM     24  C   UNL     1       2.237  -2.845  -8.221  0.00  0.00    +0.005 A 
ATOM     25  C   UNL     1       2.138  -1.586  -8.780  0.00  0.00    +0.046 A 
ATOM     26  C   UNL     1       3.115  -0.635  -8.522  0.00  0.00    +0.120 A 
ATOM     27  C   UNL     1       4.187  -0.951  -7.699  0.00  0.00    +0.046 A 
ATOM     28  C   UNL     1       4.278  -2.210  -7.138  0.00  0.00    +0.005 A 
BRANCH  26  29
ATOM     29  O   UNL     1       3.023   0.603  -9.075  0.00  0.00    -0.495 OA
ATOM     30  C   UNL     1       1.893   0.857  -9.912  0.00  0.00    +0.277 C 
ENDBRANCH  26  29
ENDBRANCH  22  23
BRANCH  22  33
ATOM     31  C   UNL     1       3.882  -5.521  -8.941  0.00  0.00    -0.096 C 
ATOM     32  C   UNL     1       2.945  -6.875  -7.167  0.00  0.00    -0.096 C 
ATOM     33  N   UNL     1       2.968  -5.530  -7.780  0.00  0.00    +0.382 N 
ATOM     34  H   UNL     1       2.022  -5.293  -8.099  0.00  0.00    -0.082 HD
ENDBRANCH  22  33
ENDBRANCH  21  22
ENDBRANCH   3  21
TORSDOF 10
