REMARK  Name = ZINC05618978
REMARK  14 active torsions:
REMARK  status: ('A' for Active; 'I' for Inactive)
REMARK    1  A    between atoms: C_1  and  C_2
REMARK    2  A    between atoms: C_2  and  O_4
REMARK    3  A    between atoms: O_4  and  C_5
REMARK    4  A    between atoms: C_9  and  C_42
REMARK    5  A    between atoms: C_14  and  C_41
REMARK    6  A    between atoms: C_25  and  C_27
REMARK    7  A    between atoms: C_27  and  C_29
REMARK    8  A    between atoms: C_27  and  O_36
REMARK    9  A    between atoms: C_29  and  C_30
REMARK   10  A    between atoms: C_30  and  O_31
REMARK   11  A    between atoms: O_31  and  C_32
REMARK   12  A    between atoms: N_34  and  C_35
REMARK   13  A    between atoms: O_36  and  C_37
REMARK   14  A    between atoms: N_39  and  C_40
REMARK                            x       y       z     vdW  Elec       q    Type
REMARK                         _______ _______ _______ _____ _____    ______ ____
ROOT
ATOM      1  C   UNL     1      -3.695   1.829   1.244  0.00  0.00    +0.180 C 
ATOM      2  C   UNL     1      -4.902   2.761   1.172  0.00  0.00    +0.046 C 
ATOM      3  C   UNL     1      -5.147   3.459   2.507  0.00  0.00    +0.015 C 
ATOM      4  C   UNL     1      -5.193   2.426   3.644  0.00  0.00    -0.008 C 
ATOM      5  C   UNL     1      -6.373   2.706   4.545  0.00  0.00    +0.003 C 
ATOM      6  C   UNL     1      -6.144   2.457   6.023  0.00  0.00    +0.005 C 
ATOM      7  C   UNL     1      -7.347   2.981   6.843  0.00  0.00    +0.007 C 
ATOM      8  C   UNL     1      -8.589   2.253   6.401  0.00  0.00    -0.023 C 
ATOM      9  C   UNL     1      -8.802   2.429   4.888  0.00  0.00    -0.001 C 
ATOM     10  C   UNL     1      -7.643   2.002   4.038  0.00  0.00    +0.000 C 
ATOM     11  C   UNL     1      -7.424   0.501   3.956  0.00  0.00    +0.031 C 
ATOM     12  C   UNL     1      -6.189   0.214   3.144  0.00  0.00    -0.027 C 
ATOM     13  C   UNL     1      -5.216   1.056   3.018  0.00  0.00    -0.064 C 
ATOM     14  C   UNL     1      -4.004   0.659   2.188  0.00  0.00    +0.075 C 
ATOM     15  C   UNL     1     -10.159   1.746   4.680  0.00  0.00    +0.005 C 
ATOM     16  C   UNL     1     -10.971   2.235   5.915  0.00  0.00    +0.008 C 
ATOM     17  C   UNL     1      -9.936   2.762   6.945  0.00  0.00    +0.036 C 
ATOM     18  C   UNL     1      -8.505   0.784   6.835  0.00  0.00    +0.012 C 
ATOM     19  C   UNL     1      -3.888   2.567   4.430  0.00  0.00    +0.016 C 
ENDROOT
BRANCH   1  20
ATOM     20  O   UNL     1      -3.403   1.314  -0.082  0.00  0.00    -0.461 OA
BRANCH  20  22
ATOM     21  C   UNL     1      -1.742   0.481  -1.708  0.00  0.00    +0.136 C 
ATOM     22  C   UNL     1      -2.121   1.020  -0.353  0.00  0.00    +0.304 C 
ATOM     23  O   UNL     1      -1.272   1.187   0.490  0.00  0.00    -0.251 OA
ENDBRANCH  20  22
ENDBRANCH   1  20
BRANCH  17  24
ATOM     24  C   UNL     1      -9.979   4.282   7.026  0.00  0.00    +0.185 C 
BRANCH  24  25
ATOM     25  C   UNL     1     -11.338   4.725   7.572  0.00  0.00    +0.086 C 
BRANCH  25  26
ATOM     26  C   UNL     1     -11.428   6.252   7.537  0.00  0.00    +0.237 C 
BRANCH  26  27
ATOM     27  O   UNL     1     -12.717   6.673   8.055  0.00  0.00    -0.450 OA
BRANCH  27  28
ATOM     28  C   UNL     1     -12.959   7.997   8.092  0.00  0.00    +0.400 C 
ATOM     29  O   UNL     1     -12.114   8.779   7.702  0.00  0.00    -0.226 OA
ATOM     30  N   UNL     1     -14.136   8.454   8.561  0.00  0.00    -0.284 N 
ATOM     31  C   UNL     1     -14.398   9.895   8.602  0.00  0.00    +0.131 C 
ATOM     32  H   UNL     1     -14.810   7.830   8.873  0.00  0.00    +0.152 HD
ENDBRANCH  27  28
ENDBRANCH  26  27
ENDBRANCH  25  26
ENDBRANCH  24  25
BRANCH  24  33
ATOM     33  O   UNL     1      -8.926   4.749   7.910  0.00  0.00    -0.447 OA
BRANCH  33  34
ATOM     34  C   UNL     1      -8.405   5.963   7.651  0.00  0.00    +0.400 C 
ATOM     35  O   UNL     1      -8.818   6.614   6.712  0.00  0.00    -0.226 OA
ATOM     36  N   UNL     1      -7.424   6.456   8.433  0.00  0.00    -0.284 N 
ATOM     37  C   UNL     1      -6.857   7.777   8.151  0.00  0.00    +0.131 C 
ATOM     38  H   UNL     1      -7.094   5.937   9.183  0.00  0.00    +0.152 HD
ENDBRANCH  33  34
ENDBRANCH  24  33
ENDBRANCH  17  24
TORSDOF 9
