REMARK  Name = ZINC11701597
REMARK  7 active torsions:
REMARK  status: ('A' for Active; 'I' for Inactive)
REMARK    1  A    between atoms: C_4  and  O_7
REMARK    2  A    between atoms: O_7  and  C_8
REMARK    3  A    between atoms: C_12  and  C_14
REMARK    4  A    between atoms: C_14  and  N_59
REMARK    5  A    between atoms: C_20  and  C_22
REMARK    6  A    between atoms: C_22  and  C_23
REMARK    7  A    between atoms: N_25  and  C_26
REMARK                            x       y       z     vdW  Elec       q    Type
REMARK                         _______ _______ _______ _____ _____    ______ ____
ROOT
ATOM      1  C   UNL     1      -1.151   3.224   2.366  0.00  0.00    -0.058 C 
ATOM      2  C   UNL     1      -1.796   3.110   3.748  0.00  0.00    +0.085 C 
ATOM      3  N   UNL     1      -3.194   3.527   3.684  0.00  0.00    -0.318 N 
ATOM      4  C   UNL     1      -3.878   3.602   2.538  0.00  0.00    +0.200 C 
ATOM      5  O   UNL     1      -5.045   3.929   2.578  0.00  0.00    -0.278 OA
ATOM      6  C   UNL     1      -3.261   3.299   1.202  0.00  0.00    +0.028 C 
ATOM      7  H   UNL     1      -3.646   3.761   4.510  0.00  0.00    +0.149 HD
ATOM      8  N   UNL     1      -2.020   2.527   1.397  0.00  0.00    +0.391 N 
ATOM      9  H   UNL     1      -2.256   1.598   1.765  0.00  0.00    -0.080 HD
ENDROOT
BRANCH   8  10
ATOM     10  C   UNL     1      -1.314   2.368   0.105  0.00  0.00    -0.042 C 
BRANCH  10  15
ATOM     11  C   UNL     1       2.351   1.773   0.806  0.00  0.00    +0.129 A 
ATOM     12  C   UNL     1       2.416   0.387   0.770  0.00  0.00    +0.046 A 
ATOM     13  C   UNL     1       1.275  -0.350   0.522  0.00  0.00    +0.004 A 
ATOM     14  C   UNL     1       0.069   0.291   0.309  0.00  0.00    +0.002 A 
ATOM     15  C   UNL     1       0.001   1.672   0.344  0.00  0.00    -0.060 A 
ATOM     16  C   UNL     1       1.140   2.414   0.591  0.00  0.00    +0.048 A 
BRANCH  11  17
ATOM     17  O   UNL     1       3.473   2.501   1.050  0.00  0.00    -0.456 OA
BRANCH  17  21
ATOM     18  C   UNL     1       6.455   2.476  -1.800  0.00  0.00    +0.000 A 
ATOM     19  C   UNL     1       6.665   3.105  -0.586  0.00  0.00    +0.004 A 
ATOM     20  C   UNL     1       5.668   3.115   0.369  0.00  0.00    +0.046 A 
ATOM     21  C   UNL     1       4.455   2.493   0.111  0.00  0.00    +0.128 A 
ATOM     22  C   UNL     1       4.249   1.857  -1.105  0.00  0.00    +0.046 A 
ATOM     23  C   UNL     1       5.247   1.856  -2.060  0.00  0.00    +0.004 A 
ENDBRANCH  17  21
ENDBRANCH  11  17
ENDBRANCH  10  15
ENDBRANCH   8  10
BRANCH   6  24
ATOM     24  C   UNL     1      -4.239   2.467   0.368  0.00  0.00    +0.089 C 
BRANCH  24  25
ATOM     25  C   UNL     1      -4.505   1.158   1.065  0.00  0.00    +0.212 C 
ATOM     26  O   UNL     1      -4.035   0.949   2.163  0.00  0.00    -0.276 OA
ATOM     27  N   UNL     1      -5.266   0.219   0.469  0.00  0.00    -0.312 N 
ATOM     28  H   UNL     1      -5.643   0.387  -0.410  0.00  0.00    +0.149 HD
BRANCH  27  29
ATOM     29  C   UNL     1      -5.526  -1.053   1.146  0.00  0.00    +0.073 C 
ATOM     30  C   UNL     1      -4.397  -2.058   0.834  0.00  0.00    +0.022 C 
ATOM     31  C   UNL     1      -5.126  -3.420   0.711  0.00  0.00    +0.002 C 
ATOM     32  C   UNL     1      -6.449  -3.038   0.001  0.00  0.00    +0.002 C 
ATOM     33  C   UNL     1      -6.829  -1.676   0.617  0.00  0.00    +0.022 C 
ENDBRANCH  27  29
ENDBRANCH  24  25
ENDBRANCH   6  24
TORSDOF 7
