REMARK  Name = ZINC08791953
REMARK  8 active torsions:
REMARK  status: ('A' for Active; 'I' for Inactive)
REMARK    1  A    between atoms: C_1  and  C_2
REMARK    2  A    between atoms: C_6  and  C_23
REMARK    3  A    between atoms: C_7  and  C_11
REMARK    4  A    between atoms: C_11  and  C_12
REMARK    5  A    between atoms: N_14  and  C_15
REMARK    6  A    between atoms: C_15  and  C_16
REMARK    7  A    between atoms: C_16  and  C_17
REMARK    8  A    between atoms: C_26  and  C_29
REMARK                            x       y       z     vdW  Elec       q    Type
REMARK                         _______ _______ _______ _____ _____    ______ ____
ROOT
ATOM      1  C   UNL     1      -0.018   1.503   0.010  0.00  0.00    +0.044 C 
ATOM      2  C   UNL     1       0.002  -0.004   0.002  0.00  0.00    -0.036 A 
ATOM      3  C   UNL     1       0.006  -0.675  -1.187  0.00  0.00    +0.051 A 
ATOM      4  C   UNL     1       0.024  -2.067  -1.213  0.00  0.00    +0.143 A 
ATOM      5  C   UNL     1       0.040  -2.789  -0.008  0.00  0.00    +0.064 A 
ATOM      6  C   UNL     1       0.059  -4.251  -0.054  0.00  0.00    -0.026 A 
ATOM      7  C   UNL     1       0.061  -4.856  -1.271  0.00  0.00    +0.049 A 
ATOM      8  C   UNL     1       0.044  -4.070  -2.441  0.00  0.00    +0.341 A 
ATOM      9  O   UNL     1       0.046  -4.623  -3.527  0.00  0.00    -0.245 OA
ATOM     10  O   UNL     1       0.027  -2.730  -2.390  0.00  0.00    -0.422 OA
ATOM     11  C   UNL     1       0.077  -5.065   1.214  0.00  0.00    +0.045 C 
ATOM     12  C   UNL     1       0.037  -2.103   1.219  0.00  0.00    +0.147 A 
ATOM     13  C   UNL     1       0.023  -0.703   1.210  0.00  0.00    +0.032 A 
ATOM     14  C   UNL     1       0.031  -0.301   2.629  0.00  0.00    +0.028 A 
ATOM     15  C   UNL     1       0.054  -1.452   3.340  0.00  0.00    +0.204 A 
ATOM     16  O   UNL     1       0.049  -2.503   2.504  0.00  0.00    -0.462 OA
ENDROOT
BRANCH  14  17
ATOM     17  C   UNL     1       0.017   1.081   3.166  0.00  0.00    -0.014 A 
ATOM     18  C   UNL     1       0.919   2.028   2.684  0.00  0.00    +0.008 A 
ATOM     19  C   UNL     1       0.901   3.313   3.187  0.00  0.00    +0.001 A 
ATOM     20  C   UNL     1      -0.010   3.662   4.168  0.00  0.00    +0.000 A 
ATOM     21  C   UNL     1      -0.907   2.726   4.651  0.00  0.00    +0.001 A 
ATOM     22  C   UNL     1      -0.902   1.440   4.151  0.00  0.00    +0.008 A 
ENDBRANCH  14  17
BRANCH   7  23
ATOM     23  C   UNL     1       0.081  -6.359  -1.369  0.00  0.00    +0.138 C 
BRANCH  23  24
ATOM     24  C   UNL     1      -1.329  -6.872  -1.518  0.00  0.00    +0.218 C 
ATOM     25  O   UNL     1      -2.258  -6.093  -1.542  0.00  0.00    -0.275 OA
ATOM     26  N   UNL     1      -1.557  -8.196  -1.624  0.00  0.00    -0.315 N 
ATOM     27  H   UNL     1      -0.814  -8.819  -1.605  0.00  0.00    +0.149 HD
BRANCH  26  28
ATOM     28  C   UNL     1      -2.927  -8.694  -1.768  0.00  0.00    +0.110 C 
BRANCH  28  29
ATOM     29  C   UNL     1      -2.907 -10.221  -1.868  0.00  0.00    +0.073 C 
BRANCH  29  30
ATOM     30  C   UNL     1      -4.316 -10.733  -2.017  0.00  0.00    +0.035 A 
ATOM     31  C   UNL     1      -5.188 -10.983  -1.022  0.00  0.00    +0.105 A 
ATOM     32  N   UNL     1      -6.329 -11.424  -1.571  0.00  0.00    -0.352 N 
ATOM     33  C   UNL     1      -6.197 -11.457  -2.869  0.00  0.00    +0.171 A 
ATOM     34  N   UNL     1      -4.958 -11.028  -3.189  0.00  0.00    -0.350 N 
ATOM     35  H   UNL     1      -4.590 -10.946  -4.083  0.00  0.00    +0.166 HD
ATOM     36  H   UNL     1      -7.127 -11.679  -1.081  0.00  0.00    +0.166 HD
ENDBRANCH  29  30
ENDBRANCH  28  29
ENDBRANCH  26  28
ENDBRANCH  23  24
ENDBRANCH   7  23
TORSDOF 6
