REMARK  Name = ZINC09088725
REMARK  5 active torsions:
REMARK  status: ('A' for Active; 'I' for Inactive)
REMARK    1  A    between atoms: C_6  and  C_7
REMARK    2  A    between atoms: C_9  and  C_13
REMARK    3  A    between atoms: N_15  and  N_16
REMARK    4  A    between atoms: C_17  and  C_18
REMARK    5  A    between atoms: C_23  and  O_24
REMARK                            x       y       z     vdW  Elec       q    Type
REMARK                         _______ _______ _______ _____ _____    ______ ____
ROOT
ATOM      1  C   UNL     1      -3.428  -3.719   0.022  0.00  0.00    +0.281 C 
ATOM      2  O   UNL     1      -2.762  -4.737   0.016  0.00  0.00    -0.267 OA
ATOM      3  N   UNL     1      -4.773  -3.794   0.032  0.00  0.00    -0.202 N 
ATOM      4  H   UNL     1      -5.304  -2.982   0.038  0.00  0.00    +0.178 HD
ENDROOT
BRANCH   1   7
ATOM      5  C   UNL     1      -1.272  -0.766   0.011  0.00  0.00    +0.093 A 
ATOM      6  C   UNL     1      -1.403  -2.167   0.010  0.00  0.00    +0.062 A 
ATOM      7  C   UNL     1      -2.764  -2.406   0.020  0.00  0.00    +0.122 A 
ATOM      8  N   UNL     1      -3.372  -1.182   0.026  0.00  0.00    -0.272 N 
ATOM      9  H   UNL     1      -4.331  -1.036   0.033  0.00  0.00    +0.189 HD
ATOM     10  N   UNL     1      -2.484  -0.254   0.026  0.00  0.00    -0.173 NA
BRANCH   5  16
ATOM     11  C   UNL     1      -0.017   1.389   0.010  0.00  0.00    +0.011 A 
ATOM     12  C   UNL     1       1.170   2.093   0.002  0.00  0.00    +0.022 A 
ATOM     13  C   UNL     1       2.378   1.419  -0.013  0.00  0.00    +0.059 A 
ATOM     14  C   UNL     1       2.403   0.033  -0.021  0.00  0.00    +0.060 A 
ATOM     15  C   UNL     1       1.220  -0.680  -0.014  0.00  0.00    +0.031 A 
ATOM     16  C   UNL     1       0.002  -0.004   0.002  0.00  0.00    +0.004 A 
ATOM     17 CL   UNL     1       3.922  -0.807  -0.040  0.00  0.00    -0.082 Cl
ATOM     18 CL   UNL     1       3.868   2.311  -0.023  0.00  0.00    -0.082 Cl
ENDBRANCH   5  16
ENDBRANCH   1   7
BRANCH   3  19
ATOM     19  N   UNL     1      -5.405  -5.044   0.035  0.00  0.00    -0.187 NA
ATOM     20  C   UNL     1      -6.702  -5.116   0.045  0.00  0.00    +0.142 C 
BRANCH  20  21
ATOM     21  C   UNL     1      -7.366  -6.432   0.047  0.00  0.00    +0.037 A 
ATOM     22  C   UNL     1      -8.761  -6.514   0.052  0.00  0.00    +0.028 A 
ATOM     23  C   UNL     1      -9.377  -7.748   0.054  0.00  0.00    +0.019 A 
ATOM     24  C   UNL     1      -8.618  -8.907   0.051  0.00  0.00    +0.019 A 
ATOM     25  C   UNL     1      -7.237  -8.838   0.047  0.00  0.00    +0.047 A 
ATOM     26  C   UNL     1      -6.603  -7.607   0.040  0.00  0.00    +0.126 A 
ATOM     27 BR   UNL     1     -11.264  -7.859   0.060  0.00  0.00    -0.050 Br
BRANCH  26  28
ATOM     28  O   UNL     1      -5.247  -7.539   0.030  0.00  0.00    -0.506 OA
ATOM     29  H   UNL     1      -4.847  -7.521   0.910  0.00  0.00    +0.292 HD
ENDBRANCH  26  28
ENDBRANCH  20  21
ENDBRANCH   3  19
TORSDOF 5
