REMARK  Name = ZINC21794870
REMARK  7 active torsions:
REMARK  status: ('A' for Active; 'I' for Inactive)
REMARK    1  A    between atoms: C_1  and  C_2
REMARK    2  A    between atoms: C_6  and  N_11
REMARK    3  A    between atoms: N_11  and  C_12
REMARK    4  A    between atoms: C_12  and  C_14
REMARK    5  A    between atoms: C_12  and  C_15
REMARK    6  A    between atoms: N_17  and  C_18
REMARK    7  A    between atoms: C_21  and  C_24
REMARK                            x       y       z     vdW  Elec       q    Type
REMARK                         _______ _______ _______ _____ _____    ______ ____
ROOT
ATOM      1  C   UNL     1       0.110   0.122   0.005  0.00  0.00    +0.154 C 
ATOM      2  C   UNL     1      -0.101   1.634   0.102  0.00  0.00    +0.038 C 
ENDROOT
BRANCH   1   3
ATOM      3  C   UNL     1       0.830  -0.365   1.236  0.00  0.00    +0.237 C 
ATOM      4  O   UNL     1       1.907  -0.913   1.132  0.00  0.00    -0.273 OA
ATOM      5  N   UNL     1       0.278  -0.191   2.453  0.00  0.00    -0.284 N 
ATOM      6  H   UNL     1      -0.655   0.382   2.557  0.00  0.00    +0.155 HD
BRANCH   5   7
ATOM      7  C   UNL     1       0.890  -0.737   3.582  0.00  0.00    +0.034 A 
ATOM      8  C   UNL     1       1.569  -1.947   3.485  0.00  0.00    +0.024 A 
ATOM      9  C   UNL     1       2.178  -2.487   4.596  0.00  0.00    +0.020 A 
ATOM     10  C   UNL     1       2.104  -1.823   5.824  0.00  0.00    +0.052 A 
ATOM     11  C   UNL     1       1.416  -0.610   5.918  0.00  0.00    +0.020 A 
ATOM     12  C   UNL     1       0.814  -0.074   4.802  0.00  0.00    +0.024 A 
BRANCH  10  13
ATOM     13  C   UNL     1       2.732  -2.385   6.982  0.00  0.00    +0.099 C 
ATOM     14  N   UNL     1       3.230  -2.830   7.901  0.00  0.00    -0.191 NA
ENDBRANCH  10  13
ENDBRANCH   5   7
ENDBRANCH   1   3
BRANCH   1  15
ATOM     15  N   UNL     1       0.912  -0.184  -1.182  0.00  0.00    -0.333 N 
ATOM     16  H   UNL     1       2.002  -0.302  -1.095  0.00  0.00    +0.147 HD
BRANCH  15  22
ATOM     17  C   UNL     1      -0.044  -1.318  -8.336  0.00  0.00    +0.109 C 
ATOM     18  C   UNL     1      -0.134  -1.048  -6.856  0.00  0.00    +0.194 A 
ATOM     19  N   UNL     1       0.878  -1.029  -6.042  0.00  0.00    -0.213 NA
ATOM     20  C   UNL     1       0.426  -0.755  -4.788  0.00  0.00    +0.111 A 
ATOM     21  C   UNL     1       1.051  -0.609  -3.548  0.00  0.00    +0.054 A 
ATOM     22  C   UNL     1       0.291  -0.326  -2.428  0.00  0.00    +0.030 A 
ATOM     23  C   UNL     1      -1.090  -0.175  -2.536  0.00  0.00    +0.026 A 
ATOM     24  C   UNL     1      -1.713  -0.313  -3.757  0.00  0.00    +0.050 A 
ATOM     25  C   UNL     1      -0.965  -0.602  -4.889  0.00  0.00    +0.155 A 
ATOM     26  O   UNL     1      -1.272  -0.792  -6.192  0.00  0.00    -0.440 OA
ENDBRANCH  15  22
ENDBRANCH   1  15
TORSDOF 5
