REMARK  Name = ZINC03041292
REMARK  8 active torsions:
REMARK  status: ('A' for Active; 'I' for Inactive)
REMARK    1  A    between atoms: C_9  and  C_12
REMARK    2  A    between atoms: C_9  and  C_24
REMARK    3  A    between atoms: C_12  and  O_13
REMARK    4  A    between atoms: O_13  and  C_14
REMARK    5  A    between atoms: C_14  and  C_16
REMARK    6  A    between atoms: C_24  and  O_25
REMARK    7  A    between atoms: O_25  and  C_26
REMARK    8  A    between atoms: C_26  and  C_28
REMARK                            x       y       z     vdW  Elec       q    Type
REMARK                         _______ _______ _______ _____ _____    ______ ____
ROOT
ATOM      1  C   UNL     1       0.129   1.373  -0.347  0.00  0.00    +0.001 A 
ATOM      2  C   UNL     1       1.308   2.087  -0.494  0.00  0.00    +0.004 A 
ATOM      3  C   UNL     1       2.526   1.437  -0.525  0.00  0.00    +0.046 A 
ATOM      4  C   UNL     1       2.580   0.054  -0.409  0.00  0.00    +0.131 A 
ATOM      5  C   UNL     1       1.385  -0.667  -0.255  0.00  0.00    +0.060 A 
ATOM      6  C   UNL     1       0.159   0.000  -0.227  0.00  0.00    +0.015 A 
ATOM      7  C   UNL     1       1.448  -2.133  -0.118  0.00  0.00    +0.183 C 
ATOM      8  O   UNL     1       0.485  -2.783   0.230  0.00  0.00    -0.291 OA
ATOM      9  C   UNL     1       2.781  -2.787  -0.437  0.00  0.00    +0.135 C 
ATOM     10  C   UNL     1       3.879  -1.879   0.136  0.00  0.00    +0.250 C 
ATOM     11  O   UNL     1       3.774  -0.582  -0.448  0.00  0.00    -0.490 OA
ENDROOT
BRANCH   9  12
ATOM     12  C   UNL     1       2.949  -2.915  -1.952  0.00  0.00    +0.254 C 
BRANCH  12  13
ATOM     13  O   UNL     1       4.251  -3.427  -2.245  0.00  0.00    -0.460 OA
BRANCH  13  14
ATOM     14  C   UNL     1       4.600  -3.504  -3.544  0.00  0.00    +0.341 C 
ATOM     15  O   UNL     1       3.789  -3.235  -4.408  0.00  0.00    -0.245 OA
BRANCH  14  16
ATOM     16  C   UNL     1       5.967  -3.916  -3.918  0.00  0.00    +0.077 A 
ATOM     17  C   UNL     1       6.867  -4.336  -2.935  0.00  0.00    +0.018 A 
ATOM     18  C   UNL     1       8.142  -4.719  -3.291  0.00  0.00    +0.021 A 
ATOM     19  C   UNL     1       8.534  -4.688  -4.620  0.00  0.00    +0.042 A 
ATOM     20  C   UNL     1       7.648  -4.272  -5.599  0.00  0.00    +0.040 A 
ATOM     21  C   UNL     1       6.366  -3.892  -5.258  0.00  0.00    +0.056 A 
ATOM     22 CL   UNL     1       5.254  -3.378  -6.488  0.00  0.00    -0.083 Cl
ATOM     23 CL   UNL     1      10.143  -5.171  -5.058  0.00  0.00    -0.083 Cl
ENDBRANCH  14  16
ENDBRANCH  13  14
ENDBRANCH  12  13
ENDBRANCH   9  12
BRANCH   9  24
ATOM     24  C   UNL     1       2.853  -4.169   0.216  0.00  0.00    +0.254 C 
BRANCH  24  25
ATOM     25  O   UNL     1       1.873  -5.026  -0.374  0.00  0.00    -0.460 OA
BRANCH  25  26
ATOM     26  C   UNL     1       1.735  -6.255   0.160  0.00  0.00    +0.341 C 
ATOM     27  O   UNL     1       2.360  -6.558   1.157  0.00  0.00    -0.245 OA
BRANCH  26  28
ATOM     28  C   UNL     1       0.824  -7.233  -0.466  0.00  0.00    +0.077 A 
ATOM     29  C   UNL     1       0.191  -6.929  -1.674  0.00  0.00    +0.018 A 
ATOM     30  C   UNL     1      -0.659  -7.847  -2.253  0.00  0.00    +0.021 A 
ATOM     31  C   UNL     1      -0.888  -9.069  -1.640  0.00  0.00    +0.042 A 
ATOM     32  C   UNL     1      -0.265  -9.376  -0.443  0.00  0.00    +0.040 A 
ATOM     33  C   UNL     1       0.594  -8.469   0.145  0.00  0.00    +0.056 A 
ATOM     34 CL   UNL     1       1.380  -8.859   1.643  0.00  0.00    -0.083 Cl
ATOM     35 CL   UNL     1      -1.961 -10.217  -2.377  0.00  0.00    -0.083 Cl
ENDBRANCH  26  28
ENDBRANCH  25  26
ENDBRANCH  24  25
ENDBRANCH   9  24
TORSDOF 8
