REMARK  Name = ZINC01869646
REMARK  16 active torsions:
REMARK  status: ('A' for Active; 'I' for Inactive)
REMARK    1  A    between atoms: C_1  and  C_2
REMARK    2  A    between atoms: C_5  and  N_8
REMARK    3  A    between atoms: C_9  and  C_31
REMARK    4  A    between atoms: C_12  and  S_13
REMARK    5  A    between atoms: S_13  and  C_14
REMARK    6  A    between atoms: C_14  and  C_15
REMARK    7  A    between atoms: N_17  and  N_18
REMARK    8  A    between atoms: N_18  and  C_19
REMARK    9  A    between atoms: C_19  and  C_21
REMARK   10  A    between atoms: C_24  and  O_27
REMARK   11  A    between atoms: O_27  and  C_28
REMARK   12  A    between atoms: C_28  and  C_30
REMARK   13  A    between atoms: C_34  and  C_37
REMARK   14  A    between atoms: C_37  and  C_38
REMARK   15  A    between atoms: C_37  and  C_39
REMARK   16  A    between atoms: C_37  and  C_40
REMARK                            x       y       z     vdW  Elec       q    Type
REMARK                         _______ _______ _______ _____ _____    ______ ____
ROOT
ATOM      1  N   UNL     1      -3.838   1.520  -0.043  0.00  0.00    -0.270 N 
ATOM      2  C   UNL     1      -2.566   0.991  -0.037  0.00  0.00    +0.169 A 
ATOM      3  N   UNL     1      -2.687  -0.300   0.172  0.00  0.00    -0.128 NA
ATOM      4  N   UNL     1      -3.928  -0.612   0.292  0.00  0.00    -0.122 NA
ATOM      5  C   UNL     1      -4.678   0.460   0.166  0.00  0.00    +0.197 A 
ENDROOT
BRANCH   1  10
ATOM      6  C   UNL     1      -5.292   6.955  -0.788  0.00  0.00    +0.044 C 
ATOM      7  C   UNL     1      -4.905   5.512  -0.590  0.00  0.00    -0.050 A 
ATOM      8  C   UNL     1      -5.227   4.574  -1.553  0.00  0.00    +0.005 A 
ATOM      9  C   UNL     1      -4.875   3.250  -1.375  0.00  0.00    +0.026 A 
ATOM     10  C   UNL     1      -4.197   2.862  -0.227  0.00  0.00    +0.051 A 
ATOM     11  C   UNL     1      -3.881   3.806   0.741  0.00  0.00    +0.026 A 
ATOM     12  C   UNL     1      -4.231   5.129   0.554  0.00  0.00    +0.005 A 
ENDBRANCH   1  10
BRANCH   2  13
ATOM     13  C   UNL     1      -1.304   1.736  -0.225  0.00  0.00    +0.020 A 
ATOM     14  C   UNL     1      -1.320   3.011  -0.792  0.00  0.00    +0.012 A 
ATOM     15  C   UNL     1      -0.139   3.704  -0.960  0.00  0.00    +0.005 A 
ATOM     16  C   UNL     1       1.061   3.135  -0.573  0.00  0.00    -0.042 A 
ATOM     17  C   UNL     1       1.085   1.869  -0.014  0.00  0.00    +0.005 A 
ATOM     18  C   UNL     1      -0.089   1.165   0.159  0.00  0.00    +0.012 A 
BRANCH  16  19
ATOM     19  C   UNL     1       2.348   3.897  -0.759  0.00  0.00    -0.013 C 
ATOM     20  C   UNL     1       2.285   5.205   0.032  0.00  0.00    +0.015 C 
ATOM     21  C   UNL     1       3.519   3.051  -0.254  0.00  0.00    +0.015 C 
ATOM     22  C   UNL     1       2.546   4.207  -2.244  0.00  0.00    +0.015 C 
ENDBRANCH  16  19
ENDBRANCH   2  13
BRANCH   5  23
ATOM     23  S   UNL     1      -6.437   0.521   0.255  0.00  0.00    -0.076 S 
BRANCH  23  24
ATOM     24  C   UNL     1      -6.798  -1.227   0.550  0.00  0.00    +0.174 C 
BRANCH  24  25
ATOM     25  C   UNL     1      -8.288  -1.420   0.665  0.00  0.00    +0.239 C 
ATOM     26  O   UNL     1      -9.033  -0.469   0.557  0.00  0.00    -0.273 OA
ATOM     27  N   UNL     1      -8.793  -2.650   0.887  0.00  0.00    -0.236 N 
ATOM     28  H   UNL     1      -8.198  -3.411   0.973  0.00  0.00    +0.173 HD
BRANCH  27  29
ATOM     29  N   UNL     1     -10.179  -2.829   0.993  0.00  0.00    -0.264 N 
ATOM     30  H   UNL     1     -10.774  -2.069   0.907  0.00  0.00    +0.170 HD
BRANCH  29  31
ATOM     31  C   UNL     1     -10.702  -4.102   1.223  0.00  0.00    +0.044 C 
ATOM     32  C   UNL     1      -9.883  -5.148   1.341  0.00  0.00    +0.035 C 
BRANCH  31  33
ATOM     33  C   UNL     1     -12.166  -4.292   1.335  0.00  0.00    -0.003 A 
ATOM     34  C   UNL     1     -13.024  -3.198   1.217  0.00  0.00    +0.013 A 
ATOM     35  C   UNL     1     -14.387  -3.379   1.316  0.00  0.00    +0.047 A 
ATOM     36  C   UNL     1     -14.905  -4.647   1.545  0.00  0.00    +0.132 A 
ATOM     37  C   UNL     1     -14.054  -5.737   1.669  0.00  0.00    +0.047 A 
ATOM     38  C   UNL     1     -12.691  -5.564   1.565  0.00  0.00    +0.013 A 
BRANCH  36  39
ATOM     39  O   UNL     1     -16.249  -4.821   1.648  0.00  0.00    -0.426 OA
BRANCH  39  40
ATOM     40  C   UNL     1     -16.748  -4.995   2.882  0.00  0.00    +0.309 C 
ATOM     41  O   UNL     1     -16.003  -5.082   3.829  0.00  0.00    -0.251 OA
ATOM     42  C   UNL     1     -18.239  -5.082   3.086  0.00  0.00    +0.136 C 
ENDBRANCH  39  40
ENDBRANCH  36  39
ENDBRANCH  31  33
ENDBRANCH  29  31
ENDBRANCH  27  29
ENDBRANCH  24  25
ENDBRANCH  23  24
ENDBRANCH   5  23
TORSDOF 11
