REMARK  Name = ZINC15707433
REMARK  13 active torsions:
REMARK  status: ('A' for Active; 'I' for Inactive)
REMARK    1  A    between atoms: C_1  and  C_2
REMARK    2  A    between atoms: C_2  and  C_3
REMARK    3  A    between atoms: C_2  and  N_4
REMARK    4  A    between atoms: C_5  and  C_7
REMARK    5  A    between atoms: C_7  and  C_8
REMARK    6  A    between atoms: C_8  and  C_9
REMARK    7  A    between atoms: C_18  and  N_21
REMARK    8  A    between atoms: N_21  and  C_22
REMARK    9  A    between atoms: C_22  and  N_24
REMARK   10  A    between atoms: N_24  and  C_25
REMARK   11  A    between atoms: C_25  and  C_26
REMARK   12  A    between atoms: C_26  and  O_27
REMARK   13  A    between atoms: O_27  and  C_28
REMARK                            x       y       z     vdW  Elec       q    Type
REMARK                         _______ _______ _______ _____ _____    ______ ____
ROOT
ATOM      1  C   UNL     1       2.391   0.010  -0.011  0.00  0.00    -0.050 C 
ATOM      2  C   UNL     1       2.513   1.541   0.010  0.00  0.00    +0.089 C 
ATOM      3  N   UNL     1       1.217   2.197  -0.098  0.00  0.00    -0.318 N 
ATOM      4  C   UNL     1       0.030   1.566  -0.009  0.00  0.00    +0.200 C 
ATOM      5  O   UNL     1      -1.004   2.199  -0.006  0.00  0.00    -0.278 OA
ATOM      6  C   UNL     1       0.005   0.075   0.080  0.00  0.00    +0.021 C 
ATOM      7  C   UNL     1       0.998  -1.763   1.089  0.00  0.00    -0.055 C 
ATOM      8  C   UNL     1      -0.482  -1.784   1.561  0.00  0.00    +0.054 C 
ATOM      9  C   UNL     1      -1.122  -0.521   0.925  0.00  0.00    +0.014 C 
ATOM     10  H   UNL     1       1.208   3.156  -0.244  0.00  0.00    +0.149 HD
ATOM     11  N   UNL     1       1.171  -0.323   0.809  0.00  0.00    +0.391 N 
ATOM     12  H   UNL     1       1.226   0.187   1.698  0.00  0.00    -0.080 HD
ENDROOT
BRANCH   8  13
ATOM     13  N   UNL     1      -0.552  -1.709   3.023  0.00  0.00    -0.326 N 
ATOM     14  H   UNL     1      -0.608  -0.846   3.462  0.00  0.00    +0.148 HD
BRANCH  13  15
ATOM     15  C   UNL     1      -0.539  -2.840   3.757  0.00  0.00    +0.130 C 
ATOM     16  S   UNL     1      -0.441  -4.363   2.981  0.00  0.00    -0.019 S 
BRANCH  15  17
ATOM     17  N   UNL     1      -0.604  -2.771   5.101  0.00  0.00    -0.324 N 
ATOM     18  H   UNL     1      -0.660  -1.908   5.540  0.00  0.00    +0.148 HD
BRANCH  17  19
ATOM     19  C   UNL     1      -0.590  -3.999   5.899  0.00  0.00    +0.131 C 
BRANCH  19  20
ATOM     20  C   UNL     1      -0.672  -3.644   7.385  0.00  0.00    +0.178 C 
BRANCH  20  21
ATOM     21  O   UNL     1      -1.934  -3.030   7.658  0.00  0.00    -0.381 OA
ATOM     22  C   UNL     1      -2.115  -2.657   9.025  0.00  0.00    +0.194 C 
ENDBRANCH  20  21
ENDBRANCH  19  20
ENDBRANCH  17  19
ENDBRANCH  15  17
ENDBRANCH  13  15
ENDBRANCH   8  13
BRANCH   1  23
ATOM     23  C   UNL     1       3.655  -0.622   0.577  0.00  0.00    -0.005 C 
BRANCH  23  24
ATOM     24  C   UNL     1       4.838  -0.356  -0.355  0.00  0.00    +0.094 C 
BRANCH  24  26
ATOM     25  N   UNL     1       7.224  -0.990  -0.505  0.00  0.00    -0.313 N 
ATOM     26  C   UNL     1       6.056  -1.080   0.160  0.00  0.00    +0.213 C 
ATOM     27  O   UNL     1       5.983  -1.743   1.173  0.00  0.00    -0.276 OA
ATOM     28  H   UNL     1       7.282  -0.460  -1.315  0.00  0.00    +0.149 HD
BRANCH  25  30
ATOM     29  C   UNL     1       8.397  -3.137  -0.514  0.00  0.00    +0.027 C 
ATOM     30  C   UNL     1       8.408  -1.694  -0.004  0.00  0.00    +0.067 C 
ATOM     31  C   UNL     1       9.670  -0.987  -0.502  0.00  0.00    +0.027 C 
ENDBRANCH  25  30
ENDBRANCH  24  26
ENDBRANCH  23  24
ENDBRANCH   1  23
TORSDOF 10
