REMARK  Name = ZINC16883632
REMARK  13 active torsions:
REMARK  status: ('A' for Active; 'I' for Inactive)
REMARK    1  A    between atoms: C_1  and  C_2
REMARK    2  A    between atoms: C_5  and  C_9
REMARK    3  A    between atoms: C_6  and  C_8
REMARK    4  A    between atoms: C_9  and  C_10
REMARK    5  A    between atoms: C_11  and  C_36
REMARK    6  A    between atoms: N_14  and  C_17
REMARK    7  A    between atoms: C_17  and  C_18
REMARK    8  A    between atoms: C_21  and  O_26
REMARK    9  A    between atoms: C_22  and  O_24
REMARK   10  A    between atoms: O_24  and  C_25
REMARK   11  A    between atoms: O_26  and  C_27
REMARK   12  A    between atoms: N_28  and  C_29
REMARK   13  A    between atoms: C_32  and  O_35
REMARK                            x       y       z     vdW  Elec       q    Type
REMARK                         _______ _______ _______ _____ _____    ______ ____
ROOT
ATOM      1  C   UNL     1      -0.038   4.054  -0.325  0.00  0.00    +0.042 A 
ATOM      2  C   UNL     1       1.073   3.352  -0.695  0.00  0.00    +0.050 A 
ATOM      3  N   UNL     1       1.063   2.021  -0.662  0.00  0.00    -0.220 NA
ATOM      4  C   UNL     1      -0.005   1.352  -0.276  0.00  0.00    +0.203 A 
ATOM      5  N   UNL     1      -1.143   1.998   0.099  0.00  0.00    -0.276 N 
ATOM      6  C   UNL     1      -1.182   3.348   0.089  0.00  0.00    +0.259 A 
ATOM      7  O   UNL     1      -2.192   3.943   0.426  0.00  0.00    -0.267 OA
ATOM      8  N   UNL     1       0.029  -0.018  -0.258  0.00  0.00    -0.285 N 
ATOM      9  C   UNL     1       2.311   4.084  -1.143  0.00  0.00    +0.066 C 
ATOM     10  H   UNL     1      -0.776  -0.520  -0.057  0.00  0.00    +0.155 HD
ENDROOT
BRANCH   8  11
ATOM     11  C   UNL     1       1.225  -0.692  -0.530  0.00  0.00    +0.034 A 
ATOM     12  C   UNL     1       1.207  -1.872  -1.262  0.00  0.00    +0.027 A 
ATOM     13  C   UNL     1       2.388  -2.534  -1.534  0.00  0.00    +0.047 A 
ATOM     14  C   UNL     1       3.591  -2.026  -1.067  0.00  0.00    +0.117 A 
ATOM     15  C   UNL     1       3.610  -0.851  -0.331  0.00  0.00    +0.047 A 
ATOM     16  C   UNL     1       2.430  -0.185  -0.062  0.00  0.00    +0.027 A 
BRANCH  14  17
ATOM     17  O   UNL     1       4.753  -2.682  -1.331  0.00  0.00    -0.507 OA
ATOM     18  H   UNL     1       4.996  -3.337  -0.662  0.00  0.00    +0.292 HD
ENDBRANCH  14  17
ENDBRANCH   8  11
BRANCH   1  19
ATOM     19  C   UNL     1      -0.038   5.560  -0.358  0.00  0.00    +0.077 C 
BRANCH  19  24
ATOM     20  C   UNL     1      -2.217   7.374  -5.394  0.00  0.00    +0.044 C 
ATOM     21  C   UNL     1      -1.648   6.901  -4.081  0.00  0.00    -0.050 A 
ATOM     22  C   UNL     1      -1.440   5.552  -3.864  0.00  0.00    +0.003 A 
ATOM     23  C   UNL     1      -0.919   5.118  -2.659  0.00  0.00    +0.004 A 
ATOM     24  C   UNL     1      -0.606   6.033  -1.671  0.00  0.00    -0.040 A 
ATOM     25  C   UNL     1      -0.819   7.382  -1.887  0.00  0.00    -0.047 A 
ATOM     26  C   UNL     1      -1.335   7.816  -3.093  0.00  0.00    +0.007 A 
ATOM     27  C   UNL     1      -0.483   8.379  -0.808  0.00  0.00    +0.044 C 
ENDBRANCH  19  24
ENDBRANCH   1  19
BRANCH   5  28
ATOM     28  C   UNL     1      -2.319   1.232   0.518  0.00  0.00    +0.163 C 
BRANCH  28  29
ATOM     29  C   UNL     1      -2.262   0.998   2.006  0.00  0.00    -0.024 A 
ATOM     30  C   UNL     1      -2.836   1.912   2.870  0.00  0.00    +0.009 A 
ATOM     31  C   UNL     1      -2.787   1.702   4.236  0.00  0.00    +0.050 A 
ATOM     32  C   UNL     1      -2.162   0.574   4.741  0.00  0.00    +0.162 A 
ATOM     33  C   UNL     1      -1.585  -0.346   3.871  0.00  0.00    +0.162 A 
ATOM     34  C   UNL     1      -1.642  -0.133   2.503  0.00  0.00    +0.054 A 
BRANCH  33  35
ATOM     35  O   UNL     1      -0.970  -1.456   4.362  0.00  0.00    -0.491 OA
ATOM     36  C   UNL     1      -0.400  -2.357   3.411  0.00  0.00    +0.277 C 
ENDBRANCH  33  35
BRANCH  32  37
ATOM     37  O   UNL     1      -2.113   0.366   6.084  0.00  0.00    -0.491 OA
ATOM     38  C   UNL     1      -2.727   1.352   6.916  0.00  0.00    +0.277 C 
ENDBRANCH  32  37
ENDBRANCH  28  29
ENDBRANCH   5  28
TORSDOF 8
