REMARK  Name = ZINC36342271
REMARK  10 active torsions:
REMARK  status: ('A' for Active; 'I' for Inactive)
REMARK    1  A    between atoms: C_1  and  C_2
REMARK    2  A    between atoms: C_2  and  O_3
REMARK    3  A    between atoms: O_3  and  C_4
REMARK    4  A    between atoms: C_4  and  C_6
REMARK    5  A    between atoms: N_12  and  C_13
REMARK    6  A    between atoms: C_13  and  C_14
REMARK    7  A    between atoms: C_17  and  C_30
REMARK    8  A    between atoms: C_20  and  C_22
REMARK    9  A    between atoms: C_25  and  O_28
REMARK   10  A    between atoms: O_28  and  C_29
REMARK                            x       y       z     vdW  Elec       q    Type
REMARK                         _______ _______ _______ _____ _____    ______ ____
ROOT
ATOM      1  C   UNL     1      -1.647  -5.870   0.705  0.00  0.00    +0.219 C 
ATOM      2  O   UNL     1      -2.089  -6.410  -0.287  0.00  0.00    -0.276 OA
ATOM      3  N   UNL     1      -0.886  -6.570   1.571  0.00  0.00    -0.187 N 
ATOM      4  C   UNL     1      -0.513  -7.987   1.430  0.00  0.00    +0.137 C 
ATOM      5  C   UNL     1       0.345  -8.260   2.681  0.00  0.00    +0.087 C 
ATOM      6  C   UNL     1       0.363  -6.934   3.408  0.00  0.00    +0.069 C 
ATOM      7  N   UNL     1      -0.321  -6.069   2.741  0.00  0.00    -0.181 NA
ENDROOT
BRANCH   4   8
ATOM      8  C   UNL     1      -1.741  -8.861   1.425  0.00  0.00    -0.025 A 
ATOM      9  C   UNL     1      -2.806  -8.562   2.255  0.00  0.00    +0.007 A 
ATOM     10  C   UNL     1      -3.932  -9.363   2.250  0.00  0.00    +0.020 A 
ATOM     11  C   UNL     1      -3.994 -10.464   1.415  0.00  0.00    +0.041 A 
ATOM     12  C   UNL     1      -2.928 -10.762   0.585  0.00  0.00    +0.020 A 
ATOM     13  C   UNL     1      -1.805  -9.957   0.586  0.00  0.00    +0.007 A 
ATOM     14 CL   UNL     1      -5.408 -11.471   1.409  0.00  0.00    -0.084 Cl
ENDBRANCH   4   8
BRANCH   6  15
ATOM     15  C   UNL     1       1.060  -6.670   4.680  0.00  0.00    -0.002 A 
ATOM     16  C   UNL     1       1.782  -7.688   5.307  0.00  0.00    +0.013 A 
ATOM     17  C   UNL     1       2.433  -7.437   6.496  0.00  0.00    +0.046 A 
ATOM     18  C   UNL     1       2.370  -6.174   7.071  0.00  0.00    +0.120 A 
ATOM     19  C   UNL     1       1.653  -5.159   6.451  0.00  0.00    +0.046 A 
ATOM     20  C   UNL     1       1.004  -5.400   5.259  0.00  0.00    +0.013 A 
BRANCH  18  21
ATOM     21  O   UNL     1       3.012  -5.931   8.243  0.00  0.00    -0.495 OA
ATOM     22  C   UNL     1       2.906  -4.611   8.779  0.00  0.00    +0.277 C 
ENDBRANCH  18  21
ENDBRANCH   6  15
BRANCH   1  23
ATOM     23  C   UNL     1      -1.947  -4.417   0.970  0.00  0.00    +0.022 C 
BRANCH  23  29
ATOM     24  C   UNL     1      -2.939  -2.436   0.058  0.00  0.00    +0.043 C 
ATOM     25  C   UNL     1      -3.746  -1.865  -1.111  0.00  0.00    -0.004 C 
ATOM     26  C   UNL     1      -5.127  -2.525  -1.142  0.00  0.00    -0.003 C 
ATOM     27  C   UNL     1      -4.954  -4.043  -1.242  0.00  0.00    -0.019 C 
ATOM     28  C   UNL     1      -4.103  -4.533  -0.069  0.00  0.00    -0.077 C 
ATOM     29  N   UNL     1      -2.787  -3.886  -0.111  0.00  0.00    +0.394 N 
ATOM     30  H   UNL     1      -2.348  -4.075  -1.000  0.00  0.00    -0.080 HD
BRANCH  24  31
ATOM     31  C   UNL     1      -1.579  -1.789   0.092  0.00  0.00    +0.293 C 
ATOM     32  O   UNL     1      -0.654  -2.295  -0.499  0.00  0.00    -0.253 OA
BRANCH  31  33
ATOM     33  O   UNL     1      -1.394  -0.650   0.778  0.00  0.00    -0.466 OA
BRANCH  33  35
ATOM     34  C   UNL     1      -0.063   1.194   1.597  0.00  0.00    +0.048 C 
ATOM     35  C   UNL     1      -0.079  -0.092   0.767  0.00  0.00    +0.228 C 
ENDBRANCH  33  35
ENDBRANCH  31  33
ENDBRANCH  24  31
ENDBRANCH  23  29
ENDBRANCH   1  23
TORSDOF 8
