REMARK  Name = ZINC12467194
REMARK  7 active torsions:
REMARK  status: ('A' for Active; 'I' for Inactive)
REMARK    1  A    between atoms: C_2  and  C_3
REMARK    2  A    between atoms: C_3  and  N_4
REMARK    3  A    between atoms: C_8  and  N_31
REMARK    4  A    between atoms: N_13  and  C_14
REMARK    5  A    between atoms: C_14  and  C_16
REMARK    6  A    between atoms: N_21  and  S_22
REMARK    7  A    between atoms: S_22  and  C_25
REMARK                            x       y       z     vdW  Elec       q    Type
REMARK                         _______ _______ _______ _____ _____    ______ ____
ROOT
ATOM      1  N   UNL     1      -3.419  -1.670  -4.684  0.00  0.00    -0.317 N 
ATOM      2  C   UNL     1      -3.506  -1.304  -6.014  0.00  0.00    +0.058 A 
ATOM      3  C   UNL     1      -4.377  -1.797  -6.998  0.00  0.00    +0.029 A 
ATOM      4  C   UNL     1      -4.329  -1.315  -8.285  0.00  0.00    +0.035 A 
ATOM      5  C   UNL     1      -3.423  -0.333  -8.650  0.00  0.00    +0.127 A 
ATOM      6  C   UNL     1      -2.553   0.171  -7.700  0.00  0.00    +0.050 A 
ATOM      7  C   UNL     1      -2.601  -0.310  -6.413  0.00  0.00    +0.041 A 
ATOM      8  S   UNL     1      -1.706   0.047  -4.922  0.00  0.00    -0.052 S 
ATOM      9  C   UNL     1      -2.505  -1.077  -3.871  0.00  0.00    +0.167 A 
ATOM     10  N   UNL     1      -2.282  -1.301  -2.578  0.00  0.00    -0.155 NA
ENDROOT
BRANCH   5  11
ATOM     11  N   UNL     1      -3.387   0.172 -10.041  0.00  0.00    +0.056 N 
ATOM     12  O   UNL     1      -2.588   1.036 -10.354  0.00  0.00    -0.126 OA
ATOM     13  O   UNL     1      -4.157  -0.277 -10.872  0.00  0.00    -0.126 OA
ENDBRANCH   5  11
BRANCH  10  14
ATOM     14  C   UNL     1      -1.337  -0.620  -1.939  0.00  0.00    +0.257 C 
ATOM     15  O   UNL     1      -0.676   0.209  -2.536  0.00  0.00    -0.272 OA
BRANCH  14  16
ATOM     16  C   UNL     1      -1.083  -0.873  -0.476  0.00  0.00    +0.168 C 
ATOM     17  C   UNL     1      -0.627  -2.333  -0.267  0.00  0.00    +0.031 C 
ATOM     18  C   UNL     1       0.455  -2.204   0.837  0.00  0.00    +0.019 C 
ATOM     19  C   UNL     1       1.116  -0.851   0.466  0.00  0.00    +0.110 C 
ATOM     20  N   UNL     1       0.002  -0.004   0.002  0.00  0.00    -0.164 NA
BRANCH  20  21
ATOM     21  S   UNL     1      -0.020   1.652   0.011  0.00  0.00    +0.068 S 
ATOM     22  O   UNL     1       1.336   2.076   0.001  0.00  0.00    -0.152 OA
ATOM     23  O   UNL     1      -0.952   2.051  -0.985  0.00  0.00    -0.152 OA
BRANCH  21  24
ATOM     24  C   UNL     1      -0.694   2.155   1.560  0.00  0.00    +0.144 A 
ATOM     25  C   UNL     1      -0.053   2.410   2.726  0.00  0.00    +0.038 A 
ATOM     26  C   UNL     1      -0.793   2.797   3.828  0.00  0.00    +0.030 A 
ATOM     27  C   UNL     1      -2.140   2.910   3.708  0.00  0.00    +0.080 A 
ATOM     28  S   UNL     1      -2.396   2.470   1.996  0.00  0.00    -0.057 S 
ATOM     29 CL   UNL     1      -3.310   3.371   4.905  0.00  0.00    -0.076 Cl
ENDBRANCH  21  24
ENDBRANCH  20  21
ENDBRANCH  14  16
ENDBRANCH  10  14
BRANCH   1  30
ATOM     30  C   UNL     1      -4.314  -2.700  -4.149  0.00  0.00    +0.151 C 
BRANCH  30  32
ATOM     31  C   UNL     1      -4.191  -3.511  -1.849  0.00  0.00    +0.005 C 
ATOM     32  C   UNL     1      -3.623  -3.432  -3.027  0.00  0.00    -0.013 C 
ENDBRANCH  30  32
ENDBRANCH   1  30
TORSDOF 7
