REMARK  Name = ZINC39225639
REMARK  12 active torsions:
REMARK  status: ('A' for Active; 'I' for Inactive)
REMARK    1  A    between atoms: C_1  and  C_2
REMARK    2  A    between atoms: C_2  and  C_40
REMARK    3  A    between atoms: C_4  and  N_11
REMARK    4  A    between atoms: C_6  and  C_9
REMARK    5  A    between atoms: C_6  and  C_10
REMARK    6  A    between atoms: N_7  and  C_8
REMARK    7  A    between atoms: C_12  and  C_14
REMARK    8  A    between atoms: C_14  and  N_15
REMARK    9  A    between atoms: N_22  and  C_34
REMARK   10  A    between atoms: C_24  and  N_28
REMARK   11  A    between atoms: C_29  and  C_31
REMARK   12  A    between atoms: C_34  and  C_35
REMARK                            x       y       z     vdW  Elec       q    Type
REMARK                         _______ _______ _______ _____ _____    ______ ____
ROOT
ATOM      1  N   UNL     1       5.556  -0.187  -4.761  0.00  0.00    -0.259 N 
ATOM      2  C   UNL     1       5.528   0.990  -5.519  0.00  0.00    +0.058 A 
ATOM      3  C   UNL     1       4.671   2.027  -5.190  0.00  0.00    +0.025 A 
ATOM      4  C   UNL     1       4.644   3.171  -5.967  0.00  0.00    +0.002 A 
ATOM      5  C   UNL     1       5.469   3.282  -7.072  0.00  0.00    +0.002 A 
ATOM      6  C   UNL     1       6.334   2.255  -7.402  0.00  0.00    +0.025 A 
ATOM      7  C   UNL     1       6.375   1.111  -6.622  0.00  0.00    +0.052 A 
ATOM      8  N   UNL     1       7.285   0.085  -6.907  0.00  0.00    -0.322 N 
ATOM      9  C   UNL     1       8.444  -0.093  -6.030  0.00  0.00    +0.137 C 
ATOM     10  C   UNL     1       8.017   0.049  -4.569  0.00  0.00    +0.177 C 
ATOM     11  C   UNL     1       6.730  -0.693  -4.326  0.00  0.00    +0.242 C 
ATOM     12  O   UNL     1       6.748  -1.754  -3.738  0.00  0.00    -0.273 OA
ENDROOT
BRANCH  10  13
ATOM     13  N   UNL     1       9.062  -0.502  -3.702  0.00  0.00    -0.302 N 
ATOM     14  C   UNL     1       9.181  -0.069  -2.431  0.00  0.00    +0.217 C 
ATOM     15  O   UNL     1       8.424   0.777  -2.005  0.00  0.00    -0.275 OA
ATOM     16  H   UNL     1       9.668  -1.178  -4.043  0.00  0.00    +0.150 HD
BRANCH  14  17
ATOM     17  C   UNL     1      10.256  -0.635  -1.540  0.00  0.00    +0.075 C 
ATOM     18  C   UNL     1       9.812  -1.515  -0.369  0.00  0.00    +0.013 C 
ATOM     19  C   UNL     1      10.340  -0.103  -0.108  0.00  0.00    +0.013 C 
ENDBRANCH  14  17
ENDBRANCH  10  13
BRANCH   1  20
ATOM     20  C   UNL     1       4.302  -0.871  -4.434  0.00  0.00    +0.209 C 
BRANCH  20  22
ATOM     21  N   UNL     1       2.611  -0.821  -2.630  0.00  0.00    -0.311 N 
ATOM     22  C   UNL     1       3.763  -0.336  -3.132  0.00  0.00    +0.231 C 
ATOM     23  O   UNL     1       4.367   0.531  -2.537  0.00  0.00    -0.274 OA
ATOM     24  H   UNL     1       2.128  -1.515  -3.106  0.00  0.00    +0.149 HD
BRANCH  21  28
ATOM     25  C   UNL     1      -0.019   1.528   0.010  0.00  0.00    -0.010 C 
ATOM     26  C   UNL     1       0.002  -0.004   0.002  0.00  0.00    -0.069 C 
ATOM     27  C   UNL     1       0.571  -0.507  -1.320  0.00  0.00    +0.010 C 
ATOM     28  C   UNL     1       2.085  -0.300  -1.362  0.00  0.00    +0.070 C 
ATOM     29  C   UNL     1       2.704  -1.079  -0.201  0.00  0.00    +0.010 C 
ATOM     30  C   UNL     1       2.150  -0.581   1.129  0.00  0.00    -0.069 C 
ATOM     31  N   UNL     1       0.697  -0.531   1.165  0.00  0.00    +0.385 N 
ATOM     32  C   UNL     1       0.278   0.238   2.357  0.00  0.00    -0.095 C 
ATOM     33  C   UNL     1       2.764   0.779   1.472  0.00  0.00    -0.010 C 
ATOM     34  C   UNL     1       2.610  -1.575   2.221  0.00  0.00    -0.010 C 
ATOM     35  C   UNL     1      -1.468  -0.478   0.081  0.00  0.00    -0.010 C 
ATOM     36  H   UNL     1       0.360  -1.492   1.315  0.00  0.00    -0.081 HD
ENDBRANCH  21  28
ENDBRANCH  20  22
ENDBRANCH   1  20
BRANCH   8  37
ATOM     37  C   UNL     1       7.080  -0.794  -8.061  0.00  0.00    +0.143 C 
BRANCH  37  38
ATOM     38  C   UNL     1       7.761  -0.204  -9.269  0.00  0.00    +0.007 A 
ATOM     39  C   UNL     1       7.192   0.694 -10.201  0.00  0.00    +0.046 A 
ATOM     40  C   UNL     1       8.144   0.963 -11.113  0.00  0.00    +0.195 A 
ATOM     41  O   UNL     1       9.252   0.280 -10.784  0.00  0.00    -0.471 OA
ATOM     42  C   UNL     1       9.027  -0.425  -9.663  0.00  0.00    +0.200 A 
ENDBRANCH  37  38
ENDBRANCH   8  37
TORSDOF 7
