REMARK  Name = ZINC39912005
REMARK  13 active torsions:
REMARK  status: ('A' for Active; 'I' for Inactive)
REMARK    1  A    between atoms: C_1  and  C_2
REMARK    2  A    between atoms: C_2  and  C_3
REMARK    3  A    between atoms: C_3  and  C_4
REMARK    4  A    between atoms: C_4  and  C_5
REMARK    5  A    between atoms: C_5  and  N_6
REMARK    6  A    between atoms: C_7  and  C_26
REMARK    7  A    between atoms: C_10  and  C_17
REMARK    8  A    between atoms: C_19  and  C_25
REMARK    9  A    between atoms: C_21  and  C_24
REMARK   10  A    between atoms: C_22  and  O_23
REMARK   11  A    between atoms: C_29  and  O_32
REMARK   12  A    between atoms: O_32  and  C_33
REMARK   13  A    between atoms: C_33  and  C_34
REMARK                            x       y       z     vdW  Elec       q    Type
REMARK                         _______ _______ _______ _____ _____    ______ ____
ROOT
ATOM      1  N   UNL     1       1.475  -3.986  -2.532  0.00  0.00    -0.285 N 
ATOM      2  C   UNL     1       2.520  -4.835  -1.946  0.00  0.00    +0.141 C 
ATOM      3  C   UNL     1       2.097  -6.255  -2.206  0.00  0.00    +0.035 A 
ATOM      4  C   UNL     1       2.383  -7.617  -2.060  0.00  0.00    +0.102 A 
ATOM      5  N   UNL     1       1.402  -8.289  -2.629  0.00  0.00    -0.173 NA
ATOM      6  N   UNL     1       0.525  -7.488  -3.119  0.00  0.00    -0.272 N 
ATOM      7  H   UNL     1      -0.282  -7.761  -3.583  0.00  0.00    +0.189 HD
ATOM      8  C   UNL     1       0.898  -6.194  -2.889  0.00  0.00    +0.126 A 
ATOM      9  C   UNL     1       0.536  -4.784  -3.072  0.00  0.00    +0.265 C 
ATOM     10  O   UNL     1      -0.469  -4.391  -3.634  0.00  0.00    -0.268 OA
ENDROOT
BRANCH   4  11
ATOM     11  C   UNL     1       3.573  -8.197  -1.389  0.00  0.00    +0.044 A 
ATOM     12  C   UNL     1       4.534  -7.362  -0.824  0.00  0.00    +0.017 A 
ATOM     13  C   UNL     1       5.639  -7.907  -0.201  0.00  0.00    -0.049 A 
ATOM     14  C   UNL     1       5.796  -9.280  -0.136  0.00  0.00    +0.010 A 
ATOM     15  C   UNL     1       4.848 -10.117  -0.693  0.00  0.00    -0.008 A 
ATOM     16  C   UNL     1       3.731  -9.584  -1.317  0.00  0.00    +0.129 A 
ATOM     17  C   UNL     1       5.026 -11.612  -0.618  0.00  0.00    +0.047 C 
ATOM     18  C   UNL     1       6.678  -7.002   0.410  0.00  0.00    +0.044 C 
BRANCH  16  19
ATOM     19  O   UNL     1       2.796 -10.406  -1.861  0.00  0.00    -0.506 OA
ATOM     20  H   UNL     1       2.963 -10.634  -2.785  0.00  0.00    +0.292 HD
ENDBRANCH  16  19
ENDBRANCH   4  11
BRANCH   2  21
ATOM     21  C   UNL     1       2.621  -4.585  -0.464  0.00  0.00    -0.022 A 
ATOM     22  C   UNL     1       1.473  -4.408   0.286  0.00  0.00    +0.009 A 
ATOM     23  C   UNL     1       1.563  -4.178   1.645  0.00  0.00    +0.046 A 
ATOM     24  C   UNL     1       2.806  -4.126   2.258  0.00  0.00    +0.121 A 
ATOM     25  C   UNL     1       3.957  -4.305   1.504  0.00  0.00    +0.046 A 
ATOM     26  C   UNL     1       3.861  -4.540   0.146  0.00  0.00    +0.009 A 
BRANCH  24  27
ATOM     27  O   UNL     1       2.897  -3.900   3.595  0.00  0.00    -0.487 OA
BRANCH  27  28
ATOM     28  C   UNL     1       4.210  -3.860   4.158  0.00  0.00    +0.264 C 
BRANCH  28  29
ATOM     29  C   UNL     1       4.113  -3.601   5.640  0.00  0.00    -0.010 A 
ATOM     30  C   UNL     1       4.114  -2.303   6.116  0.00  0.00    +0.007 A 
ATOM     31  C   UNL     1       4.025  -2.065   7.475  0.00  0.00    +0.000 A 
ATOM     32  C   UNL     1       3.935  -3.125   8.357  0.00  0.00    +0.000 A 
ATOM     33  C   UNL     1       3.934  -4.423   7.881  0.00  0.00    +0.000 A 
ATOM     34  C   UNL     1       4.018  -4.661   6.522  0.00  0.00    +0.007 A 
ENDBRANCH  28  29
ENDBRANCH  27  28
ENDBRANCH  24  27
ENDBRANCH   2  21
BRANCH   1  35
ATOM     35  C   UNL     1       1.455  -2.521  -2.524  0.00  0.00    +0.109 C 
BRANCH  35  36
ATOM     36  C   UNL     1       0.739  -2.027  -1.265  0.00  0.00    +0.019 C 
BRANCH  36  37
ATOM     37  C   UNL     1       0.718  -0.497  -1.257  0.00  0.00    +0.001 C 
BRANCH  37  39
ATOM     38  C   UNL     1      -0.019   1.526   0.010  0.00  0.00    +0.004 C 
ATOM     39  C   UNL     1       0.002  -0.004   0.002  0.00  0.00    -0.003 C 
ENDBRANCH  37  39
ENDBRANCH  36  37
ENDBRANCH  35  36
ENDBRANCH   1  35
TORSDOF 10
