REMARK  Name = ZINC31057531
REMARK  8 active torsions:
REMARK  status: ('A' for Active; 'I' for Inactive)
REMARK    1  A    between atoms: C_1  and  C_2
REMARK    2  A    between atoms: C_7  and  C_8
REMARK    3  A    between atoms: C_8  and  C_10
REMARK    4  A    between atoms: C_8  and  N_16
REMARK    5  A    between atoms: C_17  and  C_19
REMARK    6  A    between atoms: N_24  and  C_26
REMARK    7  A    between atoms: C_26  and  C_27
REMARK    8  A    between atoms: C_29  and  C_32
REMARK                            x       y       z     vdW  Elec       q    Type
REMARK                         _______ _______ _______ _____ _____    ______ ____
ROOT
ATOM      1  N   UNL     1      -5.174   9.469  -3.958  0.00  0.00    -0.304 N 
ATOM      2  C   UNL     1      -4.894   8.937  -2.752  0.00  0.00    +0.215 C 
ATOM      3  O   UNL     1      -5.094   9.582  -1.744  0.00  0.00    -0.276 OA
ATOM      4  H   UNL     1      -4.993   8.884  -4.872  0.00  0.00    +0.150 HD
ENDROOT
BRANCH   2   5
ATOM      5  C   UNL     1      -4.331   7.543  -2.655  0.00  0.00    +0.058 C 
ATOM      6  C   UNL     1      -2.997   7.477  -3.403  0.00  0.00    +0.009 C 
ATOM      7  C   UNL     1      -2.403   6.074  -3.250  0.00  0.00    -0.018 C 
ATOM      8  C   UNL     1      -2.232   5.757  -1.762  0.00  0.00    -0.078 C 
ATOM      9  N   UNL     1      -3.537   5.833  -1.091  0.00  0.00    +0.386 N 
ATOM     10  C   UNL     1      -4.104   7.184  -1.185  0.00  0.00    -0.065 C 
ATOM     11  H   UNL     1      -4.221   5.145  -1.610  0.00  0.00    -0.081 HD
BRANCH   9  12
ATOM     12  C   UNL     1      -3.434   5.400   0.309  0.00  0.00    +0.022 C 
BRANCH  12  13
ATOM     13  C   UNL     1      -3.084   3.936   0.358  0.00  0.00    +0.211 A 
ATOM     14  N   UNL     1      -1.879   3.426   0.390  0.00  0.00    -0.192 NA
ATOM     15  C   UNL     1      -2.052   2.083   0.424  0.00  0.00    +0.209 A 
ATOM     16  N   UNL     1      -3.344   1.862   0.420  0.00  0.00    -0.056 NA
ATOM     17  O   UNL     1      -3.946   2.914   0.382  0.00  0.00    -0.340 OA
BRANCH  15  18
ATOM     18  C   UNL     1      -0.987   1.061   0.465  0.00  0.00    +0.060 A 
ATOM     19  C   UNL     1      -1.101  -0.303   0.506  0.00  0.00    +0.019 A 
ATOM     20  C   UNL     1       0.047  -1.063   0.535  0.00  0.00    +0.008 A 
ATOM     21  C   UNL     1       1.254  -0.439   0.521  0.00  0.00    +0.046 A 
ATOM     22  S   UNL     1       0.785   1.282   0.466  0.00  0.00    -0.093 S 
ENDBRANCH  15  18
ENDBRANCH  12  13
ENDBRANCH   9  12
ENDBRANCH   2   5
BRANCH   1  23
ATOM     23  C   UNL     1      -5.721  10.825  -4.052  0.00  0.00    +0.134 C 
BRANCH  23  30
ATOM     24  C   UNL     1      -5.431  13.683  -4.353  0.00  0.00    +0.044 C 
ATOM     25  C   UNL     1      -5.245  12.778  -5.543  0.00  0.00    -0.045 A 
ATOM     26  C   UNL     1      -4.936  13.315  -6.779  0.00  0.00    +0.004 A 
ATOM     27  C   UNL     1      -4.765  12.484  -7.870  0.00  0.00    +0.000 A 
ATOM     28  C   UNL     1      -4.903  11.116  -7.726  0.00  0.00    +0.000 A 
ATOM     29  C   UNL     1      -5.208  10.579  -6.490  0.00  0.00    +0.006 A 
ATOM     30  C   UNL     1      -5.384  11.410  -5.399  0.00  0.00    -0.020 A 
ENDBRANCH  23  30
BRANCH  23  31
ATOM     31  C   UNL     1      -7.218  10.775  -3.886  0.00  0.00    -0.023 A 
ATOM     32  C   UNL     1      -7.963   9.855  -4.601  0.00  0.00    +0.006 A 
ATOM     33  C   UNL     1      -9.335   9.806  -4.445  0.00  0.00    +0.000 A 
ATOM     34  C   UNL     1      -9.965  10.684  -3.583  0.00  0.00    +0.000 A 
ATOM     35  C   UNL     1      -9.221  11.608  -2.873  0.00  0.00    +0.000 A 
ATOM     36  C   UNL     1      -7.848  11.653  -3.025  0.00  0.00    +0.006 A 
ENDBRANCH  23  31
ENDBRANCH   1  23
TORSDOF 7
