REMARK  Name = ZINC09686651
REMARK  7 active torsions:
REMARK  status: ('A' for Active; 'I' for Inactive)
REMARK    1  A    between atoms: C_1  and  C_2
REMARK    2  A    between atoms: C_7  and  N_8
REMARK    3  A    between atoms: N_8  and  S_9
REMARK    4  A    between atoms: S_9  and  C_12
REMARK    5  A    between atoms: C_15  and  C_17
REMARK    6  A    between atoms: C_18  and  C_24
REMARK    7  A    between atoms: C_19  and  C_23
REMARK                            x       y       z     vdW  Elec       q    Type
REMARK                         _______ _______ _______ _____ _____    ______ ____
ROOT
ATOM      1  S   UNL     1      -4.167  -4.188   0.856  0.00  0.00    +0.079 S 
ATOM      2  O   UNL     1      -3.823  -4.684   2.142  0.00  0.00    -0.149 OA
ATOM      3  O   UNL     1      -5.484  -3.769   0.528  0.00  0.00    -0.149 OA
ENDROOT
BRANCH   1   4
ATOM      4  C   UNL     1      -3.109  -2.814   0.545  0.00  0.00    +0.146 A 
ATOM      5  C   UNL     1      -3.301  -1.760  -0.289  0.00  0.00    +0.037 A 
ATOM      6  C   UNL     1      -2.333  -0.784  -0.371  0.00  0.00    +0.019 A 
ATOM      7  C   UNL     1      -1.198  -0.916   0.387  0.00  0.00    +0.039 A 
ATOM      8  S   UNL     1      -1.509  -2.449   1.249  0.00  0.00    -0.067 S 
BRANCH   7   9
ATOM      9  C   UNL     1      -0.029  -0.023   0.473  0.00  0.00    +0.075 A 
ATOM     10  C   UNL     1       1.296  -0.405   0.464  0.00  0.00    -0.002 A 
ATOM     11  C   UNL     1       2.070   0.751   0.563  0.00  0.00    +0.063 A 
ATOM     12  N   UNL     1       1.271   1.786   0.630  0.00  0.00    -0.178 NA
ATOM     13  N   UNL     1      -0.054   1.337   0.576  0.00  0.00    -0.276 N 
ATOM     14  H   UNL     1      -0.873   1.911   0.607  0.00  0.00    +0.189 HD
ATOM     15  C   UNL     1       3.576   0.801   0.590  0.00  0.00    +0.068 C 
ATOM     16  C   UNL     1       1.815  -1.816   0.363  0.00  0.00    +0.048 C 
ENDBRANCH   7   9
ENDBRANCH   1   4
BRANCH   1  17
ATOM     17  N   UNL     1      -3.763  -5.372  -0.230  0.00  0.00    -0.216 N 
ATOM     18  H   UNL     1      -4.424  -5.697  -0.861  0.00  0.00    +0.174 HD
BRANCH  17  25
ATOM     19  C   UNL     1      -2.631  -6.110  -2.733  0.00  0.00    +0.046 C 
ATOM     20  C   UNL     1      -1.879  -6.275  -1.438  0.00  0.00    -0.027 A 
ATOM     21  C   UNL     1      -0.598  -6.792  -1.444  0.00  0.00    +0.025 A 
ATOM     22  C   UNL     1       0.091  -6.950  -0.254  0.00  0.00    +0.041 A 
ATOM     23  C   UNL     1      -0.498  -6.584   0.944  0.00  0.00    +0.022 A 
ATOM     24  C   UNL     1      -1.776  -6.060   0.955  0.00  0.00    +0.026 A 
ATOM     25  C   UNL     1      -2.470  -5.901  -0.238  0.00  0.00    +0.051 A 
ATOM     26 CL   UNL     1       1.698  -7.608  -0.264  0.00  0.00    -0.084 Cl
ENDBRANCH  17  25
ENDBRANCH   1  17
TORSDOF 4
