REMARK  Name = ZINC57928678
REMARK  4 active torsions:
REMARK  status: ('A' for Active; 'I' for Inactive)
REMARK    1  A    between atoms: C_1  and  C_2
REMARK    2  A    between atoms: C_2  and  C_3
REMARK    3  A    between atoms: N_7  and  C_15
REMARK    4  A    between atoms: C_15  and  C_16
REMARK                            x       y       z     vdW  Elec       q    Type
REMARK                         _______ _______ _______ _____ _____    ______ ____
ROOT
ATOM      1  C   UNL     1      -1.433  -0.534   0.013  0.00  0.00    +0.157 C 
ATOM      2  C   UNL     1      -1.418  -2.036  -0.115  0.00  0.00    +0.241 C 
ATOM      3  O   UNL     1      -1.470  -2.545  -1.214  0.00  0.00    -0.273 OA
ATOM      4  N   UNL     1      -1.346  -2.818   0.978  0.00  0.00    -0.257 N 
ATOM      5  C   UNL     1      -1.425  -2.266   2.262  0.00  0.00    +0.058 A 
ATOM      6  C   UNL     1      -1.150  -3.038   3.380  0.00  0.00    +0.025 A 
ATOM      7  C   UNL     1      -1.224  -2.476   4.641  0.00  0.00    +0.002 A 
ATOM      8  C   UNL     1      -1.573  -1.147   4.794  0.00  0.00    +0.002 A 
ATOM      9  C   UNL     1      -1.853  -0.369   3.684  0.00  0.00    +0.025 A 
ATOM     10  C   UNL     1      -1.784  -0.927   2.420  0.00  0.00    +0.049 A 
ATOM     11  N   UNL     1      -2.084  -0.165   1.279  0.00  0.00    -0.331 N 
ATOM     12  H   UNL     1      -2.702   0.581   1.323  0.00  0.00    +0.147 HD
ENDROOT
BRANCH   1  14
ATOM     13  C   UNL     1      -0.019   1.526   0.010  0.00  0.00    +0.006 C 
ATOM     14  C   UNL     1       0.002  -0.004   0.002  0.00  0.00    +0.028 C 
ENDBRANCH   1  14
BRANCH   4  15
ATOM     15  C   UNL     1      -1.181  -4.265   0.822  0.00  0.00    +0.238 C 
BRANCH  15  16
ATOM     16  C   UNL     1       0.287  -4.603   0.788  0.00  0.00    +0.373 C 
ATOM     17  O   UNL     1       1.119  -3.717   0.886  0.00  0.00    -0.245 OA
ATOM     18  O   UNL     1       0.643  -5.762   0.664  0.00  0.00    -0.245 OA
ENDBRANCH  15  16
ENDBRANCH   4  15
TORSDOF 3
