REMARK  Name = ZINC38885922
REMARK  8 active torsions:
REMARK  status: ('A' for Active; 'I' for Inactive)
REMARK    1  A    between atoms: C_1  and  C_2
REMARK    2  A    between atoms: C_9  and  C_35
REMARK    3  A    between atoms: C_9  and  C_36
REMARK    4  A    between atoms: C_11  and  N_13
REMARK    5  A    between atoms: C_14  and  C_16
REMARK    6  A    between atoms: N_21  and  C_23
REMARK    7  A    between atoms: C_23  and  C_24
REMARK    8  A    between atoms: C_26  and  C_29
REMARK                            x       y       z     vdW  Elec       q    Type
REMARK                         _______ _______ _______ _____ _____    ______ ____
ROOT
ATOM      1  C   UNL     1       1.498  -5.279  -3.462  0.00  0.00    +0.058 C 
ATOM      2  C   UNL     1       2.689  -4.320  -3.537  0.00  0.00    +0.009 C 
ATOM      3  C   UNL     1       3.607  -4.750  -4.685  0.00  0.00    -0.018 C 
ATOM      4  C   UNL     1       2.805  -4.781  -5.987  0.00  0.00    -0.078 C 
ATOM      5  N   UNL     1       1.697  -5.735  -5.861  0.00  0.00    +0.386 N 
ATOM      6  C   UNL     1       0.774  -5.291  -4.810  0.00  0.00    -0.065 C 
ATOM      7  H   UNL     1       2.063  -6.645  -5.623  0.00  0.00    -0.081 HD
ENDROOT
BRANCH   1   9
ATOM      8  N   UNL     1       0.972  -4.728  -1.109  0.00  0.00    -0.308 N 
ATOM      9  C   UNL     1       0.549  -4.820  -2.385  0.00  0.00    +0.215 C 
ATOM     10  O   UNL     1      -0.595  -4.532  -2.667  0.00  0.00    -0.276 OA
ATOM     11  H   UNL     1       1.887  -4.958  -0.883  0.00  0.00    +0.149 HD
BRANCH   8  22
ATOM     12  C   UNL     1      -0.018   1.503   0.010  0.00  0.00    +0.044 C 
ATOM     13  C   UNL     1       0.002  -0.004   0.002  0.00  0.00    -0.047 A 
ATOM     14  C   UNL     1       0.006  -0.689  -1.199  0.00  0.00    +0.004 A 
ATOM     15  C   UNL     1       0.022  -2.070  -1.206  0.00  0.00    +0.009 A 
ATOM     16  C   UNL     1       0.036  -2.775  -0.013  0.00  0.00    +0.015 A 
ATOM     17  C   UNL     1       0.036  -2.092   1.190  0.00  0.00    +0.126 A 
ATOM     18  C   UNL     1       0.023  -0.701   1.193  0.00  0.00    +0.049 A 
ATOM     19  O   UNL     1       0.061  -2.743   2.382  0.00  0.00    -0.486 OA
ATOM     20  C   UNL     1      -0.288  -4.128   2.394  0.00  0.00    +0.107 C 
ATOM     21  C   UNL     1       0.506  -4.837   1.290  0.00  0.00    +0.074 C 
ATOM     22  C   UNL     1       0.049  -4.282  -0.062  0.00  0.00    +0.110 C 
ATOM     23  C   UNL     1       0.064  -4.736   3.754  0.00  0.00    +0.055 C 
ATOM     24  C   UNL     1      -1.788  -4.283   2.133  0.00  0.00    +0.055 C 
ENDBRANCH   8  22
ENDBRANCH   1   9
BRANCH   5  25
ATOM     25  C   UNL     1       0.977  -5.819  -7.139  0.00  0.00    +0.022 C 
BRANCH  25  26
ATOM     26  C   UNL     1       1.887  -6.401  -8.191  0.00  0.00    +0.211 A 
ATOM     27  N   UNL     1       2.011  -7.666  -8.475  0.00  0.00    -0.193 NA
ATOM     28  C   UNL     1       2.907  -7.830  -9.464  0.00  0.00    +0.202 A 
ATOM     29  N   UNL     1       3.362  -6.653  -9.816  0.00  0.00    -0.056 NA
ATOM     30  O   UNL     1       2.699  -5.703  -8.995  0.00  0.00    -0.340 OA
BRANCH  28  31
ATOM     31  C   UNL     1       3.314  -9.128 -10.057  0.00  0.00    +0.022 A 
ATOM     32  C   UNL     1       2.750 -10.315  -9.595  0.00  0.00    +0.012 A 
ATOM     33  C   UNL     1       3.132 -11.520 -10.149  0.00  0.00    +0.001 A 
ATOM     34  C   UNL     1       4.074 -11.550 -11.162  0.00  0.00    +0.000 A 
ATOM     35  C   UNL     1       4.638 -10.374 -11.624  0.00  0.00    +0.001 A 
ATOM     36  C   UNL     1       4.258  -9.164 -11.081  0.00  0.00    +0.012 A 
ENDBRANCH  28  31
ENDBRANCH  25  26
ENDBRANCH   5  25
TORSDOF 5
