REMARK  Name = ZINC21468044
REMARK  10 active torsions:
REMARK  status: ('A' for Active; 'I' for Inactive)
REMARK    1  A    between atoms: C_1  and  C_2
REMARK    2  A    between atoms: C_5  and  C_8
REMARK    3  A    between atoms: C_11  and  S_20
REMARK    4  A    between atoms: N_12  and  C_13
REMARK    5  A    between atoms: C_16  and  C_19
REMARK    6  A    between atoms: S_20  and  C_21
REMARK    7  A    between atoms: C_21  and  C_23
REMARK    8  A    between atoms: C_21  and  C_24
REMARK    9  A    between atoms: N_26  and  C_27
REMARK   10  A    between atoms: C_30  and  C_33
REMARK                            x       y       z     vdW  Elec       q    Type
REMARK                         _______ _______ _______ _____ _____    ______ ____
ROOT
ATOM      1  C   UNL     1      -1.528   2.614  -0.179  0.00  0.00    +0.169 A 
ATOM      2  N   UNL     1      -0.933   3.752   0.091  0.00  0.00    -0.128 NA
ATOM      3  N   UNL     1       0.325   3.660  -0.150  0.00  0.00    -0.122 NA
ATOM      4  C   UNL     1       0.615   2.453  -0.585  0.00  0.00    +0.197 A 
ATOM      5  N   UNL     1      -0.554   1.743  -0.616  0.00  0.00    -0.270 N 
ENDROOT
BRANCH   1  10
ATOM      6  C   UNL     1      -7.141   1.471   0.370  0.00  0.00    +0.044 C 
ATOM      7  C   UNL     1      -5.671   1.770   0.226  0.00  0.00    -0.050 A 
ATOM      8  C   UNL     1      -5.237   3.083   0.179  0.00  0.00    +0.004 A 
ATOM      9  C   UNL     1      -3.893   3.364   0.048  0.00  0.00    +0.012 A 
ATOM     10  C   UNL     1      -2.970   2.320  -0.038  0.00  0.00    +0.020 A 
ATOM     11  C   UNL     1      -3.416   0.998   0.004  0.00  0.00    +0.012 A 
ATOM     12  C   UNL     1      -4.762   0.731   0.141  0.00  0.00    +0.004 A 
ENDBRANCH   1  10
BRANCH   5  13
ATOM     13  C   UNL     1      -0.726   0.410  -1.014  0.00  0.00    +0.051 A 
ATOM     14  C   UNL     1      -1.428   0.116  -2.175  0.00  0.00    +0.026 A 
ATOM     15  C   UNL     1      -1.590  -1.198  -2.568  0.00  0.00    +0.005 A 
ATOM     16  C   UNL     1      -1.064  -2.221  -1.801  0.00  0.00    -0.050 A 
ATOM     17  C   UNL     1      -0.369  -1.931  -0.641  0.00  0.00    +0.005 A 
ATOM     18  C   UNL     1      -0.198  -0.619  -0.246  0.00  0.00    +0.026 A 
ATOM     19  C   UNL     1      -1.248  -3.654  -2.229  0.00  0.00    +0.044 C 
ENDBRANCH   5  13
BRANCH   4  20
ATOM     20  S   UNL     1       2.210   1.862  -1.044  0.00  0.00    -0.073 S 
BRANCH  20  21
ATOM     21  C   UNL     1       3.197   3.348  -0.734  0.00  0.00    +0.137 C 
ATOM     22  C   UNL     1       3.180   3.668   0.762  0.00  0.00    +0.029 C 
BRANCH  21  23
ATOM     23  C   UNL     1       4.616   3.110  -1.181  0.00  0.00    +0.230 C 
ATOM     24  O   UNL     1       5.028   1.977  -1.316  0.00  0.00    -0.274 OA
ATOM     25  N   UNL     1       5.428   4.156  -1.430  0.00  0.00    -0.285 N 
ATOM     26  H   UNL     1       5.080   5.181  -1.236  0.00  0.00    +0.155 HD
BRANCH  25  27
ATOM     27  C   UNL     1       6.710   3.939  -1.934  0.00  0.00    +0.033 A 
ATOM     28  C   UNL     1       7.440   2.830  -1.520  0.00  0.00    +0.024 A 
ATOM     29  C   UNL     1       8.704   2.610  -2.020  0.00  0.00    +0.015 A 
ATOM     30  C   UNL     1       9.258   3.509  -2.935  0.00  0.00    +0.037 A 
ATOM     31  C   UNL     1       8.524   4.626  -3.345  0.00  0.00    +0.015 A 
ATOM     32  C   UNL     1       7.259   4.837  -2.845  0.00  0.00    +0.024 A 
BRANCH  30  33
ATOM     33  C   UNL     1      10.615   3.279  -3.468  0.00  0.00    +0.242 C 
ATOM     34  O   UNL     1      11.095   4.062  -4.265  0.00  0.00    -0.270 OA
ATOM     35  N   UNL     1      11.321   2.202  -3.072  0.00  0.00    -0.325 N 
ATOM     36  H   UNL     1      12.332   2.031  -3.470  0.00  0.00    +0.145 HD
ATOM     37  H   UNL     1      10.886   1.494  -2.352  0.00  0.00    +0.145 HD
ENDBRANCH  30  33
ENDBRANCH  25  27
ENDBRANCH  21  23
ENDBRANCH  20  21
ENDBRANCH   4  20
TORSDOF 7
