REMARK  Name = ZINC13065367
REMARK  8 active torsions:
REMARK  status: ('A' for Active; 'I' for Inactive)
REMARK    1  A    between atoms: C_4  and  C_7
REMARK    2  A    between atoms: C_7  and  N_8
REMARK    3  A    between atoms: C_9  and  C_13
REMARK    4  A    between atoms: C_13  and  N_60
REMARK    5  A    between atoms: C_14  and  C_15
REMARK    6  A    between atoms: C_14  and  N_60
REMARK    7  A    between atoms: C_22  and  C_23
REMARK    8  A    between atoms: C_22  and  N_60
REMARK                            x       y       z     vdW  Elec       q    Type
REMARK                         _______ _______ _______ _____ _____    ______ ____
ROOT
ATOM      1  N   UNL     1      -0.108  -0.864   2.033  0.00  0.00    +0.390 N 
ATOM      2  H   UNL     1       0.134   0.106   1.799  0.00  0.00    -0.080 HD
ENDROOT
BRANCH   1   3
ATOM      3  C   UNL     1      -1.542  -1.082   1.749  0.00  0.00    +0.001 C 
BRANCH   3   5
ATOM      4  N   UNL     1      -2.751   1.155   1.951  0.00  0.00    -0.227 N 
ATOM      5  C   UNL     1      -2.346  -0.024   2.459  0.00  0.00    +0.135 A 
ATOM      6  N   UNL     1      -2.785  -0.072   3.693  0.00  0.00    -0.115 NA
ATOM      7  N   UNL     1      -3.433   1.017   3.928  0.00  0.00    -0.023 NA
ATOM      8  N   UNL     1      -3.414   1.760   2.877  0.00  0.00    -0.044 NA
BRANCH   4   9
ATOM      9  C   UNL     1      -2.492   1.653   0.598  0.00  0.00    +0.182 C 
BRANCH   9  13
ATOM     10  C   UNL     1       0.841   4.324   0.672  0.00  0.00    +0.000 A 
ATOM     11  C   UNL     1       1.050   2.961   0.576  0.00  0.00    +0.000 A 
ATOM     12  C   UNL     1      -0.029   2.096   0.555  0.00  0.00    +0.005 A 
ATOM     13  C   UNL     1      -1.316   2.595   0.626  0.00  0.00    -0.026 A 
ATOM     14  C   UNL     1      -1.524   3.958   0.728  0.00  0.00    +0.005 A 
ATOM     15  C   UNL     1      -0.446   4.823   0.749  0.00  0.00    +0.000 A 
ENDBRANCH   9  13
ENDBRANCH   4   9
ENDBRANCH   3   5
ENDBRANCH   1   3
BRANCH   1  16
ATOM     16  C   UNL     1       0.163  -1.092   3.468  0.00  0.00    -0.042 C 
BRANCH  16  17
ATOM     17  C   UNL     1       1.538  -0.568   3.792  0.00  0.00    -0.064 A 
ATOM     18  C   UNL     1       2.616  -1.433   3.827  0.00  0.00    +0.004 A 
ATOM     19  C   UNL     1       3.878  -0.952   4.119  0.00  0.00    +0.038 A 
ATOM     20  C   UNL     1       4.062   0.394   4.386  0.00  0.00    +0.123 A 
ATOM     21  C   UNL     1       2.980   1.258   4.356  0.00  0.00    +0.038 A 
ATOM     22  C   UNL     1       1.719   0.776   4.059  0.00  0.00    +0.004 A 
ATOM     23  F   UNL     1       5.295   0.864   4.676  0.00  0.00    -0.205 F 
ENDBRANCH  16  17
ENDBRANCH   1  16
BRANCH   1  24
ATOM     24  C   UNL     1       0.715  -1.776   1.212  0.00  0.00    -0.036 C 
BRANCH  24  25
ATOM     25  C   UNL     1       0.783  -1.233  -0.192  0.00  0.00    +0.001 A 
ATOM     26  C   UNL     1       1.806  -0.418  -0.553  0.00  0.00    +0.017 A 
ATOM     27  C   UNL     1       1.845   0.091  -1.923  0.00  0.00    +0.002 A 
ATOM     28  C   UNL     1       2.878   0.934  -2.352  0.00  0.00    +0.059 A 
ATOM     29  C   UNL     1       2.888   1.398  -3.648  0.00  0.00    +0.167 A 
ATOM     30  C   UNL     1       1.870   1.030  -4.537  0.00  0.00    +0.168 A 
ATOM     31  C   UNL     1       0.846   0.198  -4.122  0.00  0.00    +0.075 A 
ATOM     32  C   UNL     1       0.822  -0.279  -2.818  0.00  0.00    +0.053 A 
ATOM     33  N   UNL     1      -0.191  -1.111  -2.387  0.00  0.00    -0.322 N 
ATOM     34  H   UNL     1      -0.895  -1.365  -3.004  0.00  0.00    +0.169 HD
ATOM     35  C   UNL     1      -0.213  -1.579  -1.127  0.00  0.00    +0.251 A 
ATOM     36  O   UNL     1      -1.121  -2.317  -0.783  0.00  0.00    -0.268 OA
ATOM     37  O   UNL     1       2.115   1.618  -5.743  0.00  0.00    -0.453 OA
ATOM     38  C   UNL     1       3.499   2.012  -5.707  0.00  0.00    +0.466 C 
ATOM     39  O   UNL     1       3.763   2.215  -4.306  0.00  0.00    -0.453 OA
ENDBRANCH  24  25
ENDBRANCH   1  24
TORSDOF 8
