REMARK  Name = ZINC05196736
REMARK  6 active torsions:
REMARK  status: ('A' for Active; 'I' for Inactive)
REMARK    1  A    between atoms: C_1  and  O_2
REMARK    2  A    between atoms: O_2  and  C_3
REMARK    3  A    between atoms: C_6  and  C_11
REMARK    4  A    between atoms: C_8  and  O_9
REMARK    5  A    between atoms: O_9  and  C_10
REMARK    6  A    between atoms: C_20  and  C_23
REMARK                            x       y       z     vdW  Elec       q    Type
REMARK                         _______ _______ _______ _____ _____    ______ ____
ROOT
ATOM      1  C   UNL     1       1.239   1.742  -0.000  0.00  0.00    +0.236 C 
ATOM      2  N   UNL     1      -0.011   0.966   0.007  0.00  0.00    -0.315 N 
ATOM      3  C   UNL     1      -1.221   1.672   0.017  0.00  0.00    +0.035 A 
ATOM      4  C   UNL     1      -2.416   1.015  -0.237  0.00  0.00    +0.025 A 
ATOM      5  C   UNL     1      -3.605   1.718  -0.217  0.00  0.00    +0.022 A 
ATOM      6  C   UNL     1      -3.602   3.073   0.061  0.00  0.00    +0.041 A 
ATOM      7  C   UNL     1      -2.412   3.729   0.318  0.00  0.00    +0.028 A 
ATOM      8  C   UNL     1      -1.218   3.032   0.299  0.00  0.00    +0.008 A 
ATOM      9  C   UNL     1       0.074   3.753   0.578  0.00  0.00    +0.183 C 
ATOM     10  O   UNL     1       1.094   2.819   0.934  0.00  0.00    -0.342 OA
ATOM     11 CL   UNL     1      -5.098   3.954   0.086  0.00  0.00    -0.084 Cl
ATOM     12  H   UNL     1       0.002  -0.004   0.002  0.00  0.00    +0.149 HD
ENDROOT
BRANCH   1  16
ATOM     13  C   UNL     1       4.499  -0.764   1.175  0.00  0.00    +0.162 A 
ATOM     14  C   UNL     1       3.225  -1.005   1.664  0.00  0.00    +0.050 A 
ATOM     15  C   UNL     1       2.175  -0.190   1.287  0.00  0.00    +0.011 A 
ATOM     16  C   UNL     1       2.389   0.860   0.412  0.00  0.00    +0.003 A 
ATOM     17  C   UNL     1       3.658   1.105  -0.080  0.00  0.00    +0.057 A 
ATOM     18  C   UNL     1       4.716   0.295   0.299  0.00  0.00    +0.162 A 
BRANCH  13  20
ATOM     19  C   UNL     1       5.238  -2.630   2.450  0.00  0.00    +0.277 C 
ATOM     20  O   UNL     1       5.535  -1.562   1.549  0.00  0.00    -0.491 OA
ENDBRANCH  13  20
BRANCH  18  21
ATOM     21  O   UNL     1       5.965   0.536  -0.184  0.00  0.00    -0.491 OA
ATOM     22  C   UNL     1       6.113   1.641  -1.077  0.00  0.00    +0.277 C 
ENDBRANCH  18  21
ENDBRANCH   1  16
BRANCH   9  23
ATOM     23  C   UNL     1      -0.130   4.724   1.712  0.00  0.00    -0.014 A 
ATOM     24  C   UNL     1      -0.010   4.295   3.021  0.00  0.00    +0.006 A 
ATOM     25  C   UNL     1      -0.193   5.186   4.061  0.00  0.00    +0.000 A 
ATOM     26  C   UNL     1      -0.507   6.506   3.793  0.00  0.00    +0.000 A 
ATOM     27  C   UNL     1      -0.632   6.935   2.485  0.00  0.00    +0.000 A 
ATOM     28  C   UNL     1      -0.444   6.044   1.444  0.00  0.00    +0.006 A 
ENDBRANCH   9  23
TORSDOF 4
