REMARK  Name = ZINC35745187
REMARK  19 active torsions:
REMARK  status: ('A' for Active; 'I' for Inactive)
REMARK    1  A    between atoms: C_1  and  C_2
REMARK    2  A    between atoms: C_2  and  C_3
REMARK    3  A    between atoms: C_3  and  N_4
REMARK    4  A    between atoms: N_4  and  C_5
REMARK    5  A    between atoms: N_4  and  C_16
REMARK    6  A    between atoms: C_5  and  C_6
REMARK    7  A    between atoms: C_10  and  O_14
REMARK    8  A    between atoms: C_11  and  O_12
REMARK    9  A    between atoms: O_12  and  C_13
REMARK   10  A    between atoms: O_14  and  C_15
REMARK   11  A    between atoms: C_16  and  C_17
REMARK   12  A    between atoms: C_20  and  C_22
REMARK   13  A    between atoms: C_22  and  C_23
REMARK   14  A    between atoms: C_22  and  C_31
REMARK   15  A    between atoms: C_22  and  O_39
REMARK   16  A    between atoms: C_26  and  O_29
REMARK   17  A    between atoms: O_29  and  C_30
REMARK   18  A    between atoms: C_34  and  O_37
REMARK   19  A    between atoms: O_37  and  C_38
REMARK                            x       y       z     vdW  Elec       q    Type
REMARK                         _______ _______ _______ _____ _____    ______ ____
ROOT
ATOM      1  C   UNL     1       0.226  -1.919  -0.780  0.00  0.00    +0.089 A 
ATOM      2  C   UNL     1       0.304  -0.606  -1.060  0.00  0.00    +0.043 A 
ATOM      3  C   UNL     1      -0.389  -0.404  -2.275  0.00  0.00    +0.048 A 
ATOM      4  C   UNL     1      -0.849  -1.606  -2.666  0.00  0.00    +0.146 A 
ATOM      5  O   UNL     1      -0.469  -2.521  -1.760  0.00  0.00    -0.463 OA
ENDROOT
BRANCH   1   6
ATOM      6  C   UNL     1       0.822  -2.601   0.424  0.00  0.00    -0.003 C 
BRANCH   6   7
ATOM      7  N   UNL     1      -0.087  -2.458   1.568  0.00  0.00    +0.387 N 
ATOM      8  H   UNL     1      -0.268  -1.479   1.734  0.00  0.00    -0.081 HD
BRANCH   7   9
ATOM      9  C   UNL     1       0.531  -3.050   2.762  0.00  0.00    -0.078 C 
BRANCH   9  11
ATOM     10  C   UNL     1       2.328  -2.769   4.474  0.00  0.00    +0.002 C 
ATOM     11  C   UNL     1       1.764  -2.235   3.156  0.00  0.00    -0.022 C 
ENDBRANCH   9  11
ENDBRANCH   7   9
BRANCH   7  12
ATOM     12  C   UNL     1      -1.352  -3.147   1.278  0.00  0.00    -0.039 C 
BRANCH  12  13
ATOM     13  C   UNL     1      -2.329  -2.897   2.398  0.00  0.00    -0.019 A 
ATOM     14  C   UNL     1      -2.520  -3.856   3.376  0.00  0.00    +0.005 A 
ATOM     15  C   UNL     1      -3.415  -3.630   4.405  0.00  0.00    +0.004 A 
ATOM     16  C   UNL     1      -4.123  -2.444   4.461  0.00  0.00    +0.049 A 
ATOM     17  C   UNL     1      -3.937  -1.479   3.485  0.00  0.00    +0.162 A 
ATOM     18  C   UNL     1      -3.031  -1.704   2.452  0.00  0.00    +0.163 A 
BRANCH  18  19
ATOM     19  O   UNL     1      -2.840  -0.757   1.494  0.00  0.00    -0.491 OA
ATOM     20  C   UNL     1      -3.680  -0.823   0.341  0.00  0.00    +0.277 C 
ENDBRANCH  18  19
BRANCH  17  21
ATOM     21  O   UNL     1      -4.633  -0.312   3.538  0.00  0.00    -0.491 OA
ATOM     22  C   UNL     1      -5.540  -0.147   4.629  0.00  0.00    +0.277 C 
ENDBRANCH  17  21
ENDBRANCH  12  13
ENDBRANCH   7  12
ENDBRANCH   6   7
ENDBRANCH   1   6
BRANCH   4  23
ATOM     23  C   UNL     1      -1.651  -1.880  -3.913  0.00  0.00    +0.174 C 
BRANCH  23  24
ATOM     24  C   UNL     1      -1.364  -3.278  -4.397  0.00  0.00    -0.004 A 
ATOM     25  C   UNL     1      -0.823  -3.475  -5.654  0.00  0.00    +0.011 A 
ATOM     26  C   UNL     1      -0.560  -4.755  -6.101  0.00  0.00    +0.046 A 
ATOM     27  C   UNL     1      -0.837  -5.844  -5.287  0.00  0.00    +0.120 A 
ATOM     28  C   UNL     1      -1.379  -5.643  -4.025  0.00  0.00    +0.046 A 
ATOM     29  C   UNL     1      -1.636  -4.360  -3.581  0.00  0.00    +0.011 A 
BRANCH  27  30
ATOM     30  O   UNL     1      -0.580  -7.104  -5.724  0.00  0.00    -0.495 OA
ATOM     31  C   UNL     1      -0.891  -8.177  -4.832  0.00  0.00    +0.277 C 
ENDBRANCH  27  30
ENDBRANCH  23  24
BRANCH  23  32
ATOM     32  C   UNL     1      -3.120  -1.747  -3.604  0.00  0.00    -0.004 A 
ATOM     33  C   UNL     1      -3.651  -2.373  -2.492  0.00  0.00    +0.011 A 
ATOM     34  C   UNL     1      -4.998  -2.252  -2.208  0.00  0.00    +0.046 A 
ATOM     35  C   UNL     1      -5.817  -1.502  -3.039  0.00  0.00    +0.120 A 
ATOM     36  C   UNL     1      -5.281  -0.875  -4.154  0.00  0.00    +0.046 A 
ATOM     37  C   UNL     1      -3.933  -0.994  -4.431  0.00  0.00    +0.011 A 
BRANCH  35  38
ATOM     38  O   UNL     1      -7.142  -1.383  -2.762  0.00  0.00    -0.495 OA
ATOM     39  C   UNL     1      -7.925  -0.596  -3.661  0.00  0.00    +0.277 C 
ENDBRANCH  35  38
ENDBRANCH  23  32
BRANCH  23  40
ATOM     40  O   UNL     1      -1.290  -0.940  -4.927  0.00  0.00    -0.372 OA
ATOM     41  H   UNL     1      -0.356  -0.970  -5.176  0.00  0.00    +0.212 HD
ENDBRANCH  23  40
ENDBRANCH   4  23
TORSDOF 14
