REMARK  Name = ZINC15968453
REMARK  4 active torsions:
REMARK  status: ('A' for Active; 'I' for Inactive)
REMARK    1  A    between atoms: C_1  and  C_2
REMARK    2  A    between atoms: C_16  and  C_19
REMARK    3  A    between atoms: C_19  and  C_20
REMARK    4  A    between atoms: N_32  and  C_35
REMARK                            x       y       z     vdW  Elec       q    Type
REMARK                         _______ _______ _______ _____ _____    ______ ____
ROOT
ATOM      1  C   UNL     1      -0.961   0.883  -0.574  0.00  0.00    +0.046 C 
ATOM      2  C   UNL     1      -0.703  -0.593  -0.409  0.00  0.00    -0.028 A 
ATOM      3  C   UNL     1      -0.621  -1.405  -1.521  0.00  0.00    +0.025 A 
ATOM      4  C   UNL     1      -0.384  -2.761  -1.379  0.00  0.00    +0.042 A 
ATOM      5  C   UNL     1      -0.229  -3.304  -0.115  0.00  0.00    +0.027 A 
ATOM      6  C   UNL     1      -0.310  -2.497   0.997  0.00  0.00    +0.005 A 
ATOM      7  C   UNL     1      -0.543  -1.131   0.866  0.00  0.00    +0.042 A 
ATOM      8  N   UNL     1      -0.578  -0.524   2.124  0.00  0.00    -0.283 N 
ATOM      9  C   UNL     1      -0.374  -1.408   3.119  0.00  0.00    +0.243 C 
ATOM     10  O   UNL     1      -0.351  -1.167   4.308  0.00  0.00    -0.273 OA
ATOM     11  C   UNL     1      -0.193  -2.754   2.472  0.00  0.00    +0.136 C 
ATOM     12  C   UNL     1       1.169  -3.357   2.834  0.00  0.00    +0.123 C 
ATOM     13  C   UNL     1       0.902  -4.883   2.957  0.00  0.00    +0.108 C 
ATOM     14  C   UNL     1      -0.602  -5.047   2.647  0.00  0.00    +0.072 C 
ATOM     15  N   UNL     1      -1.202  -3.725   2.934  0.00  0.00    -0.295 NA
ATOM     16  C   UNL     1       1.722  -5.472   1.831  0.00  0.00    +0.232 C 
ATOM     17  O   UNL     1       1.803  -6.652   1.566  0.00  0.00    -0.274 OA
ATOM     18  N   UNL     1       2.344  -4.488   1.172  0.00  0.00    -0.210 N 
ATOM     19  C   UNL     1       2.107  -3.246   1.654  0.00  0.00    +0.233 C 
ATOM     20  O   UNL     1       2.565  -2.212   1.218  0.00  0.00    -0.274 OA
ATOM     21 CL   UNL     1      -0.280  -3.778  -2.783  0.00  0.00    -0.084 Cl
ATOM     22  H   UNL     1      -0.730   0.424   2.264  0.00  0.00    +0.155 HD
ATOM     23  H   UNL     1      -1.375  -3.624   3.923  0.00  0.00    +0.124 HD
ENDROOT
BRANCH  18  24
ATOM     24  C   UNL     1       3.181  -4.722   0.072  0.00  0.00    +0.044 A 
ATOM     25  C   UNL     1       4.542  -4.465   0.166  0.00  0.00    +0.024 A 
ATOM     26  C   UNL     1       5.364  -4.697  -0.919  0.00  0.00    +0.002 A 
ATOM     27  C   UNL     1       4.832  -5.185  -2.099  0.00  0.00    +0.000 A 
ATOM     28  C   UNL     1       3.477  -5.442  -2.196  0.00  0.00    +0.002 A 
ATOM     29  C   UNL     1       2.651  -5.218  -1.112  0.00  0.00    +0.024 A 
ENDBRANCH  18  24
BRANCH  14  30
ATOM     30  C   UNL     1      -1.213  -6.134   3.534  0.00  0.00    +0.056 C 
BRANCH  30  31
ATOM     31  C   UNL     1      -2.647  -6.363   3.131  0.00  0.00    -0.021 A 
ATOM     32  C   UNL     1      -3.731  -5.795   3.683  0.00  0.00    +0.087 A 
ATOM     33  N   UNL     1      -4.862  -6.244   3.056  0.00  0.00    -0.360 N 
ATOM     34  H   UNL     1      -5.767  -5.975   3.280  0.00  0.00    +0.165 HD
ATOM     35  C   UNL     1      -4.525  -7.134   2.061  0.00  0.00    +0.047 A 
ATOM     36  C   UNL     1      -3.122  -7.243   2.061  0.00  0.00    +0.003 A 
ATOM     37  C   UNL     1      -2.489  -8.082   1.142  0.00  0.00    +0.010 A 
ATOM     38  C   UNL     1      -3.236  -8.791   0.244  0.00  0.00    +0.001 A 
ATOM     39  C   UNL     1      -4.620  -8.684   0.238  0.00  0.00    +0.002 A 
ATOM     40  C   UNL     1      -5.266  -7.869   1.142  0.00  0.00    +0.026 A 
ENDBRANCH  30  31
ENDBRANCH  14  30
TORSDOF 3
