REMARK  Name = ZINC12186383
REMARK  9 active torsions:
REMARK  status: ('A' for Active; 'I' for Inactive)
REMARK    1  A    between atoms: C_1  and  C_2
REMARK    2  A    between atoms: C_2  and  C_3
REMARK    3  A    between atoms: C_2  and  C_4
REMARK    4  A    between atoms: C_2  and  C_5
REMARK    5  A    between atoms: C_8  and  C_22
REMARK    6  A    between atoms: N_14  and  C_16
REMARK    7  A    between atoms: C_22  and  N_56
REMARK    8  A    between atoms: C_23  and  C_24
REMARK    9  A    between atoms: C_23  and  N_56
REMARK                            x       y       z     vdW  Elec       q    Type
REMARK                         _______ _______ _______ _____ _____    ______ ____
ROOT
ATOM      1  C   UNL     1       0.002  -0.004   0.002  0.00  0.00    +0.078 A 
ATOM      2  C   UNL     1       1.351  -0.430  -0.013  0.00  0.00    +0.041 A 
ATOM      3  C   UNL     1       1.968  -1.702  -0.026  0.00  0.00    +0.020 A 
ATOM      4  C   UNL     1       3.325  -1.779  -0.038  0.00  0.00    +0.001 A 
ATOM      5  C   UNL     1       4.096  -0.603  -0.040  0.00  0.00    +0.252 A 
ATOM      6  O   UNL     1       5.314  -0.682  -0.051  0.00  0.00    -0.268 OA
ATOM      7  N   UNL     1       3.508   0.608  -0.028  0.00  0.00    -0.307 N 
ATOM      8  H   UNL     1       4.056   1.408  -0.029  0.00  0.00    +0.170 HD
ATOM      9  C   UNL     1       2.144   0.720  -0.015  0.00  0.00    +0.145 A 
ATOM     10  N   UNL     1       1.298   1.782  -0.001  0.00  0.00    -0.216 N 
ATOM     11  N   UNL     1      -0.016   1.299   0.009  0.00  0.00    -0.168 NA
ENDROOT
BRANCH  10  12
ATOM     12  C   UNL     1       1.676   3.132   0.003  0.00  0.00    +0.068 A 
ATOM     13  C   UNL     1       2.815   3.534   0.687  0.00  0.00    +0.028 A 
ATOM     14  C   UNL     1       3.187   4.864   0.685  0.00  0.00    +0.002 A 
ATOM     15  C   UNL     1       2.421   5.797   0.010  0.00  0.00    +0.000 A 
ATOM     16  C   UNL     1       1.283   5.400  -0.669  0.00  0.00    +0.002 A 
ATOM     17  C   UNL     1       0.908   4.071  -0.674  0.00  0.00    +0.028 A 
ENDBRANCH  10  12
BRANCH   1  19
ATOM     18  C   UNL     1      -2.477  -0.050   0.025  0.00  0.00    +0.017 C 
ATOM     19  C   UNL     1      -1.207  -0.903   0.008  0.00  0.00    +0.007 C 
ATOM     20  C   UNL     1      -1.198  -1.779  -1.246  0.00  0.00    +0.017 C 
ATOM     21  C   UNL     1      -1.175  -1.794   1.252  0.00  0.00    +0.017 C 
ENDBRANCH   1  19
BRANCH   4  22
ATOM     22  C   UNL     1       4.002  -3.125  -0.051  0.00  0.00    -0.041 C 
BRANCH  22  23
ATOM     23  N   UNL     1       4.315  -3.495  -1.445  0.00  0.00    +0.384 N 
ATOM     24  H   UNL     1       4.938  -2.788  -1.852  0.00  0.00    -0.085 HD
ATOM     25  H   UNL     1       3.444  -3.538  -1.987  0.00  0.00    -0.085 HD
BRANCH  23  26
ATOM     26  C   UNL     1       4.980  -4.811  -1.488  0.00  0.00    -0.048 C 
BRANCH  26  27
ATOM     27  C   UNL     1       5.292  -5.168  -2.943  0.00  0.00    +0.127 C 
ATOM     28  C   UNL     1       5.869  -6.585  -3.010  0.00  0.00    +0.189 C 
ATOM     29  O   UNL     1       6.261  -6.869  -4.357  0.00  0.00    -0.375 OA
ATOM     30  C   UNL     1       7.220  -5.945  -4.881  0.00  0.00    +0.188 C 
ATOM     31  C   UNL     1       6.643  -4.529  -4.813  0.00  0.00    +0.188 C 
ATOM     32  O   UNL     1       6.251  -4.245  -3.467  0.00  0.00    -0.374 OA
ENDBRANCH  26  27
ENDBRANCH  23  26
ENDBRANCH  22  23
ENDBRANCH   4  22
TORSDOF 6
