REMARK  Name = ZINC09292893
REMARK  10 active torsions:
REMARK  status: ('A' for Active; 'I' for Inactive)
REMARK    1  A    between atoms: C_1  and  C_2
REMARK    2  A    between atoms: C_2  and  O_3
REMARK    3  A    between atoms: O_3  and  C_4
REMARK    4  A    between atoms: C_7  and  C_12
REMARK    5  A    between atoms: C_9  and  O_10
REMARK    6  A    between atoms: O_10  and  C_11
REMARK    7  A    between atoms: C_19  and  N_35
REMARK    8  A    between atoms: C_20  and  C_33
REMARK    9  A    between atoms: C_21  and  C_23
REMARK   10  A    between atoms: C_26  and  C_29
REMARK                            x       y       z     vdW  Elec       q    Type
REMARK                         _______ _______ _______ _____ _____    ______ ____
ROOT
ATOM      1  C   UNL     1      -1.994  -6.073  -0.011  0.00  0.00    +0.074 A 
ATOM      2  C   UNL     1      -1.320  -6.957  -0.787  0.00  0.00    +0.054 A 
ATOM      3  C   UNL     1      -1.784  -8.251  -0.479  0.00  0.00    +0.245 A 
ATOM      4  N   UNL     1      -2.699  -8.150   0.443  0.00  0.00    -0.135 NA
ATOM      5  N   UNL     1      -2.855  -6.793   0.767  0.00  0.00    -0.273 N 
ATOM      6  H   UNL     1      -3.467  -6.431   1.427  0.00  0.00    +0.189 HD
ATOM      7  O   UNL     1      -1.291  -9.359  -1.097  0.00  0.00    -0.421 OA
ATOM      8  C   UNL     1      -0.160  -9.218  -1.816  0.00  0.00    +0.201 C 
ATOM      9  C   UNL     1       0.372  -8.033  -2.180  0.00  0.00    +0.098 C 
ATOM     10  C   UNL     1      -0.252  -6.708  -1.821  0.00  0.00    +0.102 C 
ENDROOT
BRANCH   1  14
ATOM     11  C   UNL     1      -1.498  -1.849   0.006  0.00  0.00    +0.162 A 
ATOM     12  C   UNL     1      -0.386  -2.677  -0.003  0.00  0.00    +0.050 A 
ATOM     13  C   UNL     1      -0.543  -4.048  -0.009  0.00  0.00    +0.014 A 
ATOM     14  C   UNL     1      -1.823  -4.604  -0.005  0.00  0.00    +0.004 A 
ATOM     15  C   UNL     1      -2.942  -3.770   0.005  0.00  0.00    +0.059 A 
ATOM     16  C   UNL     1      -2.779  -2.397   0.016  0.00  0.00    +0.162 A 
BRANCH  16  17
ATOM     17  O   UNL     1      -3.867  -1.582   0.030  0.00  0.00    -0.491 OA
ATOM     18  C   UNL     1      -5.150  -2.213   0.039  0.00  0.00    +0.277 C 
ENDBRANCH  16  17
BRANCH  11  19
ATOM     19  O   UNL     1      -1.339  -0.499   0.012  0.00  0.00    -0.489 OA
BRANCH  19  21
ATOM     20  C   UNL     1      -0.019   1.526   0.010  0.00  0.00    +0.048 C 
ATOM     21  C   UNL     1       0.002  -0.004   0.002  0.00  0.00    +0.226 C 
ENDBRANCH  19  21
ENDBRANCH  11  19
ENDBRANCH   1  14
BRANCH  10  22
ATOM     22  C   UNL     1      -0.868  -6.087  -3.049  0.00  0.00    -0.035 A 
ATOM     23  C   UNL     1      -1.856  -6.761  -3.743  0.00  0.00    +0.005 A 
ATOM     24  C   UNL     1      -2.420  -6.191  -4.869  0.00  0.00    +0.012 A 
ATOM     25  C   UNL     1      -1.998  -4.948  -5.300  0.00  0.00    +0.055 A 
ATOM     26  C   UNL     1      -1.011  -4.274  -4.606  0.00  0.00    +0.012 A 
ATOM     27  C   UNL     1      -0.449  -4.841  -3.477  0.00  0.00    +0.005 A 
BRANCH  25  28
ATOM     28  C   UNL     1      -2.613  -4.327  -6.528  0.00  0.00    +0.417 C 
ATOM     29  F   UNL     1      -3.723  -3.562  -6.157  0.00  0.00    -0.166 F 
ATOM     30  F   UNL     1      -1.670  -3.507  -7.158  0.00  0.00    -0.166 F 
ATOM     31  F   UNL     1      -3.015  -5.337  -7.409  0.00  0.00    -0.166 F 
ENDBRANCH  25  28
ENDBRANCH  10  22
BRANCH   8  32
ATOM     32  N   UNL     1       0.496 -10.359  -2.204  0.00  0.00    -0.328 N 
ATOM     33  H   UNL     1       0.143 -11.229  -1.960  0.00  0.00    +0.145 HD
ATOM     34  H   UNL     1       1.314 -10.296  -2.722  0.00  0.00    +0.145 HD
ENDBRANCH   8  32
BRANCH   9  35
ATOM     35  C   UNL     1       1.585  -8.033  -2.942  0.00  0.00    +0.101 C 
ATOM     36  N   UNL     1       2.547  -8.033  -3.546  0.00  0.00    -0.191 NA
ENDBRANCH   9  35
TORSDOF 8
