REMARK  Name = ZINC64392153
REMARK  7 active torsions:
REMARK  status: ('A' for Active; 'I' for Inactive)
REMARK    1  A    between atoms: C_1  and  C_2
REMARK    2  A    between atoms: C_2  and  O_3
REMARK    3  A    between atoms: O_3  and  C_4
REMARK    4  A    between atoms: C_8  and  C_10
REMARK    5  A    between atoms: C_12  and  C_16
REMARK    6  A    between atoms: N_26  and  C_29
REMARK    7  A    between atoms: C_29  and  C_30
REMARK                            x       y       z     vdW  Elec       q    Type
REMARK                         _______ _______ _______ _____ _____    ______ ____
ROOT
ATOM      1  C   UNL     1       2.804  -6.864  -5.766  0.00  0.00    +0.006 A 
ATOM      2  C   UNL     1       1.524  -7.266  -5.415  0.00  0.00    +0.009 A 
ATOM      3  C   UNL     1       0.977  -8.409  -5.957  0.00  0.00    +0.016 A 
ATOM      4  C   UNL     1       1.720  -9.162  -6.863  0.00  0.00    +0.063 A 
ATOM      5  C   UNL     1       3.018  -8.755  -7.219  0.00  0.00    +0.056 A 
ATOM      6  C   UNL     1       3.549  -7.598  -6.668  0.00  0.00    +0.034 A 
ATOM      7  N   UNL     1       3.734  -9.524  -8.125  0.00  0.00    -0.307 N 
ATOM      8  H   UNL     1       4.631  -9.255  -8.380  0.00  0.00    +0.170 HD
ATOM      9  C   UNL     1       3.198 -10.638  -8.652  0.00  0.00    +0.330 A 
ATOM     10  O   UNL     1       3.859 -11.284  -9.442  0.00  0.00    -0.246 OA
ATOM     11  N   UNL     1       1.965 -11.068  -8.344  0.00  0.00    -0.256 N 
ATOM     12  C   UNL     1       1.184 -10.392  -7.473  0.00  0.00    +0.265 A 
ATOM     13  O   UNL     1       0.068 -10.788  -7.199  0.00  0.00    -0.267 OA
ENDROOT
BRANCH   1  16
ATOM     14  C   UNL     1       2.209  -4.262  -3.803  0.00  0.00    +0.134 C 
ATOM     15  N   UNL     1       2.841  -5.395  -3.818  0.00  0.00    -0.339 N 
ATOM     16  C   UNL     1       3.385  -5.611  -5.164  0.00  0.00    +0.274 C 
ATOM     17  O   UNL     1       2.990  -4.461  -5.926  0.00  0.00    -0.243 OA
ATOM     18  N   UNL     1       2.250  -3.648  -5.030  0.00  0.00    -0.247 N 
ATOM     19  H   UNL     1       1.841  -2.796  -5.248  0.00  0.00    +0.196 HD
ATOM     20  H   UNL     1       2.937  -5.998  -3.065  0.00  0.00    +0.164 HD
BRANCH  14  25
ATOM     21  C   UNL     1       0.777  -1.810  -1.336  0.00  0.00    +0.121 A 
ATOM     22  C   UNL     1       0.242  -2.668  -0.385  0.00  0.00    +0.045 A 
ATOM     23  C   UNL     1       0.346  -4.037  -0.546  0.00  0.00    +0.004 A 
ATOM     24  C   UNL     1       0.984  -4.559  -1.653  0.00  0.00    +0.012 A 
ATOM     25  C   UNL     1       1.524  -3.705  -2.614  0.00  0.00    +0.020 A 
ATOM     26  C   UNL     1       1.413  -2.325  -2.453  0.00  0.00    +0.057 A 
BRANCH  21  27
ATOM     27  O   UNL     1       0.671  -0.465  -1.174  0.00  0.00    -0.492 OA
BRANCH  27  29
ATOM     28  C   UNL     1      -0.019   1.526   0.010  0.00  0.00    +0.048 C 
ATOM     29  C   UNL     1       0.002  -0.004   0.002  0.00  0.00    +0.225 C 
ENDBRANCH  27  29
ENDBRANCH  21  27
ENDBRANCH  14  25
ENDBRANCH   1  16
BRANCH  11  30
ATOM     30  C   UNL     1       1.456 -12.294  -8.963  0.00  0.00    +0.165 C 
BRANCH  30  31
ATOM     31  C   UNL     1       1.815 -13.478  -8.104  0.00  0.00    -0.024 A 
ATOM     32  C   UNL     1       3.012 -14.140  -8.308  0.00  0.00    +0.009 A 
ATOM     33  C   UNL     1       3.346 -15.227  -7.522  0.00  0.00    +0.050 A 
ATOM     34  C   UNL     1       2.482 -15.656  -6.527  0.00  0.00    +0.166 A 
ATOM     35  C   UNL     1       1.277 -14.989  -6.322  0.00  0.00    +0.167 A 
ATOM     36  C   UNL     1       0.951 -13.897  -7.110  0.00  0.00    +0.055 A 
ATOM     37  O   UNL     1       0.612 -15.596  -5.296  0.00  0.00    -0.453 OA
ATOM     38  C   UNL     1       1.231 -16.887  -5.147  0.00  0.00    +0.466 C 
ATOM     39  O   UNL     1       2.572 -16.681  -5.631  0.00  0.00    -0.453 OA
ENDBRANCH  30  31
ENDBRANCH  11  30
TORSDOF 6
