REMARK  Name = ZINC13498805
REMARK  12 active torsions:
REMARK  status: ('A' for Active; 'I' for Inactive)
REMARK    1  A    between atoms: C_1  and  C_2
REMARK    2  A    between atoms: C_2  and  C_3
REMARK    3  A    between atoms: C_2  and  C_4
REMARK    4  A    between atoms: C_4  and  C_6
REMARK    5  A    between atoms: C_4  and  N_72
REMARK    6  A    between atoms: N_10  and  C_11
REMARK    7  A    between atoms: C_17  and  C_18
REMARK    8  A    between atoms: C_17  and  N_72
REMARK    9  A    between atoms: C_18  and  C_19
REMARK   10  A    between atoms: C_19  and  O_20
REMARK   11  A    between atoms: C_21  and  C_22
REMARK   12  A    between atoms: C_21  and  N_72
REMARK                            x       y       z     vdW  Elec       q    Type
REMARK                         _______ _______ _______ _____ _____    ______ ____
ROOT
ATOM      1  N   UNL     1      -0.748   1.453   1.828  0.00  0.00    +0.389 N 
ATOM      2  H   UNL     1      -0.857   2.256   1.197  0.00  0.00    -0.080 HD
ENDROOT
BRANCH   1   3
ATOM      3  C   UNL     1       0.109   1.849   2.965  0.00  0.00    +0.006 C 
BRANCH   3   4
ATOM      4  C   UNL     1      -0.196   1.003   4.174  0.00  0.00    +0.139 A 
ATOM      5  N   UNL     1      -1.384   0.679   4.623  0.00  0.00    -0.115 NA
ATOM      6  N   UNL     1      -1.228  -0.053   5.671  0.00  0.00    -0.023 NA
ATOM      7  N   UNL     1       0.029  -0.204   5.903  0.00  0.00    -0.044 NA
ATOM      8  N   UNL     1       0.698   0.427   4.998  0.00  0.00    -0.228 N 
BRANCH   8   9
ATOM      9  C   UNL     1       2.157   0.505   4.891  0.00  0.00    +0.111 C 
ATOM     10  C   UNL     1       2.733  -0.903   4.725  0.00  0.00    +0.027 C 
ATOM     11  C   UNL     1       4.256  -0.821   4.612  0.00  0.00    +0.002 C 
ATOM     12  C   UNL     1       4.828  -0.183   5.880  0.00  0.00    +0.000 C 
ATOM     13  C   UNL     1       4.252   1.225   6.046  0.00  0.00    +0.002 C 
ATOM     14  C   UNL     1       2.729   1.143   6.158  0.00  0.00    +0.027 C 
ENDBRANCH   8   9
ENDBRANCH   3   4
BRANCH   3  16
ATOM     15  C   UNL     1       0.126   4.177   2.057  0.00  0.00    +0.006 C 
ATOM     16  C   UNL     1      -0.162   3.320   3.291  0.00  0.00    -0.024 C 
ATOM     17  C   UNL     1      -1.626   3.490   3.700  0.00  0.00    +0.006 C 
ENDBRANCH   3  16
ENDBRANCH   1   3
BRANCH   1  18
ATOM     18  C   UNL     1      -0.118   0.341   1.085  0.00  0.00    -0.075 C 
BRANCH  18  19
ATOM     19  C   UNL     1       1.052   0.895   0.269  0.00  0.00    +0.009 C 
BRANCH  19  20
ATOM     20  C   UNL     1       1.747  -0.250  -0.469  0.00  0.00    +0.154 C 
BRANCH  20  21
ATOM     21  O   UNL     1       2.840   0.267  -1.230  0.00  0.00    -0.395 OA
ATOM     22  H   UNL     1       3.328  -0.405  -1.726  0.00  0.00    +0.209 HD
ENDBRANCH  20  21
ENDBRANCH  19  20
ENDBRANCH  18  19
ENDBRANCH   1  18
BRANCH   1  23
ATOM     23  C   UNL     1      -2.080   1.042   2.318  0.00  0.00    -0.037 C 
BRANCH  23  24
ATOM     24  C   UNL     1      -3.018   0.939   1.143  0.00  0.00    +0.001 A 
ATOM     25  C   UNL     1      -3.237  -0.266   0.557  0.00  0.00    +0.017 A 
ATOM     26  C   UNL     1      -4.157  -0.335  -0.577  0.00  0.00    +0.002 A 
ATOM     27  C   UNL     1      -4.425  -1.551  -1.218  0.00  0.00    +0.059 A 
ATOM     28  C   UNL     1      -5.293  -1.584  -2.289  0.00  0.00    +0.163 A 
ATOM     29  C   UNL     1      -5.906  -0.410  -2.735  0.00  0.00    +0.164 A 
ATOM     30  C   UNL     1      -5.647   0.797  -2.107  0.00  0.00    +0.075 A 
ATOM     31  C   UNL     1      -4.775   0.848  -1.028  0.00  0.00    +0.053 A 
ATOM     32  N   UNL     1      -4.504   2.042  -0.392  0.00  0.00    -0.322 N 
ATOM     33  H   UNL     1      -4.929   2.857  -0.703  0.00  0.00    +0.169 HD
ATOM     34  C   UNL     1      -3.661   2.094   0.654  0.00  0.00    +0.251 A 
ATOM     35  O   UNL     1      -3.445   3.166   1.192  0.00  0.00    -0.268 OA
ATOM     36  O   UNL     1      -6.768  -0.435  -3.788  0.00  0.00    -0.485 OA
ATOM     37  C   UNL     1      -6.720  -1.590  -4.631  0.00  0.00    +0.270 C 
ATOM     38  C   UNL     1      -6.702  -2.838  -3.738  0.00  0.00    +0.270 C 
ATOM     39  O   UNL     1      -5.541  -2.774  -2.903  0.00  0.00    -0.485 OA
ENDBRANCH  23  24
ENDBRANCH   1  23
TORSDOF 10
