REMARK  Name = ZINC12293753
REMARK  6 active torsions:
REMARK  status: ('A' for Active; 'I' for Inactive)
REMARK    1  A    between atoms: C_1  and  C_2
REMARK    2  A    between atoms: C_8  and  O_28
REMARK    3  A    between atoms: C_17  and  C_18
REMARK    4  A    between atoms: C_17  and  N_53
REMARK    5  A    between atoms: C_18  and  C_20
REMARK    6  A    between atoms: C_18  and  O_27
REMARK                            x       y       z     vdW  Elec       q    Type
REMARK                         _______ _______ _______ _____ _____    ______ ____
ROOT
ATOM      1  C   UNL     1       0.111   1.987   4.914  0.00  0.00    +0.044 C 
ATOM      2  C   UNL     1      -0.644   1.998   3.610  0.00  0.00    -0.050 A 
ATOM      3  C   UNL     1      -1.953   2.444   3.571  0.00  0.00    +0.007 A 
ATOM      4  C   UNL     1      -2.642   2.456   2.376  0.00  0.00    +0.046 A 
ATOM      5  C   UNL     1      -2.025   2.021   1.207  0.00  0.00    +0.127 A 
ATOM      6  C   UNL     1      -0.717   1.571   1.250  0.00  0.00    +0.023 A 
ATOM      7  C   UNL     1      -0.030   1.563   2.452  0.00  0.00    +0.013 A 
ATOM      8  C   UNL     1      -0.013   1.086   0.008  0.00  0.00    +0.152 C 
ATOM      9  C   UNL     1      -0.752   1.592  -1.233  0.00  0.00    +0.084 C 
ATOM     10  C   UNL     1      -2.246   1.303  -1.059  0.00  0.00    +0.110 C 
ATOM     11  O   UNL     1      -2.732   2.060   0.048  0.00  0.00    -0.485 OA
ATOM     12  C   UNL     1      -2.995   1.704  -2.331  0.00  0.00    +0.029 C 
ATOM     13  C   UNL     1      -4.477   1.354  -2.178  0.00  0.00    -0.075 C 
ATOM     14  C   UNL     1      -3.949  -0.484  -0.689  0.00  0.00    -0.075 C 
ATOM     15  C   UNL     1      -2.451  -0.190  -0.797  0.00  0.00    +0.029 C 
ATOM     16  N   UNL     1      -4.605  -0.103  -1.958  0.00  0.00    +0.382 N 
ATOM     17  H   UNL     1      -4.147  -0.598  -2.732  0.00  0.00    -0.082 HD
ENDROOT
BRANCH   8  18
ATOM     18  O   UNL     1       1.328   1.580  -0.002  0.00  0.00    -0.387 OA
ATOM     19  H   UNL     1       1.857   1.297   0.756  0.00  0.00    +0.210 HD
ENDBRANCH   8  18
BRANCH  16  20
ATOM     20  C   UNL     1      -6.032  -0.484  -1.922  0.00  0.00    -0.042 C 
BRANCH  20  21
ATOM     21  C   UNL     1      -6.630  -0.284  -3.316  0.00  0.00    +0.128 C 
BRANCH  21  22
ATOM     22  C   UNL     1      -8.109  -0.573  -3.275  0.00  0.00    -0.021 A 
ATOM     23  C   UNL     1      -8.558  -1.879  -3.312  0.00  0.00    +0.009 A 
ATOM     24  C   UNL     1      -9.914  -2.146  -3.270  0.00  0.00    +0.039 A 
ATOM     25  C   UNL     1     -10.822  -1.103  -3.200  0.00  0.00    +0.123 A 
ATOM     26  C   UNL     1     -10.370   0.206  -3.167  0.00  0.00    +0.039 A 
ATOM     27  C   UNL     1      -9.014   0.469  -3.205  0.00  0.00    +0.009 A 
ATOM     28  F   UNL     1     -12.147  -1.362  -3.162  0.00  0.00    -0.205 F 
ENDBRANCH  21  22
BRANCH  21  29
ATOM     29  O   UNL     1      -5.997  -1.173  -4.238  0.00  0.00    -0.389 OA
ATOM     30  H   UNL     1      -6.098  -2.109  -4.016  0.00  0.00    +0.210 HD
ENDBRANCH  21  29
ENDBRANCH  20  21
ENDBRANCH  16  20
TORSDOF 5
