REMARK  Name = ZINC21323461
REMARK  10 active torsions:
REMARK  status: ('A' for Active; 'I' for Inactive)
REMARK    1  A    between atoms: C_1  and  C_2
REMARK    2  A    between atoms: C_2  and  C_4
REMARK    3  A    between atoms: C_2  and  N_10
REMARK    4  A    between atoms: C_11  and  C_13
REMARK    5  A    between atoms: C_13  and  S_14
REMARK    6  A    between atoms: S_14  and  C_15
REMARK    7  A    between atoms: N_19  and  N_20
REMARK    8  A    between atoms: N_21  and  N_22
REMARK    9  A    between atoms: C_23  and  C_24
REMARK   10  A    between atoms: C_23  and  C_25
REMARK                            x       y       z     vdW  Elec       q    Type
REMARK                         _______ _______ _______ _____ _____    ______ ____
ROOT
ATOM      1  C   UNL     1      -0.038  -1.075  -5.706  0.00  0.00    +0.210 A 
ATOM      2  N   UNL     1      -0.017  -2.214  -5.057  0.00  0.00    -0.119 NA
ATOM      3  N   UNL     1      -0.007  -1.931  -3.685  0.00  0.00    -0.109 NA
ATOM      4  C   UNL     1      -0.023  -0.627  -3.541  0.00  0.00    +0.254 A 
ATOM      5  N   UNL     1      -0.048  -0.065  -4.787  0.00  0.00    -0.211 N 
ATOM      6  N   UNL     1      -0.021   0.060  -2.336  0.00  0.00    -0.204 N 
ATOM      7  H   UNL     1      -0.036   1.160  -2.329  0.00  0.00    +0.178 HD
ENDROOT
BRANCH   5   8
ATOM      8  N   UNL     1      -0.075   1.273  -5.063  0.00  0.00    -0.294 N 
ATOM      9  H   UNL     1      -0.080   2.004  -4.242  0.00  0.00    +0.163 HD
ATOM     10  H   UNL     1      -0.091   1.618  -6.107  0.00  0.00    +0.163 HD
ENDBRANCH   5   8
BRANCH   6  11
ATOM     11  N   UNL     1       0.000  -0.647  -1.126  0.00  0.00    -0.184 NA
ATOM     12  C   UNL     1       0.002  -0.004   0.002  0.00  0.00    +0.063 C 
ATOM     13  C   UNL     1      -0.018   1.503   0.010  0.00  0.00    +0.068 C 
BRANCH  12  14
ATOM     14  C   UNL     1       0.024  -0.748   1.275  0.00  0.00    -0.002 A 
ATOM     15  C   UNL     1       0.032  -0.059   2.490  0.00  0.00    +0.012 A 
ATOM     16  C   UNL     1       0.048  -0.760   3.677  0.00  0.00    +0.039 A 
ATOM     17  C   UNL     1       0.067  -2.146   3.666  0.00  0.00    +0.123 A 
ATOM     18  C   UNL     1       0.064  -2.835   2.464  0.00  0.00    +0.039 A 
ATOM     19  C   UNL     1       0.043  -2.145   1.270  0.00  0.00    +0.012 A 
ATOM     20  F   UNL     1       0.087  -2.828   4.832  0.00  0.00    -0.205 F 
ENDBRANCH  12  14
ENDBRANCH   6  11
BRANCH   1  21
ATOM     21  S   UNL     1      -0.059  -0.881  -7.457  0.00  0.00    -0.075 S 
BRANCH  21  22
ATOM     22  C   UNL     1      -0.043  -2.582  -8.087  0.00  0.00    +0.173 C 
BRANCH  22  24
ATOM     23  N   UNL     1      -0.051  -3.717 -10.285  0.00  0.00    -0.308 N 
ATOM     24  C   UNL     1      -0.059  -2.560  -9.594  0.00  0.00    +0.224 C 
ATOM     25  O   UNL     1      -0.079  -1.501 -10.185  0.00  0.00    -0.275 OA
ATOM     26  H   UNL     1      -0.032  -4.677  -9.749  0.00  0.00    +0.149 HD
BRANCH  23  28
ATOM     27  C   UNL     1       1.364  -3.543 -12.273  0.00  0.00    +0.033 C 
ATOM     28  C   UNL     1      -0.066  -3.695 -11.750  0.00  0.00    +0.100 C 
BRANCH  28  29
ATOM     29  C   UNL     1      -0.655  -4.984 -12.265  0.00  0.00    -0.027 A 
ATOM     30  C   UNL     1      -0.335  -6.182 -11.655  0.00  0.00    +0.005 A 
ATOM     31  C   UNL     1      -0.878  -7.363 -12.125  0.00  0.00    +0.000 A 
ATOM     32  C   UNL     1      -1.734  -7.347 -13.211  0.00  0.00    +0.000 A 
ATOM     33  C   UNL     1      -2.050  -6.149 -13.823  0.00  0.00    +0.000 A 
ATOM     34  C   UNL     1      -1.510  -4.967 -13.351  0.00  0.00    +0.005 A 
ENDBRANCH  28  29
ENDBRANCH  23  28
ENDBRANCH  22  24
ENDBRANCH  21  22
ENDBRANCH   1  21
TORSDOF 8
