REMARK  Name = ZINC05482724
REMARK  6 active torsions:
REMARK  status: ('A' for Active; 'I' for Inactive)
REMARK    1  A    between atoms: C_1  and  N_2
REMARK    2  A    between atoms: N_2  and  C_3
REMARK    3  A    between atoms: N_2  and  C_4
REMARK    4  A    between atoms: C_6  and  N_21
REMARK    5  A    between atoms: C_9  and  N_10
REMARK    6  A    between atoms: N_21  and  C_22
REMARK                            x       y       z     vdW  Elec       q    Type
REMARK                         _______ _______ _______ _____ _____    ______ ____
ROOT
ATOM      1  C   UNL     1       2.595  -2.812  -0.278  0.00  0.00    +0.053 A 
ATOM      2  C   UNL     1       3.768  -2.085  -0.214  0.00  0.00    +0.049 A 
ATOM      3  C   UNL     1       3.733  -0.695  -0.116  0.00  0.00    +0.045 A 
ATOM      4  C   UNL     1       2.502  -0.025  -0.080  0.00  0.00    +0.056 A 
ATOM      5  C   UNL     1       1.299  -0.765  -0.145  0.00  0.00    +0.057 A 
ATOM      6  C   UNL     1       1.349  -2.157  -0.244  0.00  0.00    +0.058 A 
ATOM      7  C   UNL     1       0.004  -0.071  -0.110  0.00  0.00    +0.196 C 
ATOM      8  O   UNL     1      -1.031  -0.707  -0.165  0.00  0.00    -0.287 OA
ATOM      9  C   UNL     1      -0.038   1.403  -0.006  0.00  0.00    +0.033 A 
ATOM     10  C   UNL     1      -1.260   2.070   0.034  0.00  0.00    +0.012 A 
ATOM     11  C   UNL     1      -1.289   3.449   0.125  0.00  0.00    +0.001 A 
ATOM     12  C   UNL     1      -0.111   4.172   0.190  0.00  0.00    +0.001 A 
ATOM     13  C   UNL     1       1.111   3.526   0.157  0.00  0.00    +0.012 A 
ATOM     14  C   UNL     1       1.159   2.137   0.059  0.00  0.00    +0.033 A 
ATOM     15  C   UNL     1       2.460   1.437   0.023  0.00  0.00    +0.196 C 
ATOM     16  O   UNL     1       3.495   2.074   0.079  0.00  0.00    -0.287 OA
ENDROOT
BRANCH   1  18
ATOM     17  C   UNL     1       3.362  -4.614  -1.589  0.00  0.00    +0.129 C 
ATOM     18  N   UNL     1       2.646  -4.198  -0.376  0.00  0.00    -0.335 N 
ATOM     19  C   UNL     1       3.254  -4.789   0.824  0.00  0.00    +0.129 C 
ENDBRANCH   1  18
BRANCH   6  20
ATOM     20  N   UNL     1       0.176  -2.892  -0.309  0.00  0.00    -0.356 N 
ATOM     21  H   UNL     1       0.169  -3.758  -0.745  0.00  0.00    +0.142 HD
ATOM     22  H   UNL     1      -0.639  -2.539   0.082  0.00  0.00    +0.142 HD
ENDBRANCH   6  20
BRANCH   3  23
ATOM     23  N   UNL     1       4.916   0.025  -0.053  0.00  0.00    -0.314 N 
ATOM     24  H   UNL     1       5.409   0.221  -0.866  0.00  0.00    +0.152 HD
BRANCH  23  25
ATOM     25  C   UNL     1       5.400   0.470   1.181  0.00  0.00    +0.031 A 
ATOM     26  C   UNL     1       4.755   0.100   2.355  0.00  0.00    +0.026 A 
ATOM     27  C   UNL     1       5.237   0.536   3.573  0.00  0.00    +0.040 A 
ATOM     28  C   UNL     1       6.357   1.350   3.625  0.00  0.00    +0.124 A 
ATOM     29  C   UNL     1       6.998   1.724   2.456  0.00  0.00    +0.040 A 
ATOM     30  C   UNL     1       6.522   1.286   1.236  0.00  0.00    +0.026 A 
ATOM     31  F   UNL     1       6.824   1.779   4.818  0.00  0.00    -0.205 F 
ENDBRANCH  23  25
ENDBRANCH   3  23
TORSDOF 4
