REMARK  Name = ZINC64626283
REMARK  6 active torsions:
REMARK  status: ('A' for Active; 'I' for Inactive)
REMARK    1  A    between atoms: C_6  and  C_10
REMARK    2  A    between atoms: C_17  and  C_19
REMARK    3  A    between atoms: C_19  and  C_20
REMARK    4  A    between atoms: C_20  and  C_21
REMARK    5  A    between atoms: C_21  and  C_27
REMARK    6  A    between atoms: C_27  and  C_28
REMARK                            x       y       z     vdW  Elec       q    Type
REMARK                         _______ _______ _______ _____ _____    ______ ____
ROOT
ATOM      1  C   UNL     1       3.573  -2.802   1.201  0.00  0.00    +0.118 C 
ATOM      2  C   UNL     1       5.104  -2.834   1.212  0.00  0.00    +0.026 C 
ATOM      3  C   UNL     1       5.585  -3.688   2.388  0.00  0.00    +0.003 C 
ATOM      4  C   UNL     1       5.073  -5.121   2.221  0.00  0.00    +0.019 C 
ATOM      5  C   UNL     1       3.541  -5.115   2.222  0.00  0.00    +0.108 C 
ATOM      6  N   UNL     1       3.069  -4.182   1.190  0.00  0.00    -0.295 N 
ATOM      7  C   UNL     1       2.193  -4.585   0.248  0.00  0.00    +0.216 C 
ATOM      8  O   UNL     1       1.877  -3.832  -0.649  0.00  0.00    -0.276 OA
ENDROOT
BRANCH   1  14
ATOM      9  C   UNL     1       5.713   0.646  -2.668  0.00  0.00    +0.002 A 
ATOM     10  C   UNL     1       5.824  -0.543  -3.410  0.00  0.00    +0.002 A 
ATOM     11  C   UNL     1       5.210  -1.687  -3.047  0.00  0.00    +0.027 A 
ATOM     12  C   UNL     1       4.388  -1.714  -1.829  0.00  0.00    +0.060 A 
ATOM     13  N   UNL     1       3.696  -2.651  -1.248  0.00  0.00    -0.362 N 
ATOM     14  C   UNL     1       3.084  -2.067  -0.048  0.00  0.00    +0.195 C 
ATOM     15  N   UNL     1       3.511  -0.663  -0.006  0.00  0.00    -0.362 N 
ATOM     16  C   UNL     1       4.271  -0.455  -1.043  0.00  0.00    +0.060 A 
ATOM     17  C   UNL     1       4.985   0.731  -1.537  0.00  0.00    +0.027 A 
ATOM     18  H   UNL     1       3.602  -3.567  -1.553  0.00  0.00    +0.162 HD
ATOM     19  H   UNL     1       3.271  -0.010   0.669  0.00  0.00    +0.162 HD
ENDBRANCH   1  14
BRANCH   7  20
ATOM     20  C   UNL     1       1.605  -5.972   0.310  0.00  0.00    +0.098 C 
BRANCH  20  21
ATOM     21  C   UNL     1       0.648  -6.173  -0.867  0.00  0.00    +0.035 C 
BRANCH  21  22
ATOM     22  C   UNL     1       0.052  -7.580  -0.804  0.00  0.00    +0.040 C 
ATOM     23  C   UNL     1      -0.966  -7.781  -1.950  0.00  0.00    +0.035 C 
ATOM     24  C   UNL     1      -2.296  -7.402  -1.260  0.00  0.00    +0.098 C 
ATOM     25  C   UNL     1      -2.037  -7.651   0.210  0.00  0.00    +0.214 C 
ATOM     26  O   UNL     1      -2.896  -7.747   1.061  0.00  0.00    -0.276 OA
ATOM     27  N   UNL     1      -0.715  -7.752   0.435  0.00  0.00    -0.309 N 
ATOM     28  H   UNL     1      -0.320  -7.918   1.305  0.00  0.00    +0.149 HD
BRANCH  22  29
ATOM     29  C   UNL     1       1.162  -8.630  -0.890  0.00  0.00    +0.068 C 
BRANCH  29  30
ATOM     30  C   UNL     1       0.556 -10.008  -0.827  0.00  0.00    -0.008 A 
ATOM     31  C   UNL     1       0.129 -10.800  -1.840  0.00  0.00    +0.011 A 
ATOM     32  C   UNL     1      -0.398 -12.043  -1.544  0.00  0.00    +0.008 A 
ATOM     33  C   UNL     1      -0.472 -12.433  -0.248  0.00  0.00    +0.045 A 
ATOM     34  S   UNL     1       0.223 -11.025   0.602  0.00  0.00    -0.102 S 
ENDBRANCH  29  30
ENDBRANCH  22  29
ENDBRANCH  21  22
ENDBRANCH  20  21
ENDBRANCH   7  20
TORSDOF 6
