REMARK  Name = ZINC09238675
REMARK  4 active torsions:
REMARK  status: ('A' for Active; 'I' for Inactive)
REMARK    1  A    between atoms: C_1  and  C_2
REMARK    2  A    between atoms: C_5  and  C_8
REMARK    3  A    between atoms: C_10  and  C_25
REMARK    4  A    between atoms: C_16  and  C_19
REMARK                            x       y       z     vdW  Elec       q    Type
REMARK                         _______ _______ _______ _____ _____    ______ ____
ROOT
ATOM      1  C   UNL     1       2.451   3.937   0.000  0.00  0.00    +0.140 C 
ATOM      2  C   UNL     1       2.745   4.420  -1.426  0.00  0.00    +0.166 C 
ATOM      3  S   UNL     1       4.467   5.003  -1.473  0.00  0.00    -0.069 S 
ATOM      4  C   UNL     1       4.453   5.922   0.035  0.00  0.00    +0.210 A 
ATOM      5  N   UNL     1       5.342   6.778   0.464  0.00  0.00    -0.121 NA
ATOM      6  N   UNL     1       4.984   7.235   1.613  0.00  0.00    -0.127 NA
ATOM      7  C   UNL     1       3.843   6.694   1.978  0.00  0.00    +0.182 A 
ATOM      8  N   UNL     1       3.463   5.838   0.973  0.00  0.00    -0.221 N 
ATOM      9  N   UNL     1       2.342   5.075   0.914  0.00  0.00    -0.272 N 
ATOM     10  H   UNL     1       1.533   5.638   0.695  0.00  0.00    +0.167 HD
ENDROOT
BRANCH   2  11
ATOM     11  C   UNL     1       2.565   3.282  -2.397  0.00  0.00    +0.231 C 
ATOM     12  O   UNL     1       2.773   2.142  -2.041  0.00  0.00    -0.274 OA
ATOM     13  N   UNL     1       2.172   3.532  -3.662  0.00  0.00    -0.301 N 
ATOM     14  C   UNL     1       1.927   4.902  -4.054  0.00  0.00    +0.108 C 
ATOM     15  C   UNL     1       0.456   5.273  -3.773  0.00  0.00    +0.019 C 
ATOM     16  C   UNL     1      -0.434   4.585  -4.720  0.00  0.00    +0.002 C 
ATOM     17  C   UNL     1      -0.402   3.063  -4.622  0.00  0.00    +0.002 C 
ATOM     18  C   UNL     1       0.740   2.533  -5.454  0.00  0.00    +0.019 C 
ATOM     19  C   UNL     1       2.005   2.395  -4.589  0.00  0.00    +0.108 C 
ENDBRANCH   2  11
BRANCH   1  24
ATOM     20  C   UNL     1      -2.514   0.980   0.019  0.00  0.00    +0.044 C 
ATOM     21  C   UNL     1      -1.219   1.751   0.017  0.00  0.00    -0.050 A 
ATOM     22  C   UNL     1      -0.013   1.076   0.008  0.00  0.00    +0.004 A 
ATOM     23  C   UNL     1       1.175   1.783   0.000  0.00  0.00    +0.006 A 
ATOM     24  C   UNL     1       1.156   3.165   0.008  0.00  0.00    -0.024 A 
ATOM     25  C   UNL     1      -0.050   3.840   0.022  0.00  0.00    +0.006 A 
ATOM     26  C   UNL     1      -1.238   3.133   0.029  0.00  0.00    +0.004 A 
ENDBRANCH   1  24
BRANCH   7  27
ATOM     27  C   UNL     1       3.107   6.956   3.233  0.00  0.00    +0.021 A 
ATOM     28  C   UNL     1       1.772   6.568   3.357  0.00  0.00    +0.011 A 
ATOM     29  C   UNL     1       1.093   6.813   4.533  0.00  0.00    +0.001 A 
ATOM     30  C   UNL     1       1.728   7.449   5.583  0.00  0.00    +0.000 A 
ATOM     31  C   UNL     1       3.050   7.841   5.465  0.00  0.00    +0.001 A 
ATOM     32  C   UNL     1       3.743   7.598   4.297  0.00  0.00    +0.011 A 
ENDBRANCH   7  27
TORSDOF 3
