REMARK  Name = ZINC37195016
REMARK  4 active torsions:
REMARK  status: ('A' for Active; 'I' for Inactive)
REMARK    1  A    between atoms: C_3  and  S_9
REMARK    2  A    between atoms: C_4  and  N_8
REMARK    3  A    between atoms: S_9  and  C_10
REMARK    4  A    between atoms: C_10  and  C_11
REMARK                            x       y       z     vdW  Elec       q    Type
REMARK                         _______ _______ _______ _____ _____    ______ ____
ROOT
ATOM      1  C   UNL     1       3.367   4.059  -0.010  0.00  0.00    +0.110 C 
ENDROOT
BRANCH   1   2
ATOM      2  C   UNL     1       4.580   4.952  -0.018  0.00  0.00    -0.020 A 
ATOM      3  C   UNL     1       5.152   5.351   1.176  0.00  0.00    +0.055 A 
ATOM      4  C   UNL     1       6.269   6.172   1.172  0.00  0.00    +0.162 A 
ATOM      5  C   UNL     1       6.814   6.592  -0.036  0.00  0.00    +0.163 A 
ATOM      6  C   UNL     1       6.236   6.190  -1.230  0.00  0.00    +0.065 A 
ATOM      7  C   UNL     1       5.124   5.367  -1.220  0.00  0.00    +0.026 A 
ATOM      8 BR   UNL     1       4.343   4.815  -2.851  0.00  0.00    -0.050 Br
ATOM      9  O   UNL     1       7.915   7.392  -0.062  0.00  0.00    -0.485 OA
ATOM     10  C   UNL     1       8.243   8.075   1.152  0.00  0.00    +0.270 C 
ATOM     11  C   UNL     1       8.154   7.071   2.309  0.00  0.00    +0.270 C 
ATOM     12  O   UNL     1       6.818   6.559   2.356  0.00  0.00    -0.485 OA
ENDBRANCH   1   2
BRANCH   1  13
ATOM     13  S   UNL     1       3.894   2.323  -0.024  0.00  0.00    -0.119 S 
BRANCH  13  16
ATOM     14  C   UNL     1      -0.017   1.380   0.010  0.00  0.00    +0.039 A 
ATOM     15  C   UNL     1       1.169   2.091   0.002  0.00  0.00    +0.019 A 
ATOM     16  C   UNL     1       2.382   1.418  -0.013  0.00  0.00    +0.029 A 
ATOM     17  C   UNL     1       2.401   0.023  -0.021  0.00  0.00    +0.041 A 
ATOM     18  C   UNL     1       1.209  -0.683  -0.013  0.00  0.00    +0.062 A 
ATOM     19  C   UNL     1       0.002  -0.004   0.002  0.00  0.00    +0.125 A 
ATOM     20  F   UNL     1      -1.159  -0.694   0.009  0.00  0.00    -0.205 F 
BRANCH  17  21
ATOM     21  N   UNL     1       3.623  -0.661  -0.037  0.00  0.00    -0.357 N 
ATOM     22  H   UNL     1       4.456  -0.166  -0.043  0.00  0.00    +0.142 HD
ATOM     23  H   UNL     1       3.635  -1.631  -0.043  0.00  0.00    +0.142 HD
ENDBRANCH  17  21
ENDBRANCH  13  16
ENDBRANCH   1  13
TORSDOF 4
