REMARK  Name = ZINC15072579
REMARK  10 active torsions:
REMARK  status: ('A' for Active; 'I' for Inactive)
REMARK    1  A    between atoms: C_1  and  C_2
REMARK    2  A    between atoms: C_2  and  C_4
REMARK    3  A    between atoms: C_2  and  N_16
REMARK    4  A    between atoms: C_6  and  C_10
REMARK    5  A    between atoms: N_16  and  C_17
REMARK    6  A    between atoms: N_16  and  C_18
REMARK    7  A    between atoms: C_18  and  C_19
REMARK    8  A    between atoms: C_22  and  C_27
REMARK    9  A    between atoms: N_29  and  C_30
REMARK   10  A    between atoms: C_30  and  C_31
REMARK                            x       y       z     vdW  Elec       q    Type
REMARK                         _______ _______ _______ _____ _____    ______ ____
ROOT
ATOM      1  C   UNL     1       3.052  -0.946   1.703  0.00  0.00    +0.033 A 
ATOM      2  C   UNL     1       4.055  -1.681   1.157  0.00  0.00    +0.023 A 
ATOM      3  C   UNL     1       4.866  -2.472   1.971  0.00  0.00    +0.020 A 
ATOM      4  C   UNL     1       4.629  -2.492   3.344  0.00  0.00    +0.101 A 
ATOM      5  C   UNL     1       3.570  -1.706   3.867  0.00  0.00    +0.261 A 
ATOM      6  O   UNL     1       3.343  -1.706   5.065  0.00  0.00    -0.267 OA
ATOM      7  N   UNL     1       2.820  -0.957   3.038  0.00  0.00    -0.324 N 
ATOM      8  H   UNL     1       2.100  -0.418   3.401  0.00  0.00    +0.169 HD
ENDROOT
BRANCH   4   9
ATOM      9  C   UNL     1       5.463  -3.314   4.235  0.00  0.00    +0.249 C 
ATOM     10  O   UNL     1       6.437  -3.893   3.794  0.00  0.00    -0.270 OA
ATOM     11  N   UNL     1       5.146  -3.426   5.540  0.00  0.00    -0.311 N 
ATOM     12  H   UNL     1       4.326  -3.030   5.876  0.00  0.00    +0.149 HD
BRANCH  11  13
ATOM     13  C   UNL     1       6.040  -4.144   6.452  0.00  0.00    +0.108 C 
BRANCH  13  14
ATOM     14  C   UNL     1       5.452  -4.124   7.864  0.00  0.00    +0.012 C 
ATOM     15  C   UNL     1       5.417  -2.684   8.382  0.00  0.00    -0.006 C 
ATOM     16  C   UNL     1       4.829  -2.664   9.794  0.00  0.00    +0.007 C 
ATOM     17  C   UNL     1       5.697  -3.518  10.720  0.00  0.00    -0.010 C 
ATOM     18  C   UNL     1       7.119  -2.954  10.752  0.00  0.00    +0.007 C 
ATOM     19  C   UNL     1       7.707  -2.974   9.339  0.00  0.00    -0.010 C 
ATOM     20  C   UNL     1       6.839  -2.119   8.413  0.00  0.00    +0.007 C 
ATOM     21  C   UNL     1       7.741  -4.413   8.822  0.00  0.00    +0.007 C 
ATOM     22  C   UNL     1       6.320  -4.978   8.790  0.00  0.00    -0.006 C 
ATOM     23  C   UNL     1       5.731  -4.958  10.203  0.00  0.00    +0.007 C 
ENDBRANCH  13  14
ENDBRANCH  11  13
ENDBRANCH   4   9
BRANCH   1  24
ATOM     24  C   UNL     1       2.186  -0.098   0.808  0.00  0.00    +0.138 C 
BRANCH  24  25
ATOM     25  N   UNL     1       2.385   1.320   1.135  0.00  0.00    -0.292 NA
ATOM     26  C   UNL     1       3.774   1.728   0.883  0.00  0.00    +0.106 C 
BRANCH  25  28
ATOM     27  C   UNL     1       1.706   3.638   0.730  0.00  0.00    +0.031 C 
ATOM     28  C   UNL     1       1.444   2.169   0.393  0.00  0.00    +0.104 C 
BRANCH  28  29
ATOM     29  C   UNL     1       0.032   1.810   0.778  0.00  0.00    +0.080 A 
ATOM     30  C   UNL     1      -1.099   1.982  -0.021  0.00  0.00    +0.054 A 
ATOM     31  C   UNL     1      -2.181   1.536   0.684  0.00  0.00    +0.066 A 
ATOM     32  N   UNL     1      -1.726   1.097   1.891  0.00  0.00    -0.277 N 
ATOM     33  H   UNL     1      -2.267   0.724   2.605  0.00  0.00    +0.189 HD
ATOM     34  N   UNL     1      -0.337   1.278   1.915  0.00  0.00    -0.177 NA
BRANCH  31  35
ATOM     35  C   UNL     1      -3.587   1.530   0.221  0.00  0.00    -0.000 A 
ATOM     36  C   UNL     1      -3.908   2.008  -1.050  0.00  0.00    +0.010 A 
ATOM     37  C   UNL     1      -5.220   2.000  -1.475  0.00  0.00    +0.001 A 
ATOM     38  C   UNL     1      -6.217   1.519  -0.644  0.00  0.00    +0.000 A 
ATOM     39  C   UNL     1      -5.905   1.045   0.617  0.00  0.00    +0.001 A 
ATOM     40  C   UNL     1      -4.595   1.041   1.052  0.00  0.00    +0.010 A 
ENDBRANCH  31  35
ENDBRANCH  28  29
ENDBRANCH  25  28
ENDBRANCH  24  25
ENDBRANCH   1  24
TORSDOF 8
