REMARK  Name = ZINC01079859
REMARK  6 active torsions:
REMARK  status: ('A' for Active; 'I' for Inactive)
REMARK    1  A    between atoms: C_1  and  C_2
REMARK    2  A    between atoms: C_21  and  N_25
REMARK    3  A    between atoms: C_22  and  C_23
REMARK    4  A    between atoms: C_29  and  C_33
REMARK    5  A    between atoms: C_29  and  C_34
REMARK    6  A    between atoms: C_31  and  C_32
REMARK                            x       y       z     vdW  Elec       q    Type
REMARK                         _______ _______ _______ _____ _____    ______ ____
ROOT
ATOM      1  C   UNL     1      -1.303   4.553   5.062  0.00  0.00    +0.044 C 
ATOM      2  C   UNL     1      -1.852   4.606   3.660  0.00  0.00    -0.049 A 
ATOM      3  C   UNL     1      -3.039   5.284   3.436  0.00  0.00    +0.013 A 
ATOM      4  C   UNL     1      -3.575   5.356   2.161  0.00  0.00    -0.000 A 
ATOM      5  C   UNL     1      -2.856   4.713   1.135  0.00  0.00    +0.049 A 
ATOM      6  C   UNL     1      -1.670   4.037   1.366  0.00  0.00    -0.000 A 
ATOM      7  C   UNL     1      -1.144   3.972   2.639  0.00  0.00    +0.010 A 
ATOM      8  C   UNL     1      -1.256   3.515   0.028  0.00  0.00    +0.148 C 
ATOM      9  C   UNL     1       0.067   4.089  -0.393  0.00  0.00    +0.105 A 
ATOM     10  C   UNL     1       0.128   5.442  -0.797  0.00  0.00    +0.201 A 
ATOM     11  O   UNL     1      -0.864   6.152  -0.795  0.00  0.00    -0.287 OA
ATOM     12  C   UNL     1       1.444   5.960  -1.221  0.00  0.00    +0.065 A 
ATOM     13  C   UNL     1       1.605   7.279  -1.642  0.00  0.00    +0.015 A 
ATOM     14  C   UNL     1       2.850   7.721  -2.032  0.00  0.00    +0.001 A 
ATOM     15  C   UNL     1       3.936   6.859  -2.006  0.00  0.00    +0.004 A 
ATOM     16  C   UNL     1       3.788   5.553  -1.589  0.00  0.00    +0.047 A 
ATOM     17  C   UNL     1       2.539   5.085  -1.191  0.00  0.00    +0.143 A 
ATOM     18  O   UNL     1       2.386   3.815  -0.780  0.00  0.00    -0.424 OA
ATOM     19  C   UNL     1       1.195   3.333  -0.393  0.00  0.00    +0.302 A 
ATOM     20  O   UNL     1       1.146   2.039   0.002  0.00  0.00    -0.410 OA
ATOM     21  C   UNL     1      -0.017   1.368   0.010  0.00  0.00    +0.203 C 
ATOM     22  C   UNL     1      -1.209   2.014   0.019  0.00  0.00    +0.110 C 
ATOM     23  C   UNL     1      -2.344   3.991  -0.922  0.00  0.00    +0.241 C 
ATOM     24  O   UNL     1      -2.393   3.785  -2.116  0.00  0.00    -0.273 OA
ATOM     25  N   UNL     1      -3.243   4.683  -0.198  0.00  0.00    -0.260 N 
ATOM     26  C   UNL     1      -4.474   5.342  -0.651  0.00  0.00    +0.055 C 
ATOM     27  C   UNL     1      -5.194   6.005   0.484  0.00  0.00    +0.002 C 
ATOM     28  C   UNL     1      -4.815   6.028   1.751  0.00  0.00    -0.043 C 
ATOM     29  C   UNL     1      -5.657   6.744   2.775  0.00  0.00    +0.044 C 
ATOM     30  C   UNL     1      -4.120   6.395  -1.702  0.00  0.00    +0.036 C 
ATOM     31  C   UNL     1      -5.396   4.297  -1.283  0.00  0.00    +0.036 C 
ENDROOT
BRANCH  21  32
ATOM     32  N   UNL     1       0.002  -0.004   0.002  0.00  0.00    -0.328 N 
ATOM     33  H   UNL     1       0.849  -0.478  -0.009  0.00  0.00    +0.145 HD
ATOM     34  H   UNL     1      -0.831  -0.500   0.007  0.00  0.00    +0.145 HD
ENDBRANCH  21  32
BRANCH  22  35
ATOM     35  C   UNL     1      -2.427   1.261   0.024  0.00  0.00    +0.102 C 
ATOM     36  N   UNL     1      -3.394   0.664   0.029  0.00  0.00    -0.191 NA
ENDBRANCH  22  35
TORSDOF 2
