REMARK  Name = ZINC19198288
REMARK  3 active torsions:
REMARK  status: ('A' for Active; 'I' for Inactive)
REMARK    1  A    between atoms: C_6  and  C_7
REMARK    2  A    between atoms: N_9  and  N_10
REMARK    3  A    between atoms: C_11  and  C_13
REMARK                            x       y       z     vdW  Elec       q    Type
REMARK                         _______ _______ _______ _____ _____    ______ ____
ROOT
ATOM      1  N   UNL     1      -0.011   0.966   0.007  0.00  0.00    -0.228 N 
ATOM      2  C   UNL     1       1.147   1.655   0.000  0.00  0.00    +0.295 C 
ATOM      3  O   UNL     1       1.130   2.872   0.007  0.00  0.00    -0.265 OA
ATOM      4  H   UNL     1       0.004  -0.134   0.006  0.00  0.00    +0.173 HD
ENDROOT
BRANCH   2   5
ATOM      5  C   UNL     1       2.429   0.938  -0.016  0.00  0.00    +0.192 A 
ATOM      6  C   UNL     1       3.654   1.526  -0.025  0.00  0.00    +0.063 A 
ATOM      7  C   UNL     1       4.627   0.434  -0.040  0.00  0.00    +0.022 A 
ATOM      8  C   UNL     1       6.023   0.375  -0.053  0.00  0.00    +0.031 A 
ATOM      9  C   UNL     1       6.649  -0.841  -0.065  0.00  0.00    +0.042 A 
ATOM     10  C   UNL     1       5.906  -2.015  -0.064  0.00  0.00    +0.023 A 
ATOM     11  C   UNL     1       4.529  -1.976  -0.051  0.00  0.00    +0.048 A 
ATOM     12  C   UNL     1       3.870  -0.752  -0.039  0.00  0.00    +0.136 A 
ATOM     13  O   UNL     1       2.568  -0.404  -0.019  0.00  0.00    -0.450 OA
ATOM     14 CL   UNL     1       8.383  -0.917  -0.081  0.00  0.00    -0.084 Cl
ENDBRANCH   2   5
BRANCH   1  17
ATOM     15  C   UNL     1      -2.392   0.960   0.019  0.00  0.00    +0.260 C 
ATOM     16  O   UNL     1      -2.375  -0.255   0.012  0.00  0.00    -0.269 OA
ATOM     17  N   UNL     1      -1.234   1.650   0.017  0.00  0.00    -0.230 N 
ATOM     18  H   UNL     1      -1.249   2.750   0.023  0.00  0.00    +0.173 HD
BRANCH  15  24
ATOM     19  C   UNL     1      -3.704   3.077   0.042  0.00  0.00    +0.014 A 
ATOM     20  C   UNL     1      -4.910   3.745   0.047  0.00  0.00    +0.021 A 
ATOM     21  C   UNL     1      -6.098   3.034   0.048  0.00  0.00    +0.041 A 
ATOM     22  C   UNL     1      -6.083   1.649   0.040  0.00  0.00    +0.021 A 
ATOM     23  C   UNL     1      -4.883   0.970   0.030  0.00  0.00    +0.014 A 
ATOM     24  C   UNL     1      -3.681   1.681   0.029  0.00  0.00    +0.038 A 
ATOM     25 CL   UNL     1      -7.614   3.881   0.060  0.00  0.00    -0.084 Cl
ENDBRANCH  15  24
ENDBRANCH   1  17
TORSDOF 3
