REMARK  Name = ZINC48896370
REMARK  3 active torsions:
REMARK  status: ('A' for Active; 'I' for Inactive)
REMARK    1  A    between atoms: C_6  and  S_7
REMARK    2  A    between atoms: S_7  and  N_10
REMARK    3  A    between atoms: N_17  and  N_18
REMARK                            x       y       z     vdW  Elec       q    Type
REMARK                         _______ _______ _______ _____ _____    ______ ____
ROOT
ATOM      1  C   UNL     1       0.996  -0.373  -0.925  0.00  0.00    +0.048 A 
ATOM      2  C   UNL     1       2.275   0.116  -0.696  0.00  0.00    +0.038 A 
ATOM      3  C   UNL     1       2.484   1.004   0.342  0.00  0.00    +0.128 A 
ATOM      4  N   UNL     1       1.485   1.389   1.114  0.00  0.00    -0.236 NA
ATOM      5  C   UNL     1       0.252   0.944   0.927  0.00  0.00    +0.159 A 
ATOM      6  C   UNL     1      -0.031   0.049  -0.100  0.00  0.00    +0.147 A 
ATOM      7  N   UNL     1      -0.771   1.376   1.764  0.00  0.00    -0.266 N 
ATOM      8 BR   UNL     1       3.717  -0.427  -1.792  0.00  0.00    -0.049 Br
ATOM      9  H   UNL     1      -1.655   0.984   1.692  0.00  0.00    +0.167 HD
ENDROOT
BRANCH   6  10
ATOM     10  S   UNL     1      -1.673  -0.539  -0.346  0.00  0.00    +0.064 S 
ATOM     11  O   UNL     1      -1.878  -1.579   0.601  0.00  0.00    -0.153 OA
ATOM     12  O   UNL     1      -2.510   0.608  -0.410  0.00  0.00    -0.153 OA
BRANCH  10  13
ATOM     13  N   UNL     1      -1.722  -1.245  -1.843  0.00  0.00    -0.176 NA
ATOM     14  C   UNL     1      -2.040  -0.484  -3.014  0.00  0.00    +0.110 C 
ATOM     15  C   UNL     1      -3.550  -0.188  -3.139  0.00  0.00    +0.028 C 
ATOM     16  C   UNL     1      -4.423  -1.406  -2.737  0.00  0.00    +0.070 C 
ATOM     17  S   UNL     1      -3.785  -2.966  -3.338  0.00  0.00    -0.159 S 
ATOM     18  C   UNL     1      -2.648  -3.484  -2.001  0.00  0.00    +0.086 C 
ATOM     19  C   UNL     1      -1.431  -2.693  -2.023  0.00  0.00    +0.120 C 
ENDBRANCH  10  13
ENDBRANCH   6  10
BRANCH   7  20
ATOM     20  N   UNL     1      -0.530   2.353   2.689  0.00  0.00    -0.255 NA
ATOM     21  H   UNL     1      -1.361   2.561   3.221  0.00  0.00    +0.140 HD
ATOM     22  H   UNL     1       0.233   2.095   3.296  0.00  0.00    +0.140 HD
ENDBRANCH   7  20
TORSDOF 3
