REMARK  Name = ZINC13499162
REMARK  12 active torsions:
REMARK  status: ('A' for Active; 'I' for Inactive)
REMARK    1  A    between atoms: C_1  and  C_2
REMARK    2  A    between atoms: C_7  and  C_15
REMARK    3  A    between atoms: C_13  and  C_14
REMARK    4  A    between atoms: C_15  and  N_72
REMARK    5  A    between atoms: C_16  and  N_72
REMARK    6  A    between atoms: C_22  and  C_24
REMARK    7  A    between atoms: C_22  and  C_35
REMARK    8  A    between atoms: C_22  and  N_72
REMARK    9  A    between atoms: N_28  and  C_29
REMARK   10  A    between atoms: C_29  and  C_30
REMARK   11  A    between atoms: C_35  and  C_36
REMARK   12  A    between atoms: C_35  and  C_37
REMARK                            x       y       z     vdW  Elec       q    Type
REMARK                         _______ _______ _______ _____ _____    ______ ____
ROOT
ATOM      1  N   UNL     1      -0.575   1.372   2.670  0.00  0.00    +0.391 N 
ATOM      2  H   UNL     1      -0.248   1.587   3.619  0.00  0.00    -0.080 HD
ENDROOT
BRANCH   1   3
ATOM      3  C   UNL     1      -1.799   0.548   2.759  0.00  0.00    -0.067 C 
ATOM      4  C   UNL     1      -2.493   0.851   4.089  0.00  0.00    -0.015 C 
ATOM      5  C   UNL     1      -3.758  -0.001   4.209  0.00  0.00    -0.002 C 
ATOM      6  C   UNL     1      -3.381  -1.483   4.156  0.00  0.00    -0.000 C 
ATOM      7  C   UNL     1      -2.688  -1.786   2.826  0.00  0.00    -0.002 C 
ATOM      8  C   UNL     1      -1.423  -0.934   2.706  0.00  0.00    -0.015 C 
ENDBRANCH   1   3
BRANCH   1   9
ATOM      9  C   UNL     1      -0.869   2.638   1.965  0.00  0.00    -0.036 C 
BRANCH   9  16
ATOM     10  C   UNL     1      -4.235   7.733   7.096  0.00  0.00    +0.044 C 
ATOM     11  C   UNL     1      -3.396   6.863   6.196  0.00  0.00    -0.046 A 
ATOM     12  C   UNL     1      -2.015   7.002   6.199  0.00  0.00    +0.004 A 
ATOM     13  C   UNL     1      -1.236   6.223   5.391  0.00  0.00    +0.010 A 
ATOM     14  C   UNL     1      -1.835   5.278   4.553  0.00  0.00    -0.001 A 
ATOM     15  C   UNL     1      -1.031   4.427   3.673  0.00  0.00    +0.017 A 
ATOM     16  C   UNL     1      -1.667   3.529   2.882  0.00  0.00    +0.001 A 
ATOM     17  C   UNL     1      -3.074   3.428   2.909  0.00  0.00    +0.251 A 
ATOM     18  O   UNL     1      -3.626   2.617   2.186  0.00  0.00    -0.268 OA
ATOM     19  N   UNL     1      -3.821   4.201   3.717  0.00  0.00    -0.322 N 
ATOM     20  H   UNL     1      -4.786   4.103   3.715  0.00  0.00    +0.169 HD
ATOM     21  C   UNL     1      -3.236   5.134   4.546  0.00  0.00    +0.052 A 
ATOM     22  C   UNL     1      -4.008   5.938   5.379  0.00  0.00    -0.024 A 
ATOM     23  C   UNL     1      -5.508   5.797   5.386  0.00  0.00    +0.046 C 
ENDBRANCH   9  16
ENDBRANCH   1   9
BRANCH   1  24
ATOM     24  C   UNL     1       0.483   0.629   1.954  0.00  0.00    +0.006 C 
BRANCH  24  25
ATOM     25  C   UNL     1       0.056   0.332   0.540  0.00  0.00    +0.139 A 
ATOM     26  N   UNL     1      -0.743   1.057  -0.205  0.00  0.00    -0.115 NA
ATOM     27  N   UNL     1      -0.863   0.471  -1.347  0.00  0.00    -0.023 NA
ATOM     28  N   UNL     1      -0.161  -0.608  -1.349  0.00  0.00    -0.044 NA
ATOM     29  N   UNL     1       0.425  -0.726  -0.206  0.00  0.00    -0.223 N 
BRANCH  29  30
ATOM     30  C   UNL     1       1.320  -1.810   0.205  0.00  0.00    +0.221 C 
BRANCH  30  31
ATOM     31  C   UNL     1       0.515  -3.058   0.459  0.00  0.00    +0.126 A 
ATOM     32  C   UNL     1       0.203  -3.994  -0.456  0.00  0.00    +0.046 A 
ATOM     33  C   UNL     1      -0.555  -4.983   0.211  0.00  0.00    +0.041 A 
ATOM     34  C   UNL     1      -0.669  -4.589   1.492  0.00  0.00    +0.195 A 
ATOM     35  O   UNL     1      -0.019  -3.422   1.637  0.00  0.00    -0.466 OA
ENDBRANCH  30  31
ENDBRANCH  29  30
ENDBRANCH  24  25
BRANCH  24  36
ATOM     36  C   UNL     1       1.757   1.476   1.934  0.00  0.00    -0.024 C 
ATOM     37  C   UNL     1       2.899   0.666   1.316  0.00  0.00    +0.006 C 
ATOM     38  C   UNL     1       2.129   1.871   3.365  0.00  0.00    +0.006 C 
ENDBRANCH  24  36
ENDBRANCH   1  24
TORSDOF 8
