REMARK  Name = ZINC39945627
REMARK  11 active torsions:
REMARK  status: ('A' for Active; 'I' for Inactive)
REMARK    1  A    between atoms: C_6  and  C_7
REMARK    2  A    between atoms: C_7  and  C_8
REMARK    3  A    between atoms: C_7  and  O_15
REMARK    4  A    between atoms: O_15  and  C_16
REMARK    5  A    between atoms: C_16  and  C_17
REMARK    6  A    between atoms: C_17  and  C_19
REMARK    7  A    between atoms: C_17  and  O_34
REMARK    8  A    between atoms: C_19  and  N_20
REMARK    9  A    between atoms: N_20  and  C_21
REMARK   10  A    between atoms: C_21  and  C_22
REMARK   11  A    between atoms: C_22  and  N_28
REMARK                            x       y       z     vdW  Elec       q    Type
REMARK                         _______ _______ _______ _____ _____    ______ ____
ROOT
ATOM      1  C   UNL     1      -2.137  -3.527   2.380  0.00  0.00    +0.123 C 
ENDROOT
BRANCH   1   2
ATOM      2  O   UNL     1      -1.272  -3.158   3.456  0.00  0.00    -0.391 OA
ATOM      3  H   UNL     1      -1.625  -2.458   4.022  0.00  0.00    +0.210 HD
ENDBRANCH   1   2
BRANCH   1   4
ATOM      4  C   UNL     1      -2.390  -2.309   1.489  0.00  0.00    +0.190 C 
BRANCH   4   5
ATOM      5  O   UNL     1      -1.166  -1.910   0.869  0.00  0.00    -0.365 OA
BRANCH   5   6
ATOM      6  C   UNL     1      -1.293  -0.775   0.010  0.00  0.00    +0.178 C 
BRANCH   6  12
ATOM      7  C   UNL     1      -0.017   1.378   0.010  0.00  0.00    +0.009 A 
ATOM      8  C   UNL     1       1.170   2.086   0.002  0.00  0.00    +0.039 A 
ATOM      9  C   UNL     1       2.379   1.410  -0.013  0.00  0.00    +0.123 A 
ATOM     10  C   UNL     1       2.396   0.026  -0.021  0.00  0.00    +0.039 A 
ATOM     11  C   UNL     1       1.208  -0.680  -0.013  0.00  0.00    +0.009 A 
ATOM     12  C   UNL     1       0.002  -0.004   0.002  0.00  0.00    -0.014 A 
ATOM     13  F   UNL     1       3.540   2.101  -0.021  0.00  0.00    -0.205 F 
ENDBRANCH   6  12
BRANCH   6  14
ATOM     14  C   UNL     1      -1.612  -1.236  -1.389  0.00  0.00    -0.014 A 
ATOM     15  C   UNL     1      -1.073  -2.416  -1.866  0.00  0.00    +0.009 A 
ATOM     16  C   UNL     1      -1.365  -2.840  -3.149  0.00  0.00    +0.039 A 
ATOM     17  C   UNL     1      -2.198  -2.083  -3.955  0.00  0.00    +0.123 A 
ATOM     18  C   UNL     1      -2.737  -0.902  -3.475  0.00  0.00    +0.039 A 
ATOM     19  C   UNL     1      -2.448  -0.482  -2.191  0.00  0.00    +0.009 A 
ATOM     20  F   UNL     1      -2.484  -2.497  -5.209  0.00  0.00    -0.205 F 
ENDBRANCH   6  14
ENDBRANCH   5   6
ENDBRANCH   4   5
ENDBRANCH   1   4
BRANCH   1  21
ATOM     21  C   UNL     1      -3.467  -4.030   2.945  0.00  0.00    -0.049 C 
BRANCH  21  22
ATOM     22  N   UNL     1      -3.224  -5.199   3.801  0.00  0.00    +0.380 N 
ATOM     23  H   UNL     1      -2.791  -5.930   3.257  0.00  0.00    -0.086 HD
ATOM     24  H   UNL     1      -2.613  -4.939   4.561  0.00  0.00    -0.086 HD
BRANCH  22  25
ATOM     25  C   UNL     1      -4.500  -5.683   4.344  0.00  0.00    -0.095 C 
BRANCH  25  26
ATOM     26  C   UNL     1      -4.247  -6.900   5.235  0.00  0.00    -0.081 C 
ATOM     27  C   UNL     1      -5.577  -7.404   5.800  0.00  0.00    -0.014 C 
ATOM     28  C   UNL     1      -6.503  -7.799   4.649  0.00  0.00    -0.001 C 
ATOM     29  C   UNL     1      -5.847  -8.908   3.823  0.00  0.00    -0.000 C 
ATOM     30  C   UNL     1      -4.517  -8.404   3.258  0.00  0.00    -0.001 C 
ATOM     31  C   UNL     1      -3.591  -8.009   4.410  0.00  0.00    -0.014 C 
BRANCH  26  32
ATOM     32  N   UNL     1      -3.358  -6.521   6.341  0.00  0.00    +0.382 N 
ATOM     33  C   UNL     1      -3.985  -5.451   7.126  0.00  0.00    -0.078 C 
ATOM     34  C   UNL     1      -3.028  -4.996   8.231  0.00  0.00    -0.019 C 
ATOM     35  C   UNL     1      -2.710  -6.183   9.144  0.00  0.00    -0.004 C 
ATOM     36  C   UNL     1      -2.126  -7.321   8.302  0.00  0.00    -0.019 C 
ATOM     37  C   UNL     1      -3.116  -7.689   7.195  0.00  0.00    -0.078 C 
ATOM     38  H   UNL     1      -2.480  -6.191   5.967  0.00  0.00    -0.081 HD
ENDBRANCH  26  32
ENDBRANCH  25  26
ENDBRANCH  22  25
ENDBRANCH  21  22
ENDBRANCH   1  21
TORSDOF 11
