REMARK  Name = ZINC08757819
REMARK  12 active torsions:
REMARK  status: ('A' for Active; 'I' for Inactive)
REMARK    1  A    between atoms: C_1  and  C_2
REMARK    2  A    between atoms: C_2  and  N_3
REMARK    3  A    between atoms: C_5  and  C_12
REMARK    4  A    between atoms: C_13  and  C_14
REMARK    5  A    between atoms: C_13  and  N_30
REMARK    6  A    between atoms: N_16  and  C_17
REMARK    7  A    between atoms: C_17  and  C_18
REMARK    8  A    between atoms: C_18  and  C_19
REMARK    9  A    between atoms: C_26  and  C_29
REMARK   10  A    between atoms: C_31  and  C_33
REMARK   11  A    between atoms: C_38  and  O_39
REMARK   12  A    between atoms: O_39  and  C_40
REMARK                            x       y       z     vdW  Elec       q    Type
REMARK                         _______ _______ _______ _____ _____    ______ ____
ROOT
ATOM      1  C   UNL     1      -3.018   4.913   0.067  0.00  0.00    +0.038 C 
ATOM      2  C   UNL     1      -4.327   5.226   0.248  0.00  0.00    +0.097 C 
ENDROOT
BRANCH   1   5
ATOM      3  N   UNL     1      -2.717   1.371  -0.752  0.00  0.00    -0.346 N 
ATOM      4  C   UNL     1      -3.443   2.511  -0.607  0.00  0.00    +0.094 A 
ATOM      5  C   UNL     1      -2.626   3.527  -0.201  0.00  0.00    +0.002 A 
ATOM      6  C   UNL     1      -1.269   2.958  -0.101  0.00  0.00    +0.007 A 
ATOM      7  C   UNL     1      -1.390   1.605  -0.457  0.00  0.00    +0.050 A 
ATOM      8  C   UNL     1      -0.260   0.794  -0.450  0.00  0.00    +0.026 A 
ATOM      9  C   UNL     1       0.965   1.325  -0.107  0.00  0.00    +0.002 A 
ATOM     10  C   UNL     1       1.083   2.663   0.238  0.00  0.00    +0.001 A 
ATOM     11  C   UNL     1      -0.025   3.481   0.243  0.00  0.00    +0.010 A 
BRANCH   3  13
ATOM     12  C   UNL     1      -3.501  -0.794   0.071  0.00  0.00    +0.027 C 
ATOM     13  C   UNL     1      -3.267   0.077  -1.165  0.00  0.00    +0.118 C 
ENDBRANCH   3  13
ENDBRANCH   1   5
BRANCH   2  14
ATOM     14  C   UNL     1      -4.734   6.626   0.376  0.00  0.00    +0.258 C 
ATOM     15  O   UNL     1      -3.899   7.510   0.320  0.00  0.00    -0.269 OA
ATOM     16  N   UNL     1      -6.033   6.936   0.555  0.00  0.00    -0.310 N 
ATOM     17  H   UNL     1      -6.699   6.231   0.600  0.00  0.00    +0.149 HD
BRANCH  16  18
ATOM     18  C   UNL     1      -6.441   8.337   0.683  0.00  0.00    +0.109 C 
BRANCH  18  19
ATOM     19  C   UNL     1      -7.957   8.412   0.877  0.00  0.00    +0.056 C 
BRANCH  19  20
ATOM     20  C   UNL     1      -8.376   9.853   1.009  0.00  0.00    -0.021 A 
ATOM     21  C   UNL     1      -8.554  10.532   2.153  0.00  0.00    +0.087 A 
ATOM     22  N   UNL     1      -8.934  11.817   1.879  0.00  0.00    -0.360 N 
ATOM     23  H   UNL     1      -9.121  12.497   2.545  0.00  0.00    +0.165 HD
ATOM     24  C   UNL     1      -9.013  12.002   0.517  0.00  0.00    +0.047 A 
ATOM     25  C   UNL     1      -8.661  10.782  -0.088  0.00  0.00    +0.003 A 
ATOM     26  C   UNL     1      -8.658  10.669  -1.480  0.00  0.00    +0.013 A 
ATOM     27  C   UNL     1      -8.987  11.751  -2.248  0.00  0.00    -0.050 A 
ATOM     28  C   UNL     1      -9.329  12.959  -1.656  0.00  0.00    +0.005 A 
ATOM     29  C   UNL     1      -9.344  13.090  -0.284  0.00  0.00    +0.026 A 
ATOM     30  C   UNL     1      -8.978  11.631  -3.750  0.00  0.00    +0.044 C 
ENDBRANCH  19  20
ENDBRANCH  18  19
ENDBRANCH  16  18
ENDBRANCH   2  14
BRANCH   2  31
ATOM     31  N   UNL     1      -5.289   4.207   0.313  0.00  0.00    -0.277 N 
ATOM     32  C   UNL     1      -6.291   4.168  -0.588  0.00  0.00    +0.252 C 
ATOM     33  O   UNL     1      -6.317   4.969  -1.503  0.00  0.00    -0.270 OA
ATOM     34  H   UNL     1      -5.232   3.530   1.005  0.00  0.00    +0.155 HD
BRANCH  32  35
ATOM     35  C   UNL     1      -7.356   3.155  -0.463  0.00  0.00    +0.079 A 
ATOM     36  C   UNL     1      -7.393   2.308   0.648  0.00  0.00    +0.017 A 
ATOM     37  C   UNL     1      -8.393   1.367   0.760  0.00  0.00    +0.001 A 
ATOM     38  C   UNL     1      -9.357   1.249  -0.228  0.00  0.00    +0.004 A 
ATOM     39  C   UNL     1      -9.328   2.076  -1.333  0.00  0.00    +0.046 A 
ATOM     40  C   UNL     1      -8.332   3.032  -1.461  0.00  0.00    +0.132 A 
BRANCH  40  41
ATOM     41  O   UNL     1      -8.303   3.845  -2.546  0.00  0.00    -0.494 OA
ATOM     42  C   UNL     1      -9.391   3.738  -3.467  0.00  0.00    +0.277 C 
ENDBRANCH  40  41
ENDBRANCH  32  35
ENDBRANCH   2  31
TORSDOF 9
