REMARK  Name = ZINC13721920
REMARK  8 active torsions:
REMARK  status: ('A' for Active; 'I' for Inactive)
REMARK    1  A    between atoms: C_1  and  C_2
REMARK    2  A    between atoms: C_2  and  C_4
REMARK    3  A    between atoms: C_2  and  N_16
REMARK    4  A    between atoms: C_17  and  C_19
REMARK    5  A    between atoms: C_23  and  O_31
REMARK    6  A    between atoms: C_24  and  O_29
REMARK    7  A    between atoms: O_29  and  C_30
REMARK    8  A    between atoms: O_31  and  C_32
REMARK                            x       y       z     vdW  Elec       q    Type
REMARK                         _______ _______ _______ _____ _____    ______ ____
ROOT
ATOM      1  N   UNL     1      -1.372  -0.511   0.012  0.00  0.00    -0.299 N 
ATOM      2  C   UNL     1      -2.051  -0.643  -1.145  0.00  0.00    +0.261 C 
ATOM      3  O   UNL     1      -1.522  -0.340  -2.198  0.00  0.00    -0.269 OA
ATOM      4  H   UNL     1      -1.794  -0.752   0.852  0.00  0.00    +0.150 HD
ENDROOT
BRANCH   2   5
ATOM      5  C   UNL     1      -3.429  -1.151  -1.134  0.00  0.00    +0.103 A 
ATOM      6  C   UNL     1      -4.211  -1.333  -2.232  0.00  0.00    +0.041 A 
ATOM      7  C   UNL     1      -5.459  -1.836  -1.794  0.00  0.00    +0.004 A 
ATOM      8  C   UNL     1      -6.635  -2.204  -2.466  0.00  0.00    +0.059 A 
ATOM      9  C   UNL     1      -7.706  -2.667  -1.756  0.00  0.00    +0.162 A 
ATOM     10  C   UNL     1      -7.641  -2.777  -0.363  0.00  0.00    +0.163 A 
ATOM     11  C   UNL     1      -6.492  -2.419   0.314  0.00  0.00    +0.075 A 
ATOM     12  C   UNL     1      -5.390  -1.946  -0.392  0.00  0.00    +0.051 A 
ATOM     13  N   UNL     1      -4.137  -1.527  -0.007  0.00  0.00    -0.350 N 
ATOM     14  H   UNL     1      -3.805  -1.498   0.904  0.00  0.00    +0.166 HD
BRANCH  10  15
ATOM     15  O   UNL     1      -8.716  -3.238   0.328  0.00  0.00    -0.491 OA
ATOM     16  C   UNL     1      -8.584  -3.327   1.748  0.00  0.00    +0.277 C 
ENDBRANCH  10  15
BRANCH   9  17
ATOM     17  O   UNL     1      -8.846  -3.023  -2.409  0.00  0.00    -0.491 OA
ATOM     18  C   UNL     1      -8.848  -2.886  -3.831  0.00  0.00    +0.277 C 
ENDBRANCH   9  17
ENDBRANCH   2   5
BRANCH   1  20
ATOM     19  C   UNL     1      -0.019   1.526   0.010  0.00  0.00    +0.038 C 
ATOM     20  C   UNL     1       0.002  -0.004   0.002  0.00  0.00    +0.156 C 
BRANCH  20  21
ATOM     21  C   UNL     1       0.731  -0.503   1.223  0.00  0.00    +0.239 C 
ATOM     22  O   UNL     1       0.159  -1.213   2.023  0.00  0.00    -0.273 OA
ATOM     23  N   UNL     1       2.019  -0.161   1.426  0.00  0.00    -0.263 N 
ATOM     24  C   UNL     1       2.689  -0.620   2.548  0.00  0.00    +0.165 A 
ATOM     25  N   UNL     1       2.246  -1.393   3.513  0.00  0.00    -0.225 NA
ATOM     26  C   UNL     1       3.018  -1.765   4.557  0.00  0.00    +0.080 A 
ATOM     27  C   UNL     1       2.667  -2.586   5.653  0.00  0.00    +0.029 A 
ATOM     28  C   UNL     1       3.578  -2.868   6.637  0.00  0.00    +0.002 A 
ATOM     29  C   UNL     1       4.870  -2.362   6.595  0.00  0.00    +0.001 A 
ATOM     30  C   UNL     1       5.247  -1.556   5.537  0.00  0.00    +0.017 A 
ATOM     31  C   UNL     1       4.341  -1.268   4.548  0.00  0.00    +0.041 A 
ATOM     32  S   UNL     1       4.378  -0.318   3.047  0.00  0.00    -0.052 S 
ATOM     33  H   UNL     1       2.476   0.406   0.786  0.00  0.00    +0.157 HD
ENDBRANCH  20  21
ENDBRANCH   1  20
TORSDOF 5
