REMARK  Name = ZINC39532127
REMARK  11 active torsions:
REMARK  status: ('A' for Active; 'I' for Inactive)
REMARK    1  A    between atoms: C_1  and  C_2
REMARK    2  A    between atoms: C_2  and  C_3
REMARK    3  A    between atoms: C_6  and  C_9
REMARK    4  A    between atoms: C_9  and  C_11
REMARK    5  A    between atoms: C_9  and  N_16
REMARK    6  A    between atoms: C_11  and  N_12
REMARK    7  A    between atoms: N_12  and  O_13
REMARK    8  A    between atoms: O_13  and  C_14
REMARK    9  A    between atoms: C_14  and  C_15
REMARK   10  A    between atoms: C_20  and  C_23
REMARK   11  A    between atoms: C_28  and  O_29
REMARK                            x       y       z     vdW  Elec       q    Type
REMARK                         _______ _______ _______ _____ _____    ______ ____
ROOT
ATOM      1  N   UNL     1       3.997  -1.165  -4.772  0.00  0.00    -0.297 NA
ATOM      2  C   UNL     1       4.427  -0.893  -6.150  0.00  0.00    +0.066 C 
ATOM      3  C   UNL     1       5.742  -0.110  -6.126  0.00  0.00    -0.066 C 
ATOM      4  N   UNL     1       6.765  -0.892  -5.420  0.00  0.00    +0.385 N 
ATOM      5  C   UNL     1       6.332  -1.135  -4.038  0.00  0.00    -0.023 C 
ATOM      6  C   UNL     1       5.022  -1.927  -4.045  0.00  0.00    +0.074 C 
ATOM      7  H   UNL     1       6.897  -1.775  -5.891  0.00  0.00    -0.085 HD
ATOM      8  H   UNL     1       7.635  -0.381  -5.415  0.00  0.00    -0.085 HD
ENDROOT
BRANCH   5   9
ATOM      9  C   UNL     1       7.391  -1.922  -3.310  0.00  0.00    -0.019 A 
ATOM     10  C   UNL     1       8.333  -2.638  -4.024  0.00  0.00    +0.005 A 
ATOM     11  C   UNL     1       9.304  -3.361  -3.357  0.00  0.00    +0.000 A 
ATOM     12  C   UNL     1       9.337  -3.369  -1.975  0.00  0.00    +0.004 A 
ATOM     13  C   UNL     1       8.398  -2.654  -1.256  0.00  0.00    +0.045 A 
ATOM     14  C   UNL     1       7.425  -1.924  -1.924  0.00  0.00    +0.118 A 
BRANCH  14  15
ATOM     15  O   UNL     1       6.503  -1.215  -1.219  0.00  0.00    -0.507 OA
ATOM     16  H   UNL     1       5.704  -1.715  -1.004  0.00  0.00    +0.292 HD
ENDBRANCH  14  15
ENDBRANCH   5   9
BRANCH   1  17
ATOM     17  C   UNL     1       2.707  -1.868  -4.752  0.00  0.00    +0.103 C 
BRANCH  17  21
ATOM     18  C   UNL     1       0.435  -0.584  -1.371  0.00  0.00    -0.048 A 
ATOM     19  C   UNL     1      -0.172  -0.699  -2.607  0.00  0.00    +0.004 A 
ATOM     20  C   UNL     1       0.563  -1.115  -3.702  0.00  0.00    +0.005 A 
ATOM     21  C   UNL     1       1.905  -1.414  -3.559  0.00  0.00    -0.029 A 
ATOM     22  C   UNL     1       2.512  -1.298  -2.323  0.00  0.00    +0.005 A 
ATOM     23  C   UNL     1       1.778  -0.878  -1.229  0.00  0.00    +0.004 A 
BRANCH  18  25
ATOM     24  C   UNL     1      -0.306   1.394  -0.072  0.00  0.00    +0.009 C 
ATOM     25  C   UNL     1      -0.367  -0.131  -0.178  0.00  0.00    +0.032 C 
ENDBRANCH  18  25
ENDBRANCH  17  21
BRANCH  17  26
ATOM     26  C   UNL     1       2.949  -3.376  -4.660  0.00  0.00    +0.134 C 
BRANCH  26  27
ATOM     27  N   UNL     1       3.782  -3.808  -5.790  0.00  0.00    -0.199 NA
ATOM     28  H   UNL     1       3.361  -3.549  -6.670  0.00  0.00    +0.154 HD
BRANCH  27  29
ATOM     29  O   UNL     1       4.035  -5.248  -5.735  0.00  0.00    -0.300 OA
BRANCH  29  30
ATOM     30  C   UNL     1       4.841  -5.739  -6.808  0.00  0.00    +0.182 C 
ATOM     31  C   UNL     1       5.039  -7.247  -6.649  0.00  0.00    +0.036 C 
ENDBRANCH  29  30
ENDBRANCH  27  29
ENDBRANCH  26  27
ENDBRANCH  17  26
ENDBRANCH   1  17
TORSDOF 9
