REMARK  Name = ZINC49122958
REMARK  5 active torsions:
REMARK  status: ('A' for Active; 'I' for Inactive)
REMARK    1  A    between atoms: C_4  and  N_8
REMARK    2  A    between atoms: N_8  and  S_9
REMARK    3  A    between atoms: S_9  and  C_12
REMARK    4  A    between atoms: C_15  and  C_17
REMARK    5  A    between atoms: C_17  and  N_18
REMARK                            x       y       z     vdW  Elec       q    Type
REMARK                         _______ _______ _______ _____ _____    ______ ____
ROOT
ATOM      1  S   UNL     1       3.645  -2.306  -0.046  0.00  0.00    +0.098 S 
ATOM      2  O   UNL     1       3.113  -2.727   1.202  0.00  0.00    -0.148 OA
ATOM      3  O   UNL     1       3.088  -2.714  -1.288  0.00  0.00    -0.148 OA
ENDROOT
BRANCH   1   4
ATOM      4  C   UNL     1       5.336  -2.802  -0.066  0.00  0.00    +0.148 A 
ATOM      5  C   UNL     1       6.164  -3.053   0.977  0.00  0.00    +0.037 A 
ATOM      6  C   UNL     1       7.468  -3.434   0.721  0.00  0.00    +0.011 A 
ATOM      7  C   UNL     1       7.880  -3.545  -0.566  0.00  0.00    -0.026 A 
ATOM      8  S   UNL     1       6.400  -3.111  -1.466  0.00  0.00    -0.075 S 
BRANCH   7   9
ATOM      9  C   UNL     1       9.233  -3.939  -1.099  0.00  0.00    -0.043 C 
BRANCH   9  10
ATOM     10  N   UNL     1       9.283  -5.396  -1.281  0.00  0.00    +0.381 N 
ATOM     11  H   UNL     1       9.124  -5.852  -0.395  0.00  0.00    -0.090 HD
ATOM     12  H   UNL     1       8.569  -5.677  -1.937  0.00  0.00    -0.090 HD
ATOM     13  H   UNL     1      10.189  -5.660  -1.638  0.00  0.00    -0.090 HD
ENDBRANCH   9  10
ENDBRANCH   7   9
ENDBRANCH   1   4
BRANCH   1  14
ATOM     14  N   UNL     1       3.621  -0.650  -0.037  0.00  0.00    -0.096 NA
BRANCH  14  18
ATOM     15  C   UNL     1      -0.017   1.379   0.010  0.00  0.00    +0.016 A 
ATOM     16  C   UNL     1       1.170   2.090   0.002  0.00  0.00    +0.018 A 
ATOM     17  C   UNL     1       2.378   1.420  -0.013  0.00  0.00    +0.042 A 
ATOM     18  C   UNL     1       2.400   0.030  -0.021  0.00  0.00    +0.089 A 
ATOM     19  C   UNL     1       1.208  -0.680  -0.013  0.00  0.00    +0.043 A 
ATOM     20  C   UNL     1       0.002  -0.004   0.002  0.00  0.00    +0.020 A 
ATOM     21 BR   UNL     1      -1.623  -0.971   0.013  0.00  0.00    -0.050 Br
ATOM     22 BR   UNL     1       3.999   2.393  -0.025  0.00  0.00    -0.048 Br
ENDBRANCH  14  18
ENDBRANCH   1  14
TORSDOF 5
