REMARK  Name = ZINC04159408
REMARK  5 active torsions:
REMARK  status: ('A' for Active; 'I' for Inactive)
REMARK    1  A    between atoms: C_4  and  C_7
REMARK    2  A    between atoms: C_8  and  C_9
REMARK    3  A    between atoms: N_10  and  N_11
REMARK    4  A    between atoms: C_12  and  C_14
REMARK    5  A    between atoms: C_16  and  C_20
REMARK                            x       y       z     vdW  Elec       q    Type
REMARK                         _______ _______ _______ _____ _____    ______ ____
ROOT
ATOM      1  N   UNL     1       3.450   2.498  -0.017  0.00  0.00    -0.202 N 
ATOM      2  C   UNL     1       2.495   1.546  -0.013  0.00  0.00    +0.281 C 
ATOM      3  O   UNL     1       2.808   0.371  -0.022  0.00  0.00    -0.267 OA
ATOM      4  H   UNL     1       3.200   3.435  -0.010  0.00  0.00    +0.178 HD
ENDROOT
BRANCH   2   5
ATOM      5  C   UNL     1       1.075   1.929   0.002  0.00  0.00    +0.122 A 
ATOM      6  C   UNL     1      -0.013   1.076   0.008  0.00  0.00    +0.062 A 
ATOM      7  C   UNL     1      -1.142   1.914   0.017  0.00  0.00    +0.093 A 
ATOM      8  N   UNL     1      -0.714   3.159   0.026  0.00  0.00    -0.173 NA
ATOM      9  N   UNL     1       0.570   3.199   0.014  0.00  0.00    -0.272 N 
ATOM     10  H   UNL     1       1.118   4.036   0.013  0.00  0.00    +0.189 HD
BRANCH   7  11
ATOM     11  C   UNL     1      -2.560   1.475   0.020  0.00  0.00    +0.002 A 
ATOM     12  C   UNL     1      -2.871   0.117   0.008  0.00  0.00    +0.010 A 
ATOM     13  C   UNL     1      -4.191  -0.286   0.017  0.00  0.00    +0.001 A 
ATOM     14  C   UNL     1      -5.205   0.655   0.025  0.00  0.00    +0.000 A 
ATOM     15  C   UNL     1      -4.901   2.005   0.032  0.00  0.00    +0.001 A 
ATOM     16  C   UNL     1      -3.585   2.419   0.030  0.00  0.00    +0.010 A 
ENDBRANCH   7  11
ENDBRANCH   2   5
BRANCH   1  18
ATOM     17  C   UNL     1       5.725   3.053  -0.035  0.00  0.00    +0.130 C 
ATOM     18  N   UNL     1       4.802   2.133  -0.032  0.00  0.00    -0.188 NA
BRANCH  17  20
ATOM     19  C   UNL     1       8.049   3.636  -0.054  0.00  0.00    +0.009 C 
ATOM     20  C   UNL     1       7.094   2.684  -0.050  0.00  0.00    +0.022 C 
BRANCH  19  24
ATOM     21  C   UNL     1      12.144   2.532  -0.097  0.00  0.00    +0.000 A 
ATOM     22  C   UNL     1      11.792   3.870  -0.087  0.00  0.00    +0.001 A 
ATOM     23  C   UNL     1      10.463   4.237  -0.074  0.00  0.00    +0.008 A 
ATOM     24  C   UNL     1       9.470   3.253  -0.069  0.00  0.00    -0.025 A 
ATOM     25  C   UNL     1       9.834   1.903  -0.074  0.00  0.00    +0.008 A 
ATOM     26  C   UNL     1      11.167   1.552  -0.093  0.00  0.00    +0.001 A 
ENDBRANCH  19  24
ENDBRANCH  17  20
ENDBRANCH   1  18
TORSDOF 5
