REMARK  Name = ZINC39354843
REMARK  8 active torsions:
REMARK  status: ('A' for Active; 'I' for Inactive)
REMARK    1  A    between atoms: C_1  and  C_2
REMARK    2  A    between atoms: C_4  and  C_8
REMARK    3  A    between atoms: N_10  and  C_11
REMARK    4  A    between atoms: N_21  and  C_22
REMARK    5  A    between atoms: C_25  and  C_28
REMARK    6  A    between atoms: C_28  and  C_29
REMARK    7  A    between atoms: C_28  and  C_30
REMARK    8  A    between atoms: C_28  and  C_31
REMARK                            x       y       z     vdW  Elec       q    Type
REMARK                         _______ _______ _______ _____ _____    ______ ____
ROOT
ATOM      1  C   UNL     1      -2.655  -4.143   2.468  0.00  0.00    +0.102 C 
ATOM      2  C   UNL     1      -3.267  -3.131   3.451  0.00  0.00    +0.027 C 
ATOM      3  C   UNL     1      -3.924  -3.865   4.617  0.00  0.00    +0.004 C 
ATOM      4  C   UNL     1      -5.099  -4.725   4.139  0.00  0.00    +0.029 C 
ATOM      5  C   UNL     1      -4.553  -5.832   3.233  0.00  0.00    +0.123 C 
ATOM      6  C   UNL     1      -3.736  -5.147   2.147  0.00  0.00    -0.013 C 
ATOM      7  C   UNL     1      -4.167  -5.578   0.994  0.00  0.00    +0.091 C 
ATOM      8  N   UNL     1      -5.243  -6.439   1.141  0.00  0.00    -0.271 N 
ATOM      9  N   UNL     1      -5.621  -6.526   2.509  0.00  0.00    -0.246 N 
ATOM     10  H   UNL     1      -5.675  -6.917   0.416  0.00  0.00    +0.169 HD
ENDROOT
BRANCH   9  11
ATOM     11  C   UNL     1      -6.755  -7.136   3.052  0.00  0.00    +0.048 A 
ATOM     12  C   UNL     1      -7.756  -7.612   2.216  0.00  0.00    +0.025 A 
ATOM     13  C   UNL     1      -8.876  -8.215   2.756  0.00  0.00    +0.006 A 
ATOM     14  C   UNL     1      -9.000  -8.343   4.127  0.00  0.00    -0.042 A 
ATOM     15  C   UNL     1      -8.005  -7.869   4.962  0.00  0.00    +0.006 A 
ATOM     16  C   UNL     1      -6.880  -7.271   4.428  0.00  0.00    +0.025 A 
BRANCH  14  17
ATOM     17  C   UNL     1     -10.223  -9.001   4.713  0.00  0.00    -0.013 C 
ATOM     18  C   UNL     1     -10.327 -10.437   4.195  0.00  0.00    +0.015 C 
ATOM     19  C   UNL     1     -10.113  -9.015   6.239  0.00  0.00    +0.015 C 
ATOM     20  C   UNL     1     -11.471  -8.217   4.299  0.00  0.00    +0.015 C 
ENDBRANCH  14  17
ENDBRANCH   9  11
BRANCH   1  23
ATOM     21  C   UNL     1      -1.002  -2.899   1.180  0.00  0.00    +0.244 C 
ATOM     22  O   UNL     1      -0.255  -2.961   2.134  0.00  0.00    -0.273 OA
ATOM     23  N   UNL     1      -2.226  -3.459   1.246  0.00  0.00    -0.307 N 
ATOM     24  H   UNL     1      -2.824  -3.410   0.483  0.00  0.00    +0.149 HD
BRANCH  21  28
ATOM     25  C   UNL     1      -0.125   1.505  -0.210  0.00  0.00    +0.067 C 
ATOM     26  C   UNL     1      -0.074  -0.000  -0.152  0.00  0.00    +0.059 C 
ATOM     27  C   UNL     1      -1.146  -0.795  -0.142  0.00  0.00    +0.035 C 
ATOM     28  C   UNL     1      -0.562  -2.195  -0.078  0.00  0.00    +0.238 C 
ATOM     29  N   UNL     1       0.890  -1.948  -0.059  0.00  0.00    -0.170 NA
ATOM     30  N   UNL     1       1.064  -0.728  -0.108  0.00  0.00    -0.159 NA
ENDBRANCH  21  28
ENDBRANCH   1  23
TORSDOF 4
