REMARK  Name = ZINC62378035
REMARK  2 active torsions:
REMARK  status: ('A' for Active; 'I' for Inactive)
REMARK    1  A    between atoms: C_3  and  N_21
REMARK    2  A    between atoms: C_6  and  N_7
REMARK                            x       y       z     vdW  Elec       q    Type
REMARK                         _______ _______ _______ _____ _____    ______ ____
ROOT
ATOM      1  N   UNL     1      -1.206  -0.716   0.013  0.00  0.00    -0.269 N 
ATOM      2  C   UNL     1      -1.174  -2.062   0.082  0.00  0.00    +0.307 C 
ATOM      3  O   UNL     1      -0.113  -2.638   0.226  0.00  0.00    -0.252 OA
ATOM      4  N   UNL     1      -2.318  -2.769  -0.009  0.00  0.00    -0.282 N 
ATOM      5  C   UNL     1      -3.559  -2.052  -0.087  0.00  0.00    +0.113 C 
ATOM      6  C   UNL     1      -4.580  -2.741  -0.940  0.00  0.00    +0.007 C 
ATOM      7  C   UNL     1      -4.012  -3.235  -2.260  0.00  0.00    +0.008 C 
ATOM      8  C   UNL     1      -3.408  -4.624  -2.197  0.00  0.00    -0.009 C 
ATOM      9  C   UNL     1      -4.370  -5.612  -1.531  0.00  0.00    +0.007 C 
ATOM     10  C   UNL     1      -4.649  -5.091  -0.119  0.00  0.00    -0.009 C 
ATOM     11  C   UNL     1      -5.416  -3.773  -0.237  0.00  0.00    +0.008 C 
ATOM     12  C   UNL     1      -3.373  -4.915   0.672  0.00  0.00    +0.026 C 
ATOM     13  C   UNL     1      -2.235  -4.218  -0.028  0.00  0.00    +0.078 C 
ATOM     14  C   UNL     1      -2.071  -4.677  -1.472  0.00  0.00    +0.026 C 
ATOM     15  H   UNL     1      -2.057  -0.251   0.008  0.00  0.00    +0.156 HD
ENDROOT
BRANCH   1  21
ATOM     16  C   UNL     1       0.073   1.266   0.536  0.00  0.00    +0.025 A 
ATOM     17  C   UNL     1       1.252   1.982   0.472  0.00  0.00    +0.025 A 
ATOM     18  C   UNL     1       2.354   1.447  -0.180  0.00  0.00    +0.036 A 
ATOM     19  C   UNL     1       2.272   0.192  -0.768  0.00  0.00    +0.025 A 
ATOM     20  C   UNL     1       1.093  -0.524  -0.705  0.00  0.00    +0.025 A 
ATOM     21  C   UNL     1      -0.010   0.011  -0.052  0.00  0.00    +0.035 A 
BRANCH  18  22
ATOM     22  N   UNL     1       3.550   2.173  -0.245  0.00  0.00    -0.271 N 
ATOM     23  C   UNL     1       4.804   1.657  -0.807  0.00  0.00    +0.114 C 
ATOM     24  C   UNL     1       5.683   2.900  -1.065  0.00  0.00    +0.029 C 
ATOM     25  C   UNL     1       5.114   3.907  -0.039  0.00  0.00    +0.098 C 
ATOM     26  C   UNL     1       3.696   3.436   0.194  0.00  0.00    +0.220 C 
ATOM     27  O   UNL     1       2.818   4.099   0.704  0.00  0.00    -0.275 OA
ENDBRANCH  18  22
ENDBRANCH   1  21
TORSDOF 2
