REMARK  Name = ZINC25079860
REMARK  13 active torsions:
REMARK  status: ('A' for Active; 'I' for Inactive)
REMARK    1  A    between atoms: C_1  and  C_2
REMARK    2  A    between atoms: C_2  and  C_3
REMARK    3  A    between atoms: C_2  and  C_4
REMARK    4  A    between atoms: C_4  and  C_6
REMARK    5  A    between atoms: C_4  and  N_22
REMARK    6  A    between atoms: N_8  and  C_9
REMARK    7  A    between atoms: C_9  and  C_10
REMARK    8  A    between atoms: C_10  and  C_12
REMARK    9  A    between atoms: C_10  and  N_19
REMARK   10  A    between atoms: C_12  and  C_13
REMARK   11  A    between atoms: N_19  and  C_20
REMARK   12  A    between atoms: N_19  and  C_21
REMARK   13  A    between atoms: C_23  and  C_25
REMARK                            x       y       z     vdW  Elec       q    Type
REMARK                         _______ _______ _______ _____ _____    ______ ____
ROOT
ATOM      1  C   UNL     1      -4.147  -5.167   1.153  0.00  0.00    +0.234 C 
ATOM      2  O   UNL     1      -3.082  -5.587   0.753  0.00  0.00    -0.274 OA
ATOM      3  N   UNL     1      -5.295  -5.740   0.741  0.00  0.00    -0.315 N 
ATOM      4  H   UNL     1      -6.256  -5.411   1.163  0.00  0.00    +0.149 HD
ENDROOT
BRANCH   1   5
ATOM      5  C   UNL     1      -4.186  -4.004   2.111  0.00  0.00    +0.162 C 
BRANCH   5   6
ATOM      6  N   UNL     1      -2.903  -3.299   2.075  0.00  0.00    -0.300 N 
ATOM      7  C   UNL     1      -2.839  -1.997   2.421  0.00  0.00    +0.246 C 
ATOM      8  O   UNL     1      -3.847  -1.409   2.762  0.00  0.00    -0.270 OA
ATOM      9  H   UNL     1      -1.991  -3.831   1.767  0.00  0.00    +0.150 HD
BRANCH   7  10
ATOM     10  C   UNL     1      -1.545  -1.286   2.386  0.00  0.00    +0.055 A 
ATOM     11  C   UNL     1      -0.385  -1.959   1.995  0.00  0.00    +0.016 A 
ATOM     12  C   UNL     1       0.819  -1.289   1.959  0.00  0.00    +0.021 A 
ATOM     13  C   UNL     1       0.882   0.049   2.314  0.00  0.00    +0.042 A 
ATOM     14  C   UNL     1      -0.262   0.721   2.708  0.00  0.00    +0.040 A 
ATOM     15  C   UNL     1      -1.475   0.061   2.748  0.00  0.00    +0.054 A 
ATOM     16 CL   UNL     1      -2.909   0.906   3.242  0.00  0.00    -0.083 Cl
ATOM     17 CL   UNL     1       2.402   0.885   2.267  0.00  0.00    -0.083 Cl
ENDBRANCH   7  10
ENDBRANCH   5   6
BRANCH   5  19
ATOM     18  C   UNL     1      -3.259  -5.365   3.989  0.00  0.00    +0.009 C 
ATOM     19  C   UNL     1      -4.447  -4.519   3.528  0.00  0.00    +0.012 C 
ATOM     20  C   UNL     1      -4.627  -3.332   4.476  0.00  0.00    +0.009 C 
ENDBRANCH   5  19
ENDBRANCH   1   5
BRANCH   3  21
ATOM     21  C   UNL     1      -5.263  -6.801  -0.269  0.00  0.00    +0.089 C 
BRANCH  21  22
ATOM     22  C   UNL     1      -6.694  -7.164  -0.672  0.00  0.00    -0.048 C 
BRANCH  22  23
ATOM     23  N   UNL     1      -7.310  -6.026  -1.367  0.00  0.00    +0.379 N 
ATOM     24  C   UNL     1      -7.637  -4.947  -0.425  0.00  0.00    -0.096 C 
ATOM     25  C   UNL     1      -6.443  -5.537  -2.447  0.00  0.00    -0.096 C 
ATOM     26  H   UNL     1      -8.249  -6.375  -1.821  0.00  0.00    -0.082 HD
ENDBRANCH  22  23
BRANCH  22  27
ATOM     27  C   UNL     1      -6.668  -8.377  -1.603  0.00  0.00    +0.021 C 
BRANCH  27  28
ATOM     28  C   UNL     1      -8.080  -8.821  -1.889  0.00  0.00    -0.049 A 
ATOM     29  C   UNL     1      -8.730  -9.667  -1.010  0.00  0.00    +0.003 A 
ATOM     30  C   UNL     1     -10.027 -10.070  -1.270  0.00  0.00    +0.000 A 
ATOM     31  C   UNL     1     -10.669  -9.635  -2.414  0.00  0.00    +0.000 A 
ATOM     32  C   UNL     1     -10.018  -8.793  -3.295  0.00  0.00    +0.000 A 
ATOM     33  C   UNL     1      -8.723  -8.386  -3.033  0.00  0.00    +0.003 A 
ENDBRANCH  27  28
ENDBRANCH  22  27
ENDBRANCH  21  22
ENDBRANCH   3  21
TORSDOF 9
