REMARK  Name = ZINC14357533
REMARK  6 active torsions:
REMARK  status: ('A' for Active; 'I' for Inactive)
REMARK    1  A    between atoms: C_7  and  C_15
REMARK    2  A    between atoms: N_17  and  N_18
REMARK    3  A    between atoms: C_19  and  C_21
REMARK    4  A    between atoms: C_24  and  C_27
REMARK    5  A    between atoms: C_27  and  S_28
REMARK    6  A    between atoms: S_28  and  C_29
REMARK                            x       y       z     vdW  Elec       q    Type
REMARK                         _______ _______ _______ _____ _____    ______ ____
ROOT
ATOM      1  N   UNL     1       0.002  -0.004   0.002  0.00  0.00    -0.230 N 
ATOM      2  C   UNL     1      -1.156  -0.694   0.009  0.00  0.00    +0.260 C 
ATOM      3  O   UNL     1      -2.217  -0.100   0.023  0.00  0.00    -0.269 OA
ATOM      4  H   UNL     1       0.849  -0.478  -0.009  0.00  0.00    +0.173 HD
ENDROOT
BRANCH   2   5
ATOM      5  C   UNL     1      -1.136  -2.172   0.001  0.00  0.00    +0.038 A 
ATOM      6  C   UNL     1       0.081  -2.856  -0.020  0.00  0.00    +0.013 A 
ATOM      7  C   UNL     1       0.092  -4.236  -0.022  0.00  0.00    +0.005 A 
ATOM      8  C   UNL     1      -1.098  -4.941  -0.015  0.00  0.00    -0.037 A 
ATOM      9  C   UNL     1      -2.307  -4.269   0.001  0.00  0.00    +0.005 A 
ATOM     10  C   UNL     1      -2.333  -2.889   0.009  0.00  0.00    +0.013 A 
BRANCH   8  11
ATOM     11  C   UNL     1      -1.078  -6.448  -0.023  0.00  0.00    +0.112 C 
BRANCH  11  12
ATOM     12  S   UNL     1      -1.086  -7.041  -1.733  0.00  0.00    -0.083 S 
BRANCH  12  13
ATOM     13  C   UNL     1      -1.059  -8.781  -1.454  0.00  0.00    +0.168 A 
ATOM     14  N   UNL     1      -1.056  -9.734  -2.433  0.00  0.00    -0.333 N 
ATOM     15  H   UNL     1      -1.067  -9.570  -3.419  0.00  0.00    +0.168 HD
ATOM     16  C   UNL     1      -1.033 -10.968  -1.804  0.00  0.00    +0.067 A 
ATOM     17  C   UNL     1      -1.019 -12.278  -2.259  0.00  0.00    +0.028 A 
ATOM     18  C   UNL     1      -0.996 -13.319  -1.353  0.00  0.00    +0.002 A 
ATOM     19  C   UNL     1      -0.986 -13.064   0.010  0.00  0.00    +0.002 A 
ATOM     20  C   UNL     1      -1.000 -11.770   0.479  0.00  0.00    +0.030 A 
ATOM     21  C   UNL     1      -1.024 -10.704  -0.425  0.00  0.00    +0.090 A 
ATOM     22  N   UNL     1      -1.035  -9.354  -0.275  0.00  0.00    -0.222 NA
ENDBRANCH  12  13
ENDBRANCH  11  12
ENDBRANCH   8  11
ENDBRANCH   2   5
BRANCH   1  25
ATOM     23  C   UNL     1       1.141   2.087   0.002  0.00  0.00    +0.241 C 
ATOM     24  O   UNL     1       2.199   1.494  -0.011  0.00  0.00    -0.273 OA
ATOM     25  N   UNL     1      -0.017   1.397   0.010  0.00  0.00    -0.233 N 
ATOM     26  H   UNL     1      -0.864   1.870   0.016  0.00  0.00    +0.173 HD
BRANCH  23  33
ATOM     27  C   UNL     1       4.559   4.566   1.212  0.00  0.00    +0.001 A 
ATOM     28  C   UNL     1       5.139   5.051   0.054  0.00  0.00    +0.004 A 
ATOM     29  C   UNL     1       4.420   5.066  -1.124  0.00  0.00    +0.046 A 
ATOM     30  C   UNL     1       3.112   4.595  -1.149  0.00  0.00    +0.133 A 
ATOM     31  C   UNL     1       2.534   4.109   0.012  0.00  0.00    +0.011 A 
ATOM     32  C   UNL     1       3.260   4.096   1.190  0.00  0.00    +0.008 A 
ATOM     33  C   UNL     1       1.121   3.593   0.011  0.00  0.00    +0.143 C 
ATOM     34  C   UNL     1       0.382   4.087  -1.204  0.00  0.00    +0.011 A 
ATOM     35  C   UNL     1      -1.003   4.051  -1.216  0.00  0.00    +0.008 A 
ATOM     36  C   UNL     1      -1.700   4.500  -2.321  0.00  0.00    +0.001 A 
ATOM     37  C   UNL     1      -1.016   4.988  -3.420  0.00  0.00    +0.004 A 
ATOM     38  C   UNL     1       0.363   5.025  -3.413  0.00  0.00    +0.046 A 
ATOM     39  C   UNL     1       1.068   4.573  -2.303  0.00  0.00    +0.133 A 
ATOM     40  O   UNL     1       2.422   4.618  -2.314  0.00  0.00    -0.455 OA
ENDBRANCH  23  33
ENDBRANCH   1  25
TORSDOF 6
