REMARK  Name = ZINC39837979
REMARK  11 active torsions:
REMARK  status: ('A' for Active; 'I' for Inactive)
REMARK    1  A    between atoms: C_1  and  C_2
REMARK    2  A    between atoms: C_2  and  C_3
REMARK    3  A    between atoms: C_3  and  C_4
REMARK    4  A    between atoms: C_10  and  C_26
REMARK    5  A    between atoms: C_17  and  C_25
REMARK    6  A    between atoms: C_30  and  O_32
REMARK    7  A    between atoms: O_32  and  C_33
REMARK    8  A    between atoms: C_33  and  C_34
REMARK    9  A    between atoms: C_34  and  C_35
REMARK   10  A    between atoms: C_35  and  C_36
REMARK   11  A    between atoms: C_35  and  C_37
REMARK                            x       y       z     vdW  Elec       q    Type
REMARK                         _______ _______ _______ _____ _____    ______ ____
ROOT
ATOM      1  C   UNL     1       0.762  -2.018   1.233  0.00  0.00    +0.104 A 
ATOM      2  N   UNL     1       1.647  -2.850   0.720  0.00  0.00    -0.145 NA
ATOM      3  N   UNL     1       1.516  -4.102   0.800  0.00  0.00    -0.125 NA
ATOM      4  C   UNL     1       0.477  -4.659   1.407  0.00  0.00    +0.191 A 
ATOM      5  S   UNL     1      -0.403  -3.188   1.924  0.00  0.00    -0.035 S 
ATOM      6  N   UNL     1       0.164  -6.000   1.593  0.00  0.00    -0.230 N 
ATOM      7  C   UNL     1       0.965  -7.146   1.137  0.00  0.00    +0.152 C 
ATOM      8  C   UNL     1       0.217  -8.364   1.569  0.00  0.00    +0.072 A 
ATOM      9  C   UNL     1       0.509  -9.791   1.395  0.00  0.00    +0.199 A 
ATOM     10  O   UNL     1       1.575 -10.207   0.977  0.00  0.00    -0.287 OA
ATOM     11  C   UNL     1      -0.618 -10.679   1.778  0.00  0.00    +0.065 A 
ATOM     12  C   UNL     1      -0.573 -12.042   1.486  0.00  0.00    +0.018 A 
ATOM     13  C   UNL     1      -1.621 -12.846   1.840  0.00  0.00    -0.050 A 
ATOM     14  C   UNL     1      -2.725 -12.309   2.486  0.00  0.00    +0.007 A 
ATOM     15  C   UNL     1      -2.786 -10.967   2.784  0.00  0.00    +0.047 A 
ATOM     16  C   UNL     1      -1.728 -10.126   2.435  0.00  0.00    +0.139 A 
ATOM     17  O   UNL     1      -1.804  -8.812   2.746  0.00  0.00    -0.450 OA
ATOM     18  C   UNL     1      -0.910  -7.950   2.221  0.00  0.00    +0.199 A 
ATOM     19  C   UNL     1      -0.925  -6.478   2.229  0.00  0.00    +0.289 C 
ATOM     20  O   UNL     1      -1.794  -5.793   2.733  0.00  0.00    -0.266 OA
ATOM     21  C   UNL     1      -1.576 -14.319   1.526  0.00  0.00    +0.044 C 
ENDROOT
BRANCH   7  22
ATOM     22  C   UNL     1       1.099  -7.123  -0.364  0.00  0.00    -0.019 A 
ATOM     23  C   UNL     1       0.028  -6.733  -1.147  0.00  0.00    +0.006 A 
ATOM     24  C   UNL     1       0.148  -6.710  -2.525  0.00  0.00    +0.004 A 
ATOM     25  C   UNL     1       1.338  -7.077  -3.122  0.00  0.00    +0.045 A 
ATOM     26  C   UNL     1       2.414  -7.469  -2.339  0.00  0.00    +0.121 A 
ATOM     27  C   UNL     1       2.293  -7.485  -0.957  0.00  0.00    +0.051 A 
BRANCH  26  28
ATOM     28  O   UNL     1       3.586  -7.831  -2.924  0.00  0.00    -0.492 OA
BRANCH  28  29
ATOM     29  C   UNL     1       3.640  -7.784  -4.351  0.00  0.00    +0.229 C 
BRANCH  29  30
ATOM     30  C   UNL     1       5.027  -8.223  -4.824  0.00  0.00    +0.044 C 
BRANCH  30  31
ATOM     31  C   UNL     1       5.085  -8.173  -6.352  0.00  0.00    -0.014 C 
ATOM     32  C   UNL     1       6.507  -8.490  -6.819  0.00  0.00    +0.007 C 
ATOM     33  C   UNL     1       4.115  -9.204  -6.933  0.00  0.00    +0.007 C 
ENDBRANCH  30  31
ENDBRANCH  29  30
ENDBRANCH  28  29
ENDBRANCH  26  28
ENDBRANCH   7  22
BRANCH   1  34
ATOM     34  C   UNL     1       0.742  -0.511   1.242  0.00  0.00    +0.064 C 
BRANCH  34  36
ATOM     35  C   UNL     1      -0.019   1.526   0.010  0.00  0.00    +0.004 C 
ATOM     36  C   UNL     1       0.002  -0.004   0.002  0.00  0.00    +0.003 C 
ENDBRANCH  34  36
ENDBRANCH   1  34
TORSDOF 7
