REMARK  Name = ZINC64198743
REMARK  8 active torsions:
REMARK  status: ('A' for Active; 'I' for Inactive)
REMARK    1  A    between atoms: C_1  and  C_2
REMARK    2  A    between atoms: C_2  and  N_3
REMARK    3  A    between atoms: C_16  and  C_18
REMARK    4  A    between atoms: C_20  and  O_36
REMARK    5  A    between atoms: C_22  and  O_35
REMARK    6  A    between atoms: N_24  and  C_27
REMARK    7  A    between atoms: C_31  and  C_34
REMARK    8  A    between atoms: C_32  and  C_33
REMARK                            x       y       z     vdW  Elec       q    Type
REMARK                         _______ _______ _______ _____ _____    ______ ____
ROOT
ATOM      1  C   UNL     1      -0.516  -3.103   1.782  0.00  0.00    +0.180 C 
ATOM      2  C   UNL     1      -0.534  -4.567   2.107  0.00  0.00    +0.200 C 
ATOM      3  N   UNL     1      -1.210  -5.055   3.074  0.00  0.00    -0.204 NA
ATOM      4  C   UNL     1      -2.040  -4.266   3.970  0.00  0.00    +0.338 C 
ATOM      5  N   UNL     1      -1.668  -2.859   3.965  0.00  0.00    -0.225 N 
ATOM      6  C   UNL     1      -0.978  -2.302   2.966  0.00  0.00    +0.237 C 
ATOM      7  O   UNL     1      -0.719  -1.118   3.019  0.00  0.00    -0.274 OA
ENDROOT
BRANCH   1  20
ATOM      8  N   UNL     1      -1.522  -1.388   0.342  0.00  0.00    -0.296 NA
ATOM      9  C   UNL     1      -2.276  -1.050  -0.869  0.00  0.00    +0.089 C 
ATOM     10  C   UNL     1      -3.752  -1.459  -0.709  0.00  0.00    +0.049 C 
ATOM     11  C   UNL     1      -3.742  -2.892  -0.235  0.00  0.00    -0.036 C 
ATOM     12  C   UNL     1      -4.384  -3.974  -0.651  0.00  0.00    -0.001 A 
ATOM     13  C   UNL     1      -5.452  -4.160  -1.647  0.00  0.00    +0.010 A 
ATOM     14  C   UNL     1      -5.868  -5.439  -1.847  0.00  0.00    +0.001 A 
ATOM     15  C   UNL     1      -5.336  -6.537  -1.165  0.00  0.00    +0.002 A 
ATOM     16  C   UNL     1      -4.360  -6.457  -0.226  0.00  0.00    +0.026 A 
ATOM     17  C   UNL     1      -3.847  -5.163   0.079  0.00  0.00    +0.043 A 
ATOM     18  N   UNL     1      -2.946  -4.798   0.944  0.00  0.00    -0.376 N 
ATOM     19  C   UNL     1      -2.854  -3.339   0.922  0.00  0.00    +0.125 C 
ATOM     20  C   UNL     1      -1.446  -2.836   0.597  0.00  0.00    +0.104 C 
ATOM     21  H   UNL     1      -2.424  -5.391   1.506  0.00  0.00    +0.160 HD
BRANCH   8  23
ATOM     22  C   UNL     1      -0.304   0.736   0.364  0.00  0.00    +0.020 C 
ATOM     23  C   UNL     1      -0.182  -0.788   0.312  0.00  0.00    +0.081 C 
ENDBRANCH   8  23
ENDBRANCH   1  20
BRANCH   5  24
ATOM     24  C   UNL     1      -2.051  -2.059   5.048  0.00  0.00    +0.044 A 
ATOM     25  C   UNL     1      -1.169  -1.842   6.098  0.00  0.00    +0.024 A 
ATOM     26  C   UNL     1      -1.550  -1.052   7.165  0.00  0.00    +0.002 A 
ATOM     27  C   UNL     1      -2.808  -0.478   7.189  0.00  0.00    +0.004 A 
ATOM     28  C   UNL     1      -3.688  -0.693   6.145  0.00  0.00    -0.046 A 
ATOM     29  C   UNL     1      -3.311  -1.477   5.072  0.00  0.00    -0.026 A 
ATOM     30  C   UNL     1      -4.269  -1.705   3.931  0.00  0.00    +0.046 C 
ATOM     31  C   UNL     1      -5.058  -0.066   6.174  0.00  0.00    +0.044 C 
ENDBRANCH   5  24
BRANCH   4  32
ATOM     32  O   UNL     1      -3.405  -4.386   3.564  0.00  0.00    -0.356 OA
ATOM     33  H   UNL     1      -3.725  -5.297   3.525  0.00  0.00    +0.214 HD
ENDBRANCH   4  32
BRANCH   2  34
ATOM     34  O   UNL     1       0.196  -5.406   1.343  0.00  0.00    -0.495 OA
ATOM     35  H   UNL     1       0.136  -6.334   1.611  0.00  0.00    +0.293 HD
ENDBRANCH   2  34
TORSDOF 5
