REMARK  Name = ZINC00709382
REMARK  6 active torsions:
REMARK  status: ('A' for Active; 'I' for Inactive)
REMARK    1  A    between atoms: C_1  and  C_2
REMARK    2  A    between atoms: C_2  and  C_3
REMARK    3  A    between atoms: C_2  and  C_4
REMARK    4  A    between atoms: C_7  and  C_10
REMARK    5  A    between atoms: N_16  and  C_17
REMARK    6  A    between atoms: C_27  and  C_28
REMARK                            x       y       z     vdW  Elec       q    Type
REMARK                         _______ _______ _______ _____ _____    ______ ____
ROOT
ATOM      1  C   UNL     1       1.270   1.388  -0.529  0.00  0.00    +0.146 C 
ATOM      2  C   UNL     1      -0.175   1.158  -0.208  0.00  0.00    +0.027 C 
ATOM      3  C   UNL     1      -0.372  -0.184  -0.155  0.00  0.00    +0.098 C 
ATOM      4  C   UNL     1       0.891  -0.863  -0.467  0.00  0.00    +0.266 C 
ATOM      5  O   UNL     1       1.041  -2.068  -0.523  0.00  0.00    -0.268 OA
ATOM      6  N   UNL     1       1.862   0.049  -0.683  0.00  0.00    -0.255 N 
ATOM      7  N   UNL     1      -1.599  -0.732   0.187  0.00  0.00    -0.338 N 
ATOM      8  C   UNL     1      -2.086  -0.529   1.557  0.00  0.00    +0.122 C 
ATOM      9  C   UNL     1      -1.786   0.904   2.008  0.00  0.00    +0.131 C 
ATOM     10  N   UNL     1      -2.099   1.913   1.002  0.00  0.00    -0.382 N 
ATOM     11  C   UNL     1      -1.272   2.109  -0.006  0.00  0.00    +0.050 C 
ATOM     12  H   UNL     1      -2.203  -1.305  -0.532  0.00  0.00    +0.146 HD
ATOM     13  H   UNL     1      -3.020   2.509   1.080  0.00  0.00    +0.160 HD
ENDROOT
BRANCH  11  14
ATOM     14  C   UNL     1      -1.446   3.267  -0.914  0.00  0.00    -0.002 A 
ATOM     15  C   UNL     1      -2.362   4.271  -0.600  0.00  0.00    +0.011 A 
ATOM     16  C   UNL     1      -2.517   5.349  -1.447  0.00  0.00    +0.020 A 
ATOM     17  C   UNL     1      -1.772   5.430  -2.612  0.00  0.00    +0.041 A 
ATOM     18  C   UNL     1      -0.865   4.434  -2.930  0.00  0.00    +0.020 A 
ATOM     19  C   UNL     1      -0.699   3.354  -2.088  0.00  0.00    +0.011 A 
ATOM     20 CL   UNL     1      -1.977   6.787  -3.676  0.00  0.00    -0.084 Cl
ENDBRANCH  11  14
BRANCH   1  24
ATOM     21  C   UNL     1       3.173   3.485   2.669  0.00  0.00    -0.045 A 
ATOM     22  C   UNL     1       2.769   4.169   1.538  0.00  0.00    +0.004 A 
ATOM     23  C   UNL     1       2.153   3.490   0.503  0.00  0.00    +0.006 A 
ATOM     24  C   UNL     1       1.941   2.127   0.599  0.00  0.00    -0.022 A 
ATOM     25  C   UNL     1       2.341   1.444   1.732  0.00  0.00    +0.006 A 
ATOM     26  C   UNL     1       2.962   2.122   2.765  0.00  0.00    +0.004 A 
BRANCH  21  28
ATOM     27  C   UNL     1       3.015   4.068   5.074  0.00  0.00    +0.012 C 
ATOM     28  C   UNL     1       3.844   4.224   3.797  0.00  0.00    +0.013 C 
ATOM     29  C   UNL     1       5.244   3.649   4.024  0.00  0.00    +0.012 C 
ENDBRANCH  21  28
ENDBRANCH   1  24
BRANCH   6  30
ATOM     30  C   UNL     1       3.196  -0.229  -0.998  0.00  0.00    +0.038 A 
ATOM     31  C   UNL     1       4.094   0.811  -1.201  0.00  0.00    +0.023 A 
ATOM     32  C   UNL     1       5.412   0.533  -1.506  0.00  0.00    +0.002 A 
ATOM     33  C   UNL     1       5.835  -0.778  -1.621  0.00  0.00    +0.000 A 
ATOM     34  C   UNL     1       4.942  -1.816  -1.426  0.00  0.00    +0.002 A 
ATOM     35  C   UNL     1       3.624  -1.545  -1.115  0.00  0.00    +0.023 A 
ENDBRANCH   6  30
TORSDOF 4
