REMARK  Name = ZINC06443993
REMARK  13 active torsions:
REMARK  status: ('A' for Active; 'I' for Inactive)
REMARK    1  A    between atoms: C_1  and  C_2
REMARK    2  A    between atoms: C_12  and  C_14
REMARK    3  A    between atoms: C_14  and  C_16
REMARK    4  A    between atoms: C_14  and  N_70
REMARK    5  A    between atoms: N_20  and  C_21
REMARK    6  A    between atoms: C_21  and  C_22
REMARK    7  A    between atoms: C_22  and  O_23
REMARK    8  A    between atoms: O_23  and  C_24
REMARK    9  A    between atoms: C_25  and  C_26
REMARK   10  A    between atoms: C_25  and  N_70
REMARK   11  A    between atoms: C_26  and  C_27
REMARK   12  A    between atoms: C_33  and  C_34
REMARK   13  A    between atoms: C_33  and  N_70
REMARK                            x       y       z     vdW  Elec       q    Type
REMARK                         _______ _______ _______ _____ _____    ______ ____
ROOT
ATOM      1  C   UNL     1       0.417  -2.075  -2.260  0.00  0.00    +0.039 C 
ENDROOT
BRANCH   1  13
ATOM      2  C   UNL     1       2.852  -0.979  -8.266  0.00  0.00    +0.046 C 
ATOM      3  C   UNL     1       1.527  -1.538  -7.816  0.00  0.00    -0.026 A 
ATOM      4  C   UNL     1       0.585  -1.920  -8.747  0.00  0.00    +0.005 A 
ATOM      5  C   UNL     1      -0.639  -2.436  -8.346  0.00  0.00    +0.001 A 
ATOM      6  C   UNL     1      -0.934  -2.576  -7.019  0.00  0.00    +0.010 A 
ATOM      7  C   UNL     1       0.007  -2.195  -6.056  0.00  0.00    -0.001 A 
ATOM      8  C   UNL     1       1.250  -1.671  -6.459  0.00  0.00    +0.052 A 
ATOM      9  N   UNL     1       2.173  -1.298  -5.506  0.00  0.00    -0.322 N 
ATOM     10  H   UNL     1       3.029  -0.937  -5.786  0.00  0.00    +0.169 HD
ATOM     11  C   UNL     1       1.905  -1.427  -4.195  0.00  0.00    +0.251 A 
ATOM     12  O   UNL     1       2.745  -1.087  -3.381  0.00  0.00    -0.268 OA
ATOM     13  C   UNL     1       0.675  -1.947  -3.739  0.00  0.00    +0.011 A 
ATOM     14  C   UNL     1      -0.274  -2.336  -4.626  0.00  0.00    +0.017 A 
ENDBRANCH   1  13
BRANCH   1  15
ATOM     15  C   UNL     1       0.376  -0.703  -1.636  0.00  0.00    +0.143 A 
ATOM     16  N   UNL     1       1.400   0.081  -1.402  0.00  0.00    -0.115 NA
ATOM     17  N   UNL     1       0.957   1.164  -0.863  0.00  0.00    -0.023 NA
ATOM     18  N   UNL     1      -0.323   1.091  -0.747  0.00  0.00    -0.044 NA
ATOM     19  N   UNL     1      -0.720  -0.043  -1.217  0.00  0.00    -0.228 N 
BRANCH  19  20
ATOM     20  C   UNL     1      -2.102  -0.523  -1.280  0.00  0.00    +0.175 C 
BRANCH  20  21
ATOM     21  C   UNL     1      -2.515  -1.072   0.087  0.00  0.00    +0.183 C 
BRANCH  21  22
ATOM     22  O   UNL     1      -3.812  -1.663  -0.009  0.00  0.00    -0.381 OA
ATOM     23  C   UNL     1      -4.294  -2.209   1.221  0.00  0.00    +0.194 C 
ENDBRANCH  21  22
ENDBRANCH  20  21
ENDBRANCH  19  20
ENDBRANCH   1  15
BRANCH   1  24
ATOM     24  N   UNL     1       1.515  -2.845  -1.638  0.00  0.00    +0.392 N 
ATOM     25  H   UNL     1       2.334  -2.235  -1.538  0.00  0.00    -0.080 HD
BRANCH  24  26
ATOM     26  C   UNL     1       1.873  -3.994  -2.495  0.00  0.00    -0.072 C 
BRANCH  26  27
ATOM     27  C   UNL     1       3.180  -4.603  -1.982  0.00  0.00    +0.016 C 
BRANCH  27  28
ATOM     28  C   UNL     1       3.572  -5.764  -2.859  0.00  0.00    -0.049 A 
ATOM     29  C   UNL     1       3.134  -7.039  -2.553  0.00  0.00    +0.003 A 
ATOM     30  C   UNL     1       3.489  -8.104  -3.360  0.00  0.00    +0.000 A 
ATOM     31  C   UNL     1       4.291  -7.895  -4.467  0.00  0.00    +0.000 A 
ATOM     32  C   UNL     1       4.733  -6.621  -4.769  0.00  0.00    +0.000 A 
ATOM     33  C   UNL     1       4.374  -5.555  -3.965  0.00  0.00    +0.003 A 
ENDBRANCH  27  28
ENDBRANCH  26  27
ENDBRANCH  24  26
BRANCH  24  34
ATOM     34  C   UNL     1       1.104  -3.321  -0.301  0.00  0.00    -0.042 C 
BRANCH  34  35
ATOM     35  C   UNL     1       0.073  -4.413  -0.423  0.00  0.00    -0.064 A 
ATOM     36  C   UNL     1       0.460  -5.739  -0.360  0.00  0.00    +0.004 A 
ATOM     37  C   UNL     1      -0.485  -6.742  -0.472  0.00  0.00    +0.038 A 
ATOM     38  C   UNL     1      -1.819  -6.418  -0.648  0.00  0.00    +0.123 A 
ATOM     39  C   UNL     1      -2.206  -5.090  -0.711  0.00  0.00    +0.038 A 
ATOM     40  C   UNL     1      -1.260  -4.089  -0.598  0.00  0.00    +0.004 A 
ATOM     41  F   UNL     1      -2.744  -7.397  -0.758  0.00  0.00    -0.205 F 
ENDBRANCH  34  35
ENDBRANCH  24  34
ENDBRANCH   1  24
TORSDOF 11
