REMARK  Name = ZINC20016973
REMARK  5 active torsions:
REMARK  status: ('A' for Active; 'I' for Inactive)
REMARK    1  A    between atoms: C_4  and  N_9
REMARK    2  A    between atoms: C_5  and  C_7
REMARK    3  A    between atoms: N_9  and  S_10
REMARK    4  A    between atoms: S_10  and  C_13
REMARK    5  A    between atoms: C_18  and  N_19
REMARK                            x       y       z     vdW  Elec       q    Type
REMARK                         _______ _______ _______ _____ _____    ______ ____
ROOT
ATOM      1  S   UNL     1      -2.629   0.895   0.046  0.00  0.00    +0.093 S 
ATOM      2  O   UNL     1      -3.387   1.243  -1.105  0.00  0.00    -0.148 OA
ATOM      3  O   UNL     1      -2.099  -0.408   0.243  0.00  0.00    -0.148 OA
ENDROOT
BRANCH   1   4
ATOM      4  C   UNL     1      -1.265   2.008   0.106  0.00  0.00    +0.131 A 
ATOM      5  C   UNL     1      -1.094   2.946  -0.893  0.00  0.00    +0.033 A 
ATOM      6  C   UNL     1      -0.028   3.825  -0.845  0.00  0.00    +0.040 A 
ATOM      7  C   UNL     1       0.876   3.764   0.204  0.00  0.00    +0.125 A 
ATOM      8  C   UNL     1       0.713   2.822   1.204  0.00  0.00    +0.063 A 
ATOM      9  C   UNL     1      -0.358   1.939   1.156  0.00  0.00    +0.054 A 
ATOM     10  F   UNL     1       1.917   4.624   0.249  0.00  0.00    -0.205 F 
BRANCH   9  11
ATOM     11  N   UNL     1      -0.525   0.987   2.164  0.00  0.00    -0.356 N 
ATOM     12  H   UNL     1       0.194   0.933   2.995  0.00  0.00    +0.142 HD
ATOM     13  H   UNL     1      -1.376   0.291   2.127  0.00  0.00    +0.142 HD
ENDBRANCH   9  11
ENDBRANCH   1   4
BRANCH   1  14
ATOM     14  N   UNL     1      -3.585   1.220   1.358  0.00  0.00    -0.096 NA
BRANCH  14  18
ATOM     15  C   UNL     1      -5.271   5.004   1.820  0.00  0.00    +0.001 A 
ATOM     16  C   UNL     1      -5.131   4.451   0.558  0.00  0.00    +0.002 A 
ATOM     17  C   UNL     1      -4.569   3.200   0.401  0.00  0.00    +0.028 A 
ATOM     18  C   UNL     1      -4.148   2.482   1.513  0.00  0.00    +0.092 A 
ATOM     19  C   UNL     1      -4.287   3.040   2.794  0.00  0.00    +0.076 A 
ATOM     20  C   UNL     1      -4.853   4.310   2.935  0.00  0.00    +0.021 A 
BRANCH  19  21
ATOM     21  C   UNL     1      -3.851   2.313   3.948  0.00  0.00    +0.101 C 
ATOM     22  N   UNL     1      -3.505   1.737   4.863  0.00  0.00    -0.191 NA
ENDBRANCH  19  21
ENDBRANCH  14  18
ENDBRANCH   1  14
TORSDOF 5
