REMARK  Name = ZINC63277049
REMARK  3 active torsions:
REMARK  status: ('A' for Active; 'I' for Inactive)
REMARK    1  A    between atoms: C_8  and  C_10
REMARK    2  A    between atoms: C_11  and  C_16
REMARK    3  A    between atoms: N_22  and  C_23
REMARK                            x       y       z     vdW  Elec       q    Type
REMARK                         _______ _______ _______ _____ _____    ______ ____
ROOT
ATOM      1  C   UNL     1       3.796  -3.322  -0.053  0.00  0.00    +0.108 A 
ATOM      2  C   UNL     1       4.917  -3.560  -0.861  0.00  0.00    +0.024 A 
ATOM      3  C   UNL     1       5.393  -4.850  -0.536  0.00  0.00    +0.142 A 
ATOM      4  N   UNL     1       4.627  -5.352   0.392  0.00  0.00    -0.181 NA
ATOM      5  H   UNL     1       2.932  -4.559   1.385  0.00  0.00    +0.189 HD
ATOM      6  N   UNL     1       3.627  -4.431   0.721  0.00  0.00    -0.273 N 
ENDROOT
BRANCH   1  14
ATOM      7  C   UNL     1      -0.017   1.363   0.009  0.00  0.00    +0.001 A 
ATOM      8  C   UNL     1       1.171   2.082   0.002  0.00  0.00    +0.004 A 
ATOM      9  C   UNL     1       2.387   1.433  -0.013  0.00  0.00    +0.047 A 
ATOM     10  C   UNL     1       2.431   0.044  -0.021  0.00  0.00    +0.136 A 
ATOM     11  C   UNL     1       1.224  -0.680  -0.013  0.00  0.00    +0.021 A 
ATOM     12  C   UNL     1       0.002  -0.004   0.002  0.00  0.00    +0.011 A 
ATOM     13  C   UNL     1       1.609  -2.091  -0.025  0.00  0.00    +0.060 A 
ATOM     14  C   UNL     1       2.969  -2.110  -0.039  0.00  0.00    +0.154 A 
ATOM     15  O   UNL     1       3.442  -0.847  -0.036  0.00  0.00    -0.453 OA
ENDBRANCH   1  14
BRANCH   2  16
ATOM     16  C   UNL     1       5.484  -2.647  -1.853  0.00  0.00    +0.032 C 
ATOM     17  C   UNL     1       6.582  -3.016  -2.568  0.00  0.00    +0.080 C 
ATOM     18  C   UNL     1       7.330  -2.274  -3.606  0.00  0.00    +0.276 C 
ATOM     19  O   UNL     1       7.003  -1.150  -3.954  0.00  0.00    -0.267 OA
ATOM     20  N   UNL     1       8.366  -2.889  -4.133  0.00  0.00    -0.154 NA
ATOM     21  C   UNL     1       8.731  -4.107  -3.764  0.00  0.00    +0.152 C 
ATOM     22  N   UNL     1       9.780  -4.858  -4.226  0.00  0.00    -0.322 N 
ATOM     23  S   UNL     1       7.530  -4.531  -2.511  0.00  0.00    -0.052 S 
ATOM     24  H   UNL     1       9.938  -5.745  -3.866  0.00  0.00    +0.148 HD
BRANCH  22  25
ATOM     25  C   UNL     1      10.663  -4.321  -5.265  0.00  0.00    +0.072 C 
ATOM     26  C   UNL     1      10.096  -4.648  -6.662  0.00  0.00    +0.022 C 
ATOM     27  C   UNL     1      11.350  -4.947  -7.520  0.00  0.00    +0.002 C 
ATOM     28  C   UNL     1      12.268  -5.708  -6.532  0.00  0.00    +0.002 C 
ATOM     29  C   UNL     1      12.044  -4.995  -5.182  0.00  0.00    +0.022 C 
ENDBRANCH  22  25
ENDBRANCH   2  16
TORSDOF 3
