REMARK  Name = ZINC39674806
REMARK  12 active torsions:
REMARK  status: ('A' for Active; 'I' for Inactive)
REMARK    1  A    between atoms: C_1  and  C_2
REMARK    2  A    between atoms: C_4  and  C_11
REMARK    3  A    between atoms: N_5  and  C_7
REMARK    4  A    between atoms: C_7  and  C_8
REMARK    5  A    between atoms: C_7  and  C_9
REMARK    6  A    between atoms: C_7  and  C_10
REMARK    7  A    between atoms: C_15  and  C_24
REMARK    8  A    between atoms: N_26  and  C_27
REMARK    9  A    between atoms: C_27  and  C_28
REMARK   10  A    between atoms: C_28  and  C_29
REMARK   11  A    between atoms: C_32  and  C_40
REMARK   12  A    between atoms: C_37  and  C_39
REMARK                            x       y       z     vdW  Elec       q    Type
REMARK                         _______ _______ _______ _____ _____    ______ ____
ROOT
ATOM      1  C   UNL     1      -0.591  -4.011  -1.479  0.00  0.00    +0.265 C 
ATOM      2  O   UNL     1      -0.831  -3.822  -2.656  0.00  0.00    -0.268 OA
ATOM      3  N   UNL     1      -0.692  -5.252  -0.962  0.00  0.00    -0.295 N 
ATOM      4  C   UNL     1      -0.573  -5.656   0.459  0.00  0.00    +0.121 C 
ATOM      5  C   UNL     1      -1.655  -6.742   0.648  0.00  0.00    +0.100 C 
ATOM      6  C   UNL     1      -1.896  -7.306  -0.762  0.00  0.00    -0.004 C 
ATOM      7  C   UNL     1      -0.954  -6.519  -1.685  0.00  0.00    +0.115 C 
ATOM      8  C   UNL     1      -1.555  -8.793  -0.801  0.00  0.00    -0.010 C 
ATOM      9  C   UNL     1      -1.857  -9.344  -2.197  0.00  0.00    -0.082 C 
ATOM     10  N   UNL     1      -3.276  -9.139  -2.510  0.00  0.00    +0.379 N 
ATOM     11  C   UNL     1      -3.575  -7.702  -2.562  0.00  0.00    -0.082 C 
ATOM     12  C   UNL     1      -3.345  -7.082  -1.181  0.00  0.00    -0.010 C 
ATOM     13  H   UNL     1      -3.486  -9.557  -3.404  0.00  0.00    -0.086 HD
ATOM     14  H   UNL     1      -3.843  -9.573  -1.797  0.00  0.00    -0.086 HD
ENDROOT
BRANCH   1  18
ATOM     15  C   UNL     1       1.019  -1.180   2.408  0.00  0.00    +0.067 C 
ATOM     16  C   UNL     1       0.510  -1.637   1.066  0.00  0.00    +0.061 A 
ATOM     17  C   UNL     1       0.260  -2.958   0.687  0.00  0.00    +0.057 A 
ATOM     18  C   UNL     1      -0.191  -2.886  -0.619  0.00  0.00    +0.124 A 
ATOM     19  N   UNL     1      -0.190  -1.561  -0.951  0.00  0.00    -0.254 N 
ATOM     20  N   UNL     1       0.217  -0.866   0.050  0.00  0.00    -0.175 NA
BRANCH  19  21
ATOM     21  C   UNL     1      -0.596  -1.015  -2.248  0.00  0.00    +0.056 C 
ATOM     22  C   UNL     1      -2.012  -1.489  -2.580  0.00  0.00    +0.036 C 
ATOM     23  C   UNL     1      -0.571   0.514  -2.189  0.00  0.00    +0.036 C 
ATOM     24  C   UNL     1       0.371  -1.499  -3.331  0.00  0.00    +0.036 C 
ENDBRANCH  19  21
ENDBRANCH   1  18
BRANCH   5  25
ATOM     25  C   UNL     1      -1.158  -7.824   1.572  0.00  0.00    +0.218 C 
ATOM     26  O   UNL     1       0.032  -8.045   1.660  0.00  0.00    -0.275 OA
ATOM     27  N   UNL     1      -2.034  -8.545   2.299  0.00  0.00    -0.315 N 
ATOM     28  H   UNL     1      -2.987  -8.422   2.171  0.00  0.00    +0.149 HD
BRANCH  27  29
ATOM     29  C   UNL     1      -1.546  -9.515   3.282  0.00  0.00    +0.108 C 
BRANCH  29  30
ATOM     30  C   UNL     1      -2.736 -10.193   3.964  0.00  0.00    +0.052 C 
BRANCH  30  31
ATOM     31  C   UNL     1      -2.234 -11.191   4.976  0.00  0.00    -0.037 C 
ATOM     32  C   UNL     1      -0.940 -11.471   5.273  0.00  0.00    +0.000 A 
ATOM     33  C   UNL     1       0.282 -10.955   4.765  0.00  0.00    +0.028 A 
ATOM     34  C   UNL     1       1.482 -11.423   5.248  0.00  0.00    +0.052 A 
ATOM     35  C   UNL     1       1.534 -12.450   6.283  0.00  0.00    +0.021 A 
ATOM     36  C   UNL     1       0.405 -12.976   6.803  0.00  0.00    +0.027 A 
ATOM     37  C   UNL     1      -0.901 -12.512   6.323  0.00  0.00    +0.043 A 
ATOM     38  N   UNL     1      -2.118 -12.862   6.662  0.00  0.00    -0.378 N 
ATOM     39  C   UNL     1      -3.071 -12.077   5.870  0.00  0.00    +0.103 C 
ATOM     40  C   UNL     1      -3.948 -11.223   6.788  0.00  0.00    +0.035 C 
ATOM     41  H   UNL     1      -2.350 -13.527   7.330  0.00  0.00    +0.160 HD
BRANCH  34  42
ATOM     42  C   UNL     1       2.704 -10.892   4.724  0.00  0.00    +0.099 C 
ATOM     43  N   UNL     1       3.674 -10.471   4.308  0.00  0.00    -0.191 NA
ENDBRANCH  34  42
ENDBRANCH  30  31
ENDBRANCH  29  30
ENDBRANCH  27  29
ENDBRANCH   5  25
TORSDOF 7
