REMARK  Name = ZINC20080729
REMARK  9 active torsions:
REMARK  status: ('A' for Active; 'I' for Inactive)
REMARK    1  A    between atoms: C_1  and  O_2
REMARK    2  A    between atoms: O_2  and  C_3
REMARK    3  A    between atoms: C_7  and  C_16
REMARK    4  A    between atoms: C_12  and  O_13
REMARK    5  A    between atoms: O_13  and  C_14
REMARK    6  A    between atoms: C_16  and  C_18
REMARK    7  A    between atoms: C_16  and  N_31
REMARK    8  A    between atoms: N_22  and  C_23
REMARK    9  A    between atoms: C_23  and  C_24
REMARK                            x       y       z     vdW  Elec       q    Type
REMARK                         _______ _______ _______ _____ _____    ______ ____
ROOT
ATOM      1  C   UNL     1      -7.335   0.253   0.054  0.00  0.00    +0.039 C 
ENDROOT
BRANCH   1   6
ATOM      2  C   UNL     1      -1.201  -0.638   0.010  0.00  0.00    +0.162 A 
ATOM      3  C   UNL     1      -2.365   0.099   0.019  0.00  0.00    +0.059 A 
ATOM      4  C   UNL     1      -3.602  -0.558   0.027  0.00  0.00    +0.002 A 
ATOM      5  C   UNL     1      -4.855   0.195   0.037  0.00  0.00    +0.017 A 
ATOM      6  C   UNL     1      -6.026  -0.493   0.044  0.00  0.00    +0.011 A 
ATOM      7  C   UNL     1      -6.021  -1.903   0.042  0.00  0.00    +0.251 A 
ATOM      8  N   UNL     1      -4.874  -2.605   0.033  0.00  0.00    -0.322 N 
ATOM      9  C   UNL     1      -3.651  -1.966   0.026  0.00  0.00    +0.053 A 
ATOM     10  C   UNL     1      -2.468  -2.694   0.016  0.00  0.00    +0.075 A 
ATOM     11  C   UNL     1      -1.252  -2.036   0.003  0.00  0.00    +0.163 A 
ATOM     12  O   UNL     1      -7.083  -2.501   0.049  0.00  0.00    -0.268 OA
ATOM     13  H   UNL     1      -4.907  -3.574   0.032  0.00  0.00    +0.169 HD
BRANCH   2  15
ATOM     14  C   UNL     1      -0.017   1.425   0.010  0.00  0.00    +0.277 C 
ATOM     15  O   UNL     1       0.002  -0.004   0.002  0.00  0.00    -0.491 OA
ENDBRANCH   2  15
BRANCH  11  16
ATOM     16  O   UNL     1      -0.098  -2.752  -0.011  0.00  0.00    -0.491 OA
ATOM     17  C   UNL     1      -0.218  -4.176  -0.018  0.00  0.00    +0.277 C 
ENDBRANCH  11  16
ENDBRANCH   1   6
BRANCH   1  18
ATOM     18  N   UNL     1      -8.161  -0.193  -1.076  0.00  0.00    +0.389 N 
ATOM     19  C   UNL     1      -7.399  -0.001  -2.325  0.00  0.00    -0.077 C 
ATOM     20  C   UNL     1      -7.933  -0.962  -3.357  0.00  0.00    -0.019 C 
ATOM     21  C   UNL     1      -8.977  -0.289  -4.267  0.00  0.00    -0.002 C 
ATOM     22  C   UNL     1      -9.921   0.633  -3.470  0.00  0.00    -0.002 C 
ATOM     23  C   UNL     1     -10.337   0.029  -2.153  0.00  0.00    -0.019 C 
ATOM     24  C   UNL     1      -9.369   0.507  -1.051  0.00  0.00    -0.077 C 
ATOM     25  H   UNL     1      -8.356  -1.177  -0.965  0.00  0.00    -0.080 HD
ENDBRANCH   1  18
BRANCH   1  26
ATOM     26  C   UNL     1      -8.060  -0.022   1.346  0.00  0.00    +0.143 A 
ATOM     27  N   UNL     1      -8.685  -1.127   1.673  0.00  0.00    -0.115 NA
ATOM     28  N   UNL     1      -9.174  -0.973   2.855  0.00  0.00    -0.023 NA
ATOM     29  N   UNL     1      -8.877   0.202   3.291  0.00  0.00    -0.044 NA
ATOM     30  N   UNL     1      -8.185   0.816   2.391  0.00  0.00    -0.226 N 
BRANCH  30  31
ATOM     31  C   UNL     1      -7.642   2.173   2.488  0.00  0.00    +0.182 C 
BRANCH  31  32
ATOM     32  C   UNL     1      -8.653   3.158   1.961  0.00  0.00    -0.026 A 
ATOM     33  C   UNL     1      -8.653   3.497   0.621  0.00  0.00    +0.008 A 
ATOM     34  C   UNL     1      -9.581   4.400   0.136  0.00  0.00    +0.038 A 
ATOM     35  C   UNL     1     -10.509   4.965   0.993  0.00  0.00    +0.123 A 
ATOM     36  C   UNL     1     -10.508   4.625   2.335  0.00  0.00    +0.038 A 
ATOM     37  C   UNL     1      -9.583   3.718   2.817  0.00  0.00    +0.008 A 
ATOM     38  F   UNL     1     -11.416   5.848   0.520  0.00  0.00    -0.205 F 
ENDBRANCH  31  32
ENDBRANCH  30  31
ENDBRANCH   1  26
TORSDOF 7
