REMARK  Name = ZINC59982460
REMARK  12 active torsions:
REMARK  status: ('A' for Active; 'I' for Inactive)
REMARK    1  A    between atoms: C_1  and  C_2
REMARK    2  A    between atoms: C_5  and  S_9
REMARK    3  A    between atoms: C_7  and  C_8
REMARK    4  A    between atoms: S_9  and  N_12
REMARK    5  A    between atoms: C_15  and  C_18
REMARK    6  A    between atoms: N_20  and  C_21
REMARK    7  A    between atoms: C_21  and  C_22
REMARK    8  A    between atoms: C_22  and  C_23
REMARK    9  A    between atoms: C_22  and  C_24
REMARK   10  A    between atoms: C_22  and  N_25
REMARK   11  A    between atoms: C_27  and  C_34
REMARK   12  A    between atoms: C_30  and  C_33
REMARK                            x       y       z     vdW  Elec       q    Type
REMARK                         _______ _______ _______ _____ _____    ______ ____
ROOT
ATOM      1  N   UNL     1       1.879  -4.642   0.161  0.00  0.00    -0.177 NA
ATOM      2  C   UNL     1       2.593  -4.854  -1.105  0.00  0.00    +0.110 C 
ATOM      3  C   UNL     1       3.116  -6.293  -1.142  0.00  0.00    +0.030 C 
ATOM      4  C   UNL     1       3.959  -6.558   0.107  0.00  0.00    +0.077 C 
ATOM      5  C   UNL     1       3.091  -6.391   1.356  0.00  0.00    +0.030 C 
ATOM      6  C   UNL     1       2.570  -4.947   1.421  0.00  0.00    +0.110 C 
ENDROOT
BRANCH   4   7
ATOM      7  C   UNL     1       4.503  -7.962   0.057  0.00  0.00    +0.216 C 
ATOM      8  O   UNL     1       4.110  -8.735  -0.790  0.00  0.00    -0.276 OA
ATOM      9  N   UNL     1       5.426  -8.360   0.955  0.00  0.00    -0.316 N 
ATOM     10  H   UNL     1       5.692  -7.764   1.673  0.00  0.00    +0.149 HD
BRANCH   9  11
ATOM     11  C   UNL     1       6.029  -9.690   0.846  0.00  0.00    +0.092 C 
BRANCH  11  12
ATOM     12  C   UNL     1       6.949  -9.933   2.045  0.00  0.00    -0.055 C 
ATOM     13  C   UNL     1       6.115  -9.977   3.327  0.00  0.00    -0.008 C 
ATOM     14  C   UNL     1       7.679 -11.266   1.865  0.00  0.00    -0.008 C 
BRANCH  12  15
ATOM     15  N   UNL     1       7.931  -8.845   2.136  0.00  0.00    +0.384 N 
ATOM     16  C   UNL     1       8.706  -8.782   0.891  0.00  0.00    -0.075 C 
ATOM     17  C   UNL     1       9.676  -7.599   0.950  0.00  0.00    -0.031 C 
ATOM     18  C   UNL     1      10.627  -7.784   2.136  0.00  0.00    +0.003 C 
ATOM     19  C   UNL     1       9.805  -7.924   3.420  0.00  0.00    -0.031 C 
ATOM     20  C   UNL     1       8.830  -9.094   3.270  0.00  0.00    -0.075 C 
ATOM     21  C   UNL     1       9.020  -6.633   3.667  0.00  0.00    +0.005 C 
ATOM     22  C   UNL     1      10.483  -7.536  -0.349  0.00  0.00    +0.005 C 
ATOM     23  H   UNL     1       7.450  -7.970   2.276  0.00  0.00    -0.081 HD
ENDBRANCH  12  15
ENDBRANCH  11  12
ENDBRANCH   9  11
ENDBRANCH   4   7
BRANCH   1  24
ATOM     24  S   UNL     1       0.327  -4.065   0.168  0.00  0.00    +0.061 S 
ATOM     25  O   UNL     1      -0.256  -4.482   1.395  0.00  0.00    -0.153 OA
ATOM     26  O   UNL     1      -0.235  -4.396  -1.094  0.00  0.00    -0.153 OA
BRANCH  24  31
ATOM     27  C   UNL     1       0.662   1.956   0.380  0.00  0.00    +0.044 C 
ATOM     28  C   UNL     1       0.579   0.452   0.327  0.00  0.00    -0.047 A 
ATOM     29  C   UNL     1       0.551  -0.196  -0.894  0.00  0.00    +0.005 A 
ATOM     30  C   UNL     1       0.475  -1.575  -0.942  0.00  0.00    +0.029 A 
ATOM     31  C   UNL     1       0.426  -2.306   0.230  0.00  0.00    +0.106 A 
ATOM     32  C   UNL     1       0.454  -1.658   1.450  0.00  0.00    +0.032 A 
ATOM     33  C   UNL     1       0.535  -0.279   1.499  0.00  0.00    -0.046 A 
ATOM     34  C   UNL     1       0.571   0.427   2.830  0.00  0.00    +0.044 C 
ENDBRANCH  24  31
ENDBRANCH   1  24
TORSDOF 6
