REMARK  Name = ZINC07403201
REMARK  5 active torsions:
REMARK  status: ('A' for Active; 'I' for Inactive)
REMARK    1  A    between atoms: C_1  and  C_2
REMARK    2  A    between atoms: C_9  and  C_11
REMARK    3  A    between atoms: N_13  and  N_14
REMARK    4  A    between atoms: N_14  and  S_15
REMARK    5  A    between atoms: S_15  and  C_18
REMARK                            x       y       z     vdW  Elec       q    Type
REMARK                         _______ _______ _______ _____ _____    ______ ____
ROOT
ATOM      1  C   UNL     1      -1.187   1.624   0.017  0.00  0.00    +0.265 C 
ATOM      2  O   UNL     1      -1.204   2.841   0.023  0.00  0.00    -0.268 OA
ATOM      3  N   UNL     1      -0.011   0.966   0.007  0.00  0.00    -0.227 N 
ATOM      4  H   UNL     1       0.002  -0.004   0.002  0.00  0.00    +0.171 HD
ENDROOT
BRANCH   1  12
ATOM      5  C   UNL     1      -8.575  -0.018   0.343  0.00  0.00    +0.008 C 
ATOM      6  C   UNL     1      -7.090  -0.355   0.495  0.00  0.00    -0.009 C 
ATOM      7  C   UNL     1      -6.758  -1.585  -0.355  0.00  0.00    +0.009 C 
ATOM      8  C   UNL     1      -5.349  -2.072   0.012  0.00  0.00    +0.043 C 
ATOM      9  C   UNL     1      -4.427  -0.892   0.016  0.00  0.00    -0.006 A 
ATOM     10  C   UNL     1      -4.779   0.428   0.026  0.00  0.00    -0.036 A 
ATOM     11  C   UNL     1      -3.745   1.349   0.027  0.00  0.00    +0.024 A 
ATOM     12  C   UNL     1      -2.447   0.874   0.018  0.00  0.00    +0.076 A 
ATOM     13  S   UNL     1      -2.705  -0.892   0.002  0.00  0.00    -0.088 S 
ATOM     14  C   UNL     1      -6.250   0.838   0.036  0.00  0.00    +0.039 C 
ENDBRANCH   1  12
BRANCH   3  15
ATOM     15  N   UNL     1       1.193   1.683  -0.000  0.00  0.00    -0.107 NA
ATOM     16  H   UNL     1       1.356   2.349  -0.686  0.00  0.00    +0.172 HD
BRANCH  15  17
ATOM     17  S   UNL     1       2.336   1.393   1.162  0.00  0.00    +0.080 S 
ATOM     18  O   UNL     1       3.480   2.157   0.805  0.00  0.00    -0.151 OA
ATOM     19  O   UNL     1       1.685   1.538   2.417  0.00  0.00    -0.151 OA
BRANCH  17  20
ATOM     20  C   UNL     1       2.799  -0.301   1.027  0.00  0.00    +0.145 A 
ATOM     21  C   UNL     1       3.779  -0.860   0.276  0.00  0.00    +0.038 A 
ATOM     22  C   UNL     1       3.968  -2.229   0.331  0.00  0.00    +0.030 A 
ATOM     23  C   UNL     1       3.159  -2.972   1.127  0.00  0.00    +0.080 A 
ATOM     24  S   UNL     1       2.095  -1.727   1.837  0.00  0.00    -0.057 S 
ATOM     25 CL   UNL     1       3.159  -4.689   1.387  0.00  0.00    -0.076 Cl
ENDBRANCH  17  20
ENDBRANCH  15  17
ENDBRANCH   3  15
TORSDOF 4
