REMARK  Name = ZINC63985820
REMARK  11 active torsions:
REMARK  status: ('A' for Active; 'I' for Inactive)
REMARK    1  A    between atoms: C_1  and  N_2
REMARK    2  A    between atoms: N_2  and  C_3
REMARK    3  A    between atoms: N_2  and  C_4
REMARK    4  A    between atoms: C_4  and  C_5
REMARK    5  A    between atoms: C_5  and  C_6
REMARK    6  A    between atoms: C_6  and  N_7
REMARK    7  A    between atoms: N_13  and  C_16
REMARK    8  A    between atoms: C_16  and  C_17
REMARK    9  A    between atoms: N_27  and  C_30
REMARK   10  A    between atoms: C_30  and  C_31
REMARK   11  A    between atoms: C_31  and  C_32
REMARK                            x       y       z     vdW  Elec       q    Type
REMARK                         _______ _______ _______ _____ _____    ______ ____
ROOT
ATOM      1  N   UNL     1       0.032   0.003   5.099  0.00  0.00    -0.224 N 
ATOM      2  C   UNL     1       0.265   1.007   5.970  0.00  0.00    +0.247 C 
ATOM      3  O   UNL     1       1.107   1.875   5.881  0.00  0.00    -0.273 OA
ATOM      4  C   UNL     1      -0.744   0.821   7.078  0.00  0.00    +0.112 C 
ATOM      5  C   UNL     1      -1.664   2.035   7.173  0.00  0.00    +0.017 C 
ATOM      6  C   UNL     1      -2.644   1.838   8.332  0.00  0.00    -0.076 C 
ATOM      7  N   UNL     1      -1.896   1.667   9.584  0.00  0.00    +0.381 N 
ATOM      8  C   UNL     1      -1.085   0.446   9.519  0.00  0.00    -0.076 C 
ATOM      9  C   UNL     1      -0.038   0.584   8.410  0.00  0.00    +0.017 C 
ATOM     10  N   UNL     1      -1.502  -0.370   6.677  0.00  0.00    -0.271 N 
ATOM     11  C   UNL     1      -0.980  -0.776   5.503  0.00  0.00    +0.312 C 
ATOM     12  O   UNL     1      -1.379  -1.742   4.883  0.00  0.00    -0.252 OA
ATOM     13  H   UNL     1      -1.293   2.463   9.725  0.00  0.00    -0.082 HD
ENDROOT
BRANCH   1  14
ATOM     14  C   UNL     1       0.787  -0.205   3.861  0.00  0.00    +0.116 C 
BRANCH  14  15
ATOM     15  C   UNL     1       0.117   0.563   2.720  0.00  0.00    +0.001 C 
BRANCH  15  16
ATOM     16  C   UNL     1       0.906   0.345   1.427  0.00  0.00    -0.078 C 
BRANCH  16  18
ATOM     17  C   UNL     1       0.344   2.525   0.598  0.00  0.00    -0.097 C 
ATOM     18  N   UNL     1       0.263   1.083   0.331  0.00  0.00    +0.376 N 
ATOM     19  C   UNL     1       0.949   0.779  -0.932  0.00  0.00    -0.097 C 
ATOM     20  H   UNL     1      -0.705   0.807   0.263  0.00  0.00    -0.083 HD
ENDBRANCH  16  18
ENDBRANCH  15  16
ENDBRANCH  14  15
ENDBRANCH   1  14
BRANCH   7  21
ATOM     21  C   UNL     1      -2.839   1.567  10.706  0.00  0.00    -0.050 C 
BRANCH  21  22
ATOM     22  C   UNL     1      -2.062   1.514  12.023  0.00  0.00    +0.086 C 
ATOM     23  C   UNL     1      -3.014   1.595  13.194  0.00  0.00    +0.005 C 
ATOM     24  C   UNL     1      -2.674   2.711  13.878  0.00  0.00    -0.004 A 
ATOM     25  C   UNL     1      -3.210   3.335  15.094  0.00  0.00    +0.010 A 
ATOM     26  C   UNL     1      -2.648   4.478  15.547  0.00  0.00    +0.001 A 
ATOM     27  C   UNL     1      -1.568   5.081  14.887  0.00  0.00    +0.002 A 
ATOM     28  C   UNL     1      -1.021   4.567  13.765  0.00  0.00    +0.026 A 
ATOM     29  C   UNL     1      -1.533   3.367  13.199  0.00  0.00    +0.043 A 
ATOM     30  N   UNL     1      -1.181   2.682  12.137  0.00  0.00    -0.380 N 
ATOM     31  H   UNL     1      -0.460   2.909  11.529  0.00  0.00    +0.160 HD
ENDBRANCH  21  22
ENDBRANCH   7  21
BRANCH  10  32
ATOM     32  C   UNL     1      -2.611  -0.992   7.405  0.00  0.00    +0.115 C 
BRANCH  32  33
ATOM     33  C   UNL     1      -2.185  -2.377   7.897  0.00  0.00    +0.054 C 
BRANCH  33  34
ATOM     34  C   UNL     1      -3.313  -3.003   8.676  0.00  0.00    -0.046 A 
ATOM     35  C   UNL     1      -3.409  -2.797  10.039  0.00  0.00    +0.004 A 
ATOM     36  C   UNL     1      -4.444  -3.371  10.753  0.00  0.00    +0.000 A 
ATOM     37  C   UNL     1      -5.383  -4.150  10.104  0.00  0.00    +0.000 A 
ATOM     38  C   UNL     1      -5.287  -4.355   8.740  0.00  0.00    +0.000 A 
ATOM     39  C   UNL     1      -4.255  -3.778   8.025  0.00  0.00    +0.004 A 
ENDBRANCH  33  34
ENDBRANCH  32  33
ENDBRANCH  10  32
TORSDOF 9
