REMARK  Name = ZINC20745017
REMARK  8 active torsions:
REMARK  status: ('A' for Active; 'I' for Inactive)
REMARK    1  A    between atoms: C_1  and  C_2
REMARK    2  A    between atoms: C_2  and  C_3
REMARK    3  A    between atoms: C_2  and  C_4
REMARK    4  A    between atoms: C_4  and  C_6
REMARK    5  A    between atoms: C_4  and  N_10
REMARK    6  A    between atoms: C_6  and  O_8
REMARK    7  A    between atoms: O_8  and  C_9
REMARK    8  A    between atoms: C_22  and  C_24
REMARK                            x       y       z     vdW  Elec       q    Type
REMARK                         _______ _______ _______ _____ _____    ______ ____
ROOT
ATOM      1  N   UNL     1      -1.149  -2.385  -2.463  0.00  0.00    -0.286 N 
ATOM      2  C   UNL     1      -1.796  -1.209  -2.337  0.00  0.00    +0.304 C 
ATOM      3  O   UNL     1      -1.874  -0.671  -1.250  0.00  0.00    -0.253 OA
ATOM      4  N   UNL     1      -2.355  -0.629  -3.418  0.00  0.00    -0.273 N 
ATOM      5  C   UNL     1      -2.961   0.708  -3.327  0.00  0.00    +0.116 C 
ATOM      6  C   UNL     1      -4.466   0.600  -3.601  0.00  0.00    +0.076 C 
ATOM      7  C   UNL     1      -4.679  -0.280  -4.808  0.00  0.00    +0.066 A 
ATOM      8  C   UNL     1      -3.756  -1.133  -5.302  0.00  0.00    +0.064 A 
ATOM      9  N   UNL     1      -4.311  -1.748  -6.381  0.00  0.00    -0.346 N 
ATOM     10  H   UNL     1      -3.891  -2.417  -6.944  0.00  0.00    +0.167 HD
ATOM     11  C   UNL     1      -5.562  -1.249  -6.519  0.00  0.00    +0.197 A 
ATOM     12  N   UNL     1      -5.771  -0.371  -5.573  0.00  0.00    -0.240 NA
ATOM     13  C   UNL     1      -2.371  -1.316  -4.722  0.00  0.00    +0.156 C 
ATOM     14  H   UNL     1      -1.147  -2.849  -3.315  0.00  0.00    +0.151 HD
ENDROOT
BRANCH  13  15
ATOM     15  C   UNL     1      -1.342  -0.704  -5.637  0.00  0.00    -0.021 A 
ATOM     16  C   UNL     1      -1.465   0.615  -6.031  0.00  0.00    +0.007 A 
ATOM     17  C   UNL     1      -0.521   1.177  -6.870  0.00  0.00    +0.020 A 
ATOM     18  C   UNL     1       0.546   0.419  -7.316  0.00  0.00    +0.041 A 
ATOM     19  C   UNL     1       0.669  -0.902  -6.922  0.00  0.00    +0.020 A 
ATOM     20  C   UNL     1      -0.273  -1.461  -6.078  0.00  0.00    +0.007 A 
ATOM     21 CL   UNL     1       1.732   1.123  -8.370  0.00  0.00    -0.084 Cl
ENDBRANCH  13  15
BRANCH   1  22
ATOM     22  C   UNL     1      -0.448  -2.961  -1.313  0.00  0.00    +0.186 C 
BRANCH  22  24
ATOM     23  C   UNL     1      -1.946  -4.960  -1.268  0.00  0.00    +0.009 C 
ATOM     24  C   UNL     1      -1.435  -3.763  -0.464  0.00  0.00    +0.014 C 
ATOM     25  C   UNL     1      -0.733  -4.261   0.801  0.00  0.00    +0.009 C 
ENDBRANCH  22  24
BRANCH  22  26
ATOM     26  C   UNL     1       0.651  -3.871  -1.800  0.00  0.00    +0.328 C 
ATOM     27  O   UNL     1       0.830  -4.022  -2.985  0.00  0.00    -0.249 OA
BRANCH  26  28
ATOM     28  O   UNL     1       1.431  -4.514  -0.916  0.00  0.00    -0.467 OA
ATOM     29  C   UNL     1       2.452  -5.360  -1.447  0.00  0.00    +0.280 C 
ENDBRANCH  26  28
ENDBRANCH  22  26
ENDBRANCH   1  22
TORSDOF 5
