REMARK  Name = ZINC37987138
REMARK  7 active torsions:
REMARK  status: ('A' for Active; 'I' for Inactive)
REMARK    1  A    between atoms: C_1  and  C_2
REMARK    2  A    between atoms: C_2  and  C_3
REMARK    3  A    between atoms: C_3  and  N_4
REMARK    4  A    between atoms: C_5  and  N_21
REMARK    5  A    between atoms: C_6  and  N_13
REMARK    6  A    between atoms: N_13  and  C_14
REMARK    7  A    between atoms: C_14  and  C_15
REMARK                            x       y       z     vdW  Elec       q    Type
REMARK                         _______ _______ _______ _____ _____    ______ ____
ROOT
ATOM      1  N   UNL     1       0.738  -1.962  -1.265  0.00  0.00    -0.281 N 
ATOM      2  C   UNL     1       1.784  -2.636  -0.676  0.00  0.00    +0.127 A 
ATOM      3  C   UNL     1       1.793  -4.004  -0.689  0.00  0.00    +0.131 A 
ATOM      4  C   UNL     1       0.730  -4.688  -1.305  0.00  0.00    +0.277 A 
ATOM      5  O   UNL     1       0.715  -5.907  -1.328  0.00  0.00    -0.266 OA
ATOM      6  N   UNL     1      -0.274  -3.987  -1.869  0.00  0.00    -0.273 N 
ATOM      7  H   UNL     1      -1.008  -4.457  -2.293  0.00  0.00    +0.173 HD
ATOM      8  C   UNL     1      -0.269  -2.642  -1.843  0.00  0.00    +0.331 A 
ATOM      9  O   UNL     1      -1.188  -2.030  -2.354  0.00  0.00    -0.246 OA
ENDROOT
BRANCH   2  10
ATOM     10  N   UNL     1       2.812  -1.940  -0.082  0.00  0.00    -0.343 N 
ATOM     11  H   UNL     1       2.801  -0.970  -0.076  0.00  0.00    +0.144 HD
ATOM     12  H   UNL     1       3.547  -2.419   0.332  0.00  0.00    +0.144 HD
ENDBRANCH   2  10
BRANCH   3  13
ATOM     13  N   UNL     1       2.857  -4.720  -0.092  0.00  0.00    -0.332 N 
ATOM     14  H   UNL     1       3.587  -4.242   0.331  0.00  0.00    +0.147 HD
BRANCH  13  15
ATOM     15  C   UNL     1       2.855  -6.185  -0.111  0.00  0.00    +0.144 C 
BRANCH  15  16
ATOM     16  C   UNL     1       4.089  -6.698   0.586  0.00  0.00    +0.008 A 
ATOM     17  C   UNL     1       4.264  -7.005   1.894  0.00  0.00    +0.014 A 
ATOM     18  C   UNL     1       5.498  -7.465   2.315  0.00  0.00    +0.023 A 
ATOM     19  C   UNL     1       6.497  -7.594   1.406  0.00  0.00    +0.055 A 
ATOM     20  S   UNL     1       5.696  -7.066  -0.099  0.00  0.00    -0.085 S 
ATOM     21 BR   UNL     1       8.273  -8.188   1.665  0.00  0.00    -0.043 Br
ENDBRANCH  15  16
ENDBRANCH  13  15
ENDBRANCH   3  13
BRANCH   1  22
ATOM     22  C   UNL     1       0.718  -0.497  -1.257  0.00  0.00    +0.128 C 
BRANCH  22  24
ATOM     23  C   UNL     1      -0.019   1.526   0.010  0.00  0.00    +0.005 C 
ATOM     24  C   UNL     1       0.002  -0.004   0.002  0.00  0.00    +0.018 C 
ENDBRANCH  22  24
ENDBRANCH   1  22
TORSDOF 6
