REMARK  Name = ZINC09209488
REMARK  6 active torsions:
REMARK  status: ('A' for Active; 'I' for Inactive)
REMARK    1  A    between atoms: C_1  and  C_2
REMARK    2  A    between atoms: C_5  and  N_8
REMARK    3  A    between atoms: C_11  and  C_13
REMARK    4  A    between atoms: C_14  and  C_34
REMARK    5  A    between atoms: N_27  and  C_28
REMARK    6  A    between atoms: C_38  and  O_40
REMARK                            x       y       z     vdW  Elec       q    Type
REMARK                         _______ _______ _______ _____ _____    ______ ____
ROOT
ATOM      1  N   UNL     1      -5.973   5.861  -0.858  0.00  0.00    -0.214 N 
ATOM      2  C   UNL     1      -4.742   5.322  -0.595  0.00  0.00    +0.164 A 
ATOM      3  C   UNL     1      -4.911   3.947  -0.576  0.00  0.00    +0.044 A 
ATOM      4  C   UNL     1      -6.246   3.671  -0.830  0.00  0.00    +0.068 A 
ATOM      5  N   UNL     1      -6.883   4.805  -0.998  0.00  0.00    -0.169 NA
ATOM      6  C   UNL     1      -6.863   2.297  -0.900  0.00  0.00    +0.068 C 
ATOM      7  C   UNL     1      -3.695   3.090  -0.304  0.00  0.00    +0.146 C 
ATOM      8  N   UNL     1      -2.435   3.813  -0.082  0.00  0.00    -0.269 N 
ATOM      9  C   UNL     1      -1.257   3.136   0.175  0.00  0.00    +0.062 A 
ATOM     10  C   UNL     1      -1.236   1.748   0.225  0.00  0.00    +0.025 A 
ATOM     11  C   UNL     1      -0.056   1.084   0.489  0.00  0.00    +0.002 A 
ATOM     12  C   UNL     1       1.118   1.793   0.695  0.00  0.00    +0.002 A 
ATOM     13  C   UNL     1       1.120   3.168   0.645  0.00  0.00    +0.030 A 
ATOM     14  C   UNL     1      -0.070   3.860   0.384  0.00  0.00    +0.087 A 
ATOM     15  N   UNL     1      -0.069   5.216   0.334  0.00  0.00    -0.227 NA
ATOM     16  C   UNL     1      -1.162   5.896   0.092  0.00  0.00    +0.164 C 
ATOM     17  C   UNL     1      -2.437   5.189  -0.134  0.00  0.00    +0.169 C 
ATOM     18  N   UNL     1      -3.528   5.872  -0.375  0.00  0.00    -0.209 NA
ATOM     19  N   UNL     1      -1.121   7.277   0.049  0.00  0.00    -0.297 N 
ATOM     20  H   UNL     1      -1.942   7.784  -0.049  0.00  0.00    +0.154 HD
ENDROOT
BRANCH   1  25
ATOM     21  C   UNL     1      -7.173  11.389  -1.303  0.00  0.00    +0.044 C 
ATOM     22  C   UNL     1      -6.855   9.921  -1.185  0.00  0.00    -0.050 A 
ATOM     23  C   UNL     1      -7.516   9.005  -1.982  0.00  0.00    +0.005 A 
ATOM     24  C   UNL     1      -7.226   7.658  -1.876  0.00  0.00    +0.028 A 
ATOM     25  C   UNL     1      -6.269   7.225  -0.968  0.00  0.00    +0.068 A 
ATOM     26  C   UNL     1      -5.611   8.147  -0.164  0.00  0.00    +0.028 A 
ATOM     27  C   UNL     1      -5.901   9.492  -0.280  0.00  0.00    +0.005 A 
ENDBRANCH   1  25
BRANCH  19  28
ATOM     28  C   UNL     1       0.103   7.943   0.146  0.00  0.00    +0.032 A 
ATOM     29  C   UNL     1       0.191   9.142   0.842  0.00  0.00    +0.023 A 
ATOM     30  C   UNL     1       1.403   9.795   0.940  0.00  0.00    +0.002 A 
ATOM     31  C   UNL     1       2.528   9.263   0.337  0.00  0.00    +0.000 A 
ATOM     32  C   UNL     1       2.444   8.072  -0.362  0.00  0.00    +0.002 A 
ATOM     33  C   UNL     1       1.235   7.411  -0.459  0.00  0.00    +0.023 A 
ENDBRANCH  19  28
BRANCH   7  34
ATOM     34  C   UNL     1      -3.974   2.253   0.918  0.00  0.00    -0.019 A 
ATOM     35  C   UNL     1      -3.838   2.804   2.179  0.00  0.00    +0.006 A 
ATOM     36  C   UNL     1      -4.098   2.041   3.301  0.00  0.00    +0.004 A 
ATOM     37  C   UNL     1      -4.483   0.721   3.166  0.00  0.00    +0.045 A 
ATOM     38  C   UNL     1      -4.615   0.164   1.903  0.00  0.00    +0.117 A 
ATOM     39  C   UNL     1      -4.359   0.934   0.777  0.00  0.00    +0.051 A 
BRANCH  38  40
ATOM     40  O   UNL     1      -4.994  -1.134   1.767  0.00  0.00    -0.507 OA
ATOM     41  H   UNL     1      -4.257  -1.760   1.750  0.00  0.00    +0.292 HD
ENDBRANCH  38  40
ENDBRANCH   7  34
TORSDOF 4
