REMARK  Name = ZINC12795048
REMARK  6 active torsions:
REMARK  status: ('A' for Active; 'I' for Inactive)
REMARK    1  A    between atoms: C_1  and  N_2
REMARK    2  A    between atoms: N_4  and  N_16
REMARK    3  A    between atoms: C_5  and  C_8
REMARK    4  A    between atoms: C_11  and  O_15
REMARK    5  A    between atoms: C_13  and  O_14
REMARK    6  A    between atoms: C_17  and  C_18
REMARK                            x       y       z     vdW  Elec       q    Type
REMARK                         _______ _______ _______ _____ _____    ______ ____
ROOT
ATOM      1  C   UNL     1       1.490  -2.635   0.006  0.00  0.00    +0.173 C 
ATOM      2  N   UNL     1       1.268  -1.187  -0.002  0.00  0.00    -0.263 NA
ATOM      3  C   UNL     1       2.287  -0.368   0.071  0.00  0.00    +0.189 A 
ATOM      4  N   UNL     1       2.298   1.013   0.079  0.00  0.00    -0.208 N 
ATOM      5  C   UNL     1       3.504   1.656   0.169  0.00  0.00    +0.085 A 
ATOM      6  C   UNL     1       4.641   0.934   0.242  0.00  0.00    +0.077 A 
ATOM      7  S   UNL     1       4.029  -0.742   0.184  0.00  0.00    -0.056 S 
ENDROOT
BRANCH   5   8
ATOM      8  C   UNL     1       3.559   3.134   0.186  0.00  0.00    +0.043 A 
ATOM      9  C   UNL     1       2.551   3.864   0.816  0.00  0.00    +0.017 A 
ATOM     10  C   UNL     1       2.606   5.242   0.830  0.00  0.00    +0.046 A 
ATOM     11  C   UNL     1       3.663   5.906   0.220  0.00  0.00    +0.120 A 
ATOM     12  C   UNL     1       4.669   5.187  -0.408  0.00  0.00    +0.091 A 
ATOM     13  C   UNL     1       4.626   3.804  -0.424  0.00  0.00    +0.129 A 
BRANCH  13  14
ATOM     14  O   UNL     1       5.614   3.098  -1.034  0.00  0.00    -0.506 OA
ATOM     15  H   UNL     1       5.450   2.920  -1.970  0.00  0.00    +0.292 HD
ENDBRANCH  13  14
BRANCH  11  16
ATOM     16  O   UNL     1       3.711   7.264   0.239  0.00  0.00    -0.507 OA
ATOM     17  H   UNL     1       4.179   7.630   1.002  0.00  0.00    +0.292 HD
ENDBRANCH  11  16
ENDBRANCH   5   8
BRANCH   4  18
ATOM     18  N   UNL     1       1.103   1.740   0.002  0.00  0.00    -0.172 NA
ATOM     19  C   UNL     1       0.053   1.208  -0.547  0.00  0.00    +0.142 C 
BRANCH  19  20
ATOM     20  C   UNL     1      -1.236   1.922  -0.518  0.00  0.00    +0.013 A 
ATOM     21  C   UNL     1      -2.375   1.361  -1.111  0.00  0.00    +0.012 A 
ATOM     22  C   UNL     1      -3.560   2.072  -1.056  0.00  0.00    +0.020 A 
ATOM     23  C   UNL     1      -3.584   3.303  -0.423  0.00  0.00    +0.111 A 
ATOM     24  N   UNL     1      -2.496   3.807   0.126  0.00  0.00    -0.263 NA
ATOM     25  C   UNL     1      -1.345   3.167   0.106  0.00  0.00    +0.120 A 
ENDBRANCH  19  20
ENDBRANCH   4  18
TORSDOF 5
