REMARK  Name = ZINC03285710
REMARK  8 active torsions:
REMARK  status: ('A' for Active; 'I' for Inactive)
REMARK    1  A    between atoms: C_4  and  C_7
REMARK    2  A    between atoms: C_7  and  C_8
REMARK    3  A    between atoms: C_13  and  N_14
REMARK    4  A    between atoms: C_15  and  C_17
REMARK    5  A    between atoms: C_17  and  S_18
REMARK    6  A    between atoms: S_18  and  C_19
REMARK    7  A    between atoms: C_21  and  C_25
REMARK    8  A    between atoms: N_23  and  N_24
REMARK                            x       y       z     vdW  Elec       q    Type
REMARK                         _______ _______ _______ _____ _____    ______ ____
ROOT
ATOM      1  N   UNL     1      -2.222  -0.314   1.129  0.00  0.00    -0.285 N 
ATOM      2  C   UNL     1      -3.198  -1.060   1.683  0.00  0.00    +0.227 C 
ATOM      3  O   UNL     1      -3.767  -0.670   2.681  0.00  0.00    -0.275 OA
ATOM      4  H   UNL     1      -1.822  -0.586   0.288  0.00  0.00    +0.155 HD
ENDROOT
BRANCH   1  10
ATOM      5  C   UNL     1      -1.199   1.871   1.028  0.00  0.00    -0.022 A 
ATOM      6  C   UNL     1      -0.763   3.019   1.662  0.00  0.00    +0.006 A 
ATOM      7  C   UNL     1      -0.920   3.158   3.028  0.00  0.00    +0.000 A 
ATOM      8  C   UNL     1      -1.504   2.144   3.767  0.00  0.00    +0.002 A 
ATOM      9  C   UNL     1      -1.936   0.992   3.140  0.00  0.00    +0.023 A 
ATOM     10  C   UNL     1      -1.785   0.852   1.767  0.00  0.00    +0.037 A 
BRANCH   5  11
ATOM     11  C   UNL     1      -1.033   1.723  -0.462  0.00  0.00    +0.072 C 
BRANCH  11  15
ATOM     12  C   UNL     1      -4.632   2.928  -2.423  0.00  0.00    +0.000 A 
ATOM     13  C   UNL     1      -3.638   3.855  -2.171  0.00  0.00    +0.000 A 
ATOM     14  C   UNL     1      -2.474   3.466  -1.537  0.00  0.00    +0.004 A 
ATOM     15  C   UNL     1      -2.303   2.148  -1.154  0.00  0.00    -0.043 A 
ATOM     16  C   UNL     1      -3.294   1.220  -1.411  0.00  0.00    +0.004 A 
ATOM     17  C   UNL     1      -4.461   1.611  -2.041  0.00  0.00    +0.000 A 
ENDBRANCH  11  15
ENDBRANCH   5  11
ENDBRANCH   1  10
BRANCH   2  18
ATOM     18  C   UNL     1      -3.582  -2.379   1.063  0.00  0.00    +0.173 C 
BRANCH  18  19
ATOM     19  S   UNL     1      -4.912  -3.136   2.030  0.00  0.00    -0.077 S 
BRANCH  19  20
ATOM     20  C   UNL     1      -5.156  -4.618   1.109  0.00  0.00    +0.187 A 
ATOM     21  N   UNL     1      -4.492  -4.966   0.033  0.00  0.00    -0.221 NA
ATOM     22  C   UNL     1      -4.950  -6.166  -0.402  0.00  0.00    +0.092 A 
ATOM     23  C   UNL     1      -5.933  -6.569   0.441  0.00  0.00    +0.138 A 
ATOM     24  N   UNL     1      -6.060  -5.593   1.400  0.00  0.00    -0.251 N 
BRANCH  22  25
ATOM     25  C   UNL     1      -4.462  -6.908  -1.591  0.00  0.00    +0.002 A 
ATOM     26  C   UNL     1      -5.021  -8.141  -1.924  0.00  0.00    +0.010 A 
ATOM     27  C   UNL     1      -4.567  -8.823  -3.034  0.00  0.00    +0.001 A 
ATOM     28  C   UNL     1      -3.552  -8.292  -3.809  0.00  0.00    +0.000 A 
ATOM     29  C   UNL     1      -2.990  -7.071  -3.480  0.00  0.00    +0.001 A 
ATOM     30  C   UNL     1      -3.440  -6.377  -2.375  0.00  0.00    +0.010 A 
ENDBRANCH  22  25
BRANCH  24  31
ATOM     31  N   UNL     1      -6.935  -5.599   2.449  0.00  0.00    -0.296 N 
ATOM     32  H   UNL     1      -7.809  -5.164   2.194  0.00  0.00    +0.163 HD
ATOM     33  H   UNL     1      -7.084  -6.537   2.790  0.00  0.00    +0.163 HD
ENDBRANCH  24  31
ENDBRANCH  19  20
ENDBRANCH  18  19
ENDBRANCH   2  18
TORSDOF 8
