REMARK  Name = ZINC13008010
REMARK  8 active torsions:
REMARK  status: ('A' for Active; 'I' for Inactive)
REMARK    1  A    between atoms: C_1  and  N_2
REMARK    2  A    between atoms: C_9  and  C_11
REMARK    3  A    between atoms: C_11  and  C_13
REMARK    4  A    between atoms: C_11  and  N_61
REMARK    5  A    between atoms: C_13  and  N_14
REMARK    6  A    between atoms: C_15  and  C_17
REMARK    7  A    between atoms: N_19  and  C_20
REMARK    8  A    between atoms: C_25  and  C_26
REMARK                            x       y       z     vdW  Elec       q    Type
REMARK                         _______ _______ _______ _____ _____    ______ ____
ROOT
ATOM      1  C   UNL     1      -3.374   6.175  -0.990  0.00  0.00    -0.020 C 
ENDROOT
BRANCH   1  10
ATOM      2  C   UNL     1       0.476   1.681   1.626  0.00  0.00    +0.129 C 
ATOM      3  N   UNL     1      -0.647   1.496   0.697  0.00  0.00    -0.332 N 
ATOM      4  C   UNL     1      -0.178   0.958  -0.599  0.00  0.00    +0.109 C 
ATOM      5  C   UNL     1      -1.186   1.562  -1.605  0.00  0.00    +0.056 C 
ATOM      6  C   UNL     1      -1.659   2.815  -0.896  0.00  0.00    -0.025 A 
ATOM      7  C   UNL     1      -1.303   2.710   0.444  0.00  0.00    +0.033 A 
ATOM      8  C   UNL     1      -1.622   3.751   1.314  0.00  0.00    +0.023 A 
ATOM      9  C   UNL     1      -2.289   4.865   0.847  0.00  0.00    +0.004 A 
ATOM     10  C   UNL     1      -2.644   4.957  -0.485  0.00  0.00    -0.059 A 
ATOM     11  C   UNL     1      -2.328   3.929  -1.356  0.00  0.00    +0.007 A 
ENDBRANCH   1  10
BRANCH   1  17
ATOM     12  C   UNL     1      -5.623   7.041  -0.760  0.00  0.00    -0.078 C 
ATOM     13  C   UNL     1      -6.765   7.261   0.235  0.00  0.00    -0.019 C 
ATOM     14  C   UNL     1      -6.318   8.261   1.306  0.00  0.00    -0.004 C 
ATOM     15  C   UNL     1      -5.061   7.726   1.998  0.00  0.00    -0.019 C 
ATOM     16  C   UNL     1      -3.969   7.492   0.953  0.00  0.00    -0.078 C 
ATOM     17  N   UNL     1      -4.452   6.504  -0.034  0.00  0.00    +0.385 N 
ATOM     18  H   UNL     1      -4.731   5.648   0.461  0.00  0.00    -0.081 HD
ENDBRANCH   1  17
BRANCH   1  19
ATOM     19  C   UNL     1      -2.393   7.344  -1.109  0.00  0.00    +0.094 C 
BRANCH  19  20
ATOM     20  N   UNL     1      -3.091   8.513  -1.649  0.00  0.00    -0.309 N 
ATOM     21  C   UNL     1      -2.456   9.700  -1.729  0.00  0.00    +0.299 C 
ATOM     22  O   UNL     1      -1.306   9.799  -1.354  0.00  0.00    -0.265 OA
ATOM     23  H   UNL     1      -4.010   8.434  -1.949  0.00  0.00    +0.149 HD
BRANCH  21  24
ATOM     24  C   UNL     1      -3.168  10.892  -2.279  0.00  0.00    +0.303 C 
ATOM     25  O   UNL     1      -4.318  10.793  -2.655  0.00  0.00    -0.265 OA
ATOM     26  N   UNL     1      -2.533  12.078  -2.359  0.00  0.00    -0.277 N 
ATOM     27  H   UNL     1      -1.593  12.142  -2.125  0.00  0.00    +0.155 HD
BRANCH  26  28
ATOM     28  C   UNL     1      -3.225  13.211  -2.777  0.00  0.00    +0.053 A 
ATOM     29  C   UNL     1      -4.568  13.364  -2.462  0.00  0.00    +0.044 A 
ATOM     30  C   UNL     1      -5.253  14.490  -2.878  0.00  0.00    +0.043 A 
ATOM     31  C   UNL     1      -4.606  15.473  -3.612  0.00  0.00    +0.021 A 
ATOM     32  C   UNL     1      -3.273  15.338  -3.933  0.00  0.00    +0.022 A 
ATOM     33  C   UNL     1      -2.566  14.208  -3.514  0.00  0.00    +0.073 A 
ATOM     34 CL   UNL     1      -6.933  14.674  -2.481  0.00  0.00    -0.083 Cl
BRANCH  33  35
ATOM     35  C   UNL     1      -1.179  14.065  -3.840  0.00  0.00    +0.101 C 
ATOM     36  N   UNL     1      -0.079  13.951  -4.098  0.00  0.00    -0.191 NA
ENDBRANCH  33  35
ENDBRANCH  26  28
ENDBRANCH  21  24
ENDBRANCH  19  20
ENDBRANCH   1  19
TORSDOF 7
