REMARK  Name = ZINC22601400
REMARK  5 active torsions:
REMARK  status: ('A' for Active; 'I' for Inactive)
REMARK    1  A    between atoms: C_1  and  C_2
REMARK    2  A    between atoms: C_4  and  C_26
REMARK    3  A    between atoms: C_6  and  S_8
REMARK    4  A    between atoms: S_8  and  C_9
REMARK    5  A    between atoms: C_9  and  C_10
REMARK                            x       y       z     vdW  Elec       q    Type
REMARK                         _______ _______ _______ _____ _____    ______ ____
ROOT
ATOM      1  C   UNL     1       0.056  -2.148   5.299  0.00  0.00    +0.226 C 
ATOM      2  O   UNL     1       0.073  -3.354   5.431  0.00  0.00    -0.275 OA
ATOM      3  N   UNL     1       0.050  -1.351   6.386  0.00  0.00    -0.296 N 
ATOM      4  C   UNL     1       0.023   0.113   6.248  0.00  0.00    +0.114 C 
ATOM      5  C   UNL     1      -1.288   0.647   6.836  0.00  0.00    +0.072 C 
ATOM      6  C   UNL     1      -1.536  -0.017   8.169  0.00  0.00    +0.023 A 
ATOM      7  C   UNL     1      -0.937  -1.159   8.570  0.00  0.00    -0.002 A 
ATOM      8  C   UNL     1      -1.440  -1.467   9.892  0.00  0.00    +0.005 A 
ATOM      9  C   UNL     1      -1.185  -2.512  10.786  0.00  0.00    +0.010 A 
ATOM     10  C   UNL     1      -1.859  -2.484  11.982  0.00  0.00    +0.001 A 
ATOM     11  C   UNL     1      -2.752  -1.474  12.300  0.00  0.00    +0.002 A 
ATOM     12  C   UNL     1      -3.023  -0.428  11.435  0.00  0.00    +0.026 A 
ATOM     13  C   UNL     1      -2.354  -0.431  10.212  0.00  0.00    +0.047 A 
ATOM     14  N   UNL     1      -2.385   0.426   9.150  0.00  0.00    -0.358 N 
ATOM     15  H   UNL     1      -2.928   1.229   9.098  0.00  0.00    +0.166 HD
ATOM     16  C   UNL     1       0.064  -1.922   7.744  0.00  0.00    +0.145 C 
ENDROOT
BRANCH   1  17
ATOM     17  C   UNL     1       0.041  -1.542   3.919  0.00  0.00    +0.173 C 
BRANCH  17  18
ATOM     18  S   UNL     1       0.053  -2.864   2.678  0.00  0.00    -0.077 S 
BRANCH  18  24
ATOM     19  C   UNL     1      -0.018   1.503   0.010  0.00  0.00    +0.066 C 
ATOM     20  C   UNL     1       0.002  -0.004   0.002  0.00  0.00    +0.043 A 
ATOM     21  C   UNL     1       0.006  -0.699  -1.198  0.00  0.00    +0.046 A 
ATOM     22  C   UNL     1       0.025  -2.084  -1.161  0.00  0.00    +0.043 A 
ATOM     23  N   UNL     1       0.039  -2.699   0.010  0.00  0.00    -0.227 NA
ATOM     24  C   UNL     1       0.035  -2.005   1.140  0.00  0.00    +0.189 A 
ATOM     25  N   UNL     1       0.022  -0.679   1.139  0.00  0.00    -0.227 NA
ATOM     26  C   UNL     1       0.029  -2.881  -2.440  0.00  0.00    +0.066 C 
ENDBRANCH  18  24
ENDBRANCH  17  18
ENDBRANCH   1  17
TORSDOF 3
