REMARK  Name = ZINC32786777
REMARK  3 active torsions:
REMARK  status: ('A' for Active; 'I' for Inactive)
REMARK    1  A    between atoms: C_9  and  C_11
REMARK    2  A    between atoms: N_13  and  C_14
REMARK    3  A    between atoms: C_14  and  C_15
REMARK                            x       y       z     vdW  Elec       q    Type
REMARK                         _______ _______ _______ _____ _____    ______ ____
ROOT
ATOM      1  C   UNL     1      -7.683  -1.242  -3.022  0.00  0.00    +0.001 A 
ATOM      2  C   UNL     1      -9.034  -0.994  -3.139  0.00  0.00    +0.010 A 
ATOM      3  C   UNL     1      -9.520   0.306  -2.999  0.00  0.00    +0.004 A 
ATOM      4  C   UNL     1     -10.853   0.908  -3.063  0.00  0.00    -0.019 A 
ATOM      5  C   UNL     1     -10.706   2.226  -2.850  0.00  0.00    +0.020 A 
ATOM      6  N   UNL     1      -9.380   2.510  -2.646  0.00  0.00    -0.357 N 
ATOM      7  H   UNL     1      -9.065   3.545  -2.445  0.00  0.00    +0.166 HD
ATOM      8  C   UNL     1      -8.632   1.365  -2.737  0.00  0.00    +0.059 A 
ATOM      9  C   UNL     1      -7.258   1.097  -2.622  0.00  0.00    +0.061 A 
ATOM     10  C   UNL     1      -6.797  -0.209  -2.772  0.00  0.00    +0.015 A 
ATOM     11  C   UNL     1     -11.830   3.234  -2.841  0.00  0.00    +0.053 C 
ATOM     12  C   UNL     1     -12.986   2.704  -1.991  0.00  0.00    +0.006 C 
ATOM     13  C   UNL     1     -13.932   1.882  -2.862  0.00  0.00    +0.001 C 
ATOM     14  C   UNL     1     -13.154   1.150  -3.953  0.00  0.00    +0.005 C 
ATOM     15  C   UNL     1     -12.153   0.188  -3.308  0.00  0.00    +0.037 C 
ENDROOT
BRANCH   9  16
ATOM     16  C   UNL     1      -6.309   2.192  -2.349  0.00  0.00    +0.246 C 
ATOM     17  O   UNL     1      -6.714   3.332  -2.224  0.00  0.00    -0.270 OA
ATOM     18  N   UNL     1      -4.991   1.930  -2.240  0.00  0.00    -0.304 N 
ATOM     19  H   UNL     1      -4.624   0.899  -2.353  0.00  0.00    +0.149 HD
BRANCH  18  20
ATOM     20  C   UNL     1      -4.048   3.018  -1.970  0.00  0.00    +0.181 C 
BRANCH  20  21
ATOM     21  C   UNL     1      -2.649   2.463  -1.894  0.00  0.00    +0.151 A 
ATOM     22  N   UNL     1      -1.814   2.333  -2.889  0.00  0.00    -0.133 NA
ATOM     23  N   UNL     1      -0.711   1.825  -2.464  0.00  0.00    -0.134 NA
ATOM     24  C   UNL     1      -0.793   1.611  -1.177  0.00  0.00    +0.134 A 
ATOM     25  N   UNL     1      -2.024   2.006  -0.781  0.00  0.00    -0.313 N 
ATOM     26  C   UNL     1      -2.209   1.794   0.660  0.00  0.00    +0.125 C 
ATOM     27  C   UNL     1      -0.786   1.609   1.240  0.00  0.00    +0.029 C 
ATOM     28  C   UNL     1      -0.013   1.086   0.008  0.00  0.00    +0.078 C 
ENDBRANCH  20  21
ENDBRANCH  18  20
ENDBRANCH   9  16
TORSDOF 3
