REMARK  Name = ZINC39415577
REMARK  10 active torsions:
REMARK  status: ('A' for Active; 'I' for Inactive)
REMARK    1  A    between atoms: C_1  and  C_2
REMARK    2  A    between atoms: C_2  and  C_3
REMARK    3  A    between atoms: C_2  and  C_4
REMARK    4  A    between atoms: C_9  and  N_10
REMARK    5  A    between atoms: C_11  and  C_30
REMARK    6  A    between atoms: C_15  and  S_17
REMARK    7  A    between atoms: S_17  and  C_18
REMARK    8  A    between atoms: C_18  and  C_19
REMARK    9  A    between atoms: C_33  and  O_36
REMARK   10  A    between atoms: O_36  and  C_37
REMARK                            x       y       z     vdW  Elec       q    Type
REMARK                         _______ _______ _______ _____ _____    ______ ____
ROOT
ATOM      1  N   UNL     1      -1.126  -1.494  -2.101  0.00  0.00    -0.273 N 
ATOM      2  C   UNL     1      -0.161  -2.538  -2.489  0.00  0.00    +0.218 C 
ATOM      3  N   UNL     1       0.447  -2.090  -3.744  0.00  0.00    -0.286 N 
ATOM      4  N   UNL     1      -0.004  -1.006  -4.109  0.00  0.00    -0.180 NA
ATOM      5  C   UNL     1      -1.015  -0.497  -3.181  0.00  0.00    +0.273 C 
ATOM      6  H   UNL     1       1.124  -2.589  -4.228  0.00  0.00    +0.185 HD
ENDROOT
BRANCH   1  12
ATOM      7  C   UNL     1      -3.159  -2.155  -0.981  0.00  0.00    -0.024 A 
ATOM      8  C   UNL     1      -3.974  -2.124   0.134  0.00  0.00    +0.006 A 
ATOM      9  C   UNL     1      -3.597  -1.398   1.249  0.00  0.00    +0.000 A 
ATOM     10  C   UNL     1      -2.403  -0.701   1.252  0.00  0.00    +0.002 A 
ATOM     11  C   UNL     1      -1.583  -0.728   0.141  0.00  0.00    +0.023 A 
ATOM     12  C   UNL     1      -1.956  -1.460  -0.978  0.00  0.00    +0.037 A 
BRANCH   7  14
ATOM     13  C   UNL     1      -3.804  -4.405  -1.799  0.00  0.00    +0.012 C 
ATOM     14  C   UNL     1      -3.571  -2.946  -2.195  0.00  0.00    +0.015 C 
ATOM     15  C   UNL     1      -4.863  -2.361  -2.770  0.00  0.00    +0.012 C 
ENDBRANCH   7  14
ENDBRANCH   1  12
BRANCH   2  16
ATOM     16  C   UNL     1       0.895  -2.686  -1.425  0.00  0.00    -0.006 A 
ATOM     17  C   UNL     1       0.527  -2.793  -0.097  0.00  0.00    +0.011 A 
ATOM     18  C   UNL     1       1.494  -2.929   0.881  0.00  0.00    +0.046 A 
ATOM     19  C   UNL     1       2.835  -2.959   0.529  0.00  0.00    +0.120 A 
ATOM     20  C   UNL     1       3.202  -2.853  -0.805  0.00  0.00    +0.046 A 
ATOM     21  C   UNL     1       2.232  -2.722  -1.779  0.00  0.00    +0.011 A 
BRANCH  19  22
ATOM     22  O   UNL     1       3.788  -3.093   1.488  0.00  0.00    -0.495 OA
ATOM     23  C   UNL     1       5.149  -3.116   1.053  0.00  0.00    +0.277 C 
ENDBRANCH  19  22
ENDBRANCH   2  16
BRANCH   5  24
ATOM     24  S   UNL     1      -0.485   1.099  -2.502  0.00  0.00    -0.106 S 
BRANCH  24  25
ATOM     25  C   UNL     1       1.193   0.781  -1.891  0.00  0.00    +0.147 C 
BRANCH  25  26
ATOM     26  C   UNL     1       1.721   2.015  -1.206  0.00  0.00    +0.120 A 
ATOM     27  N   UNL     1       2.974   1.977  -0.682  0.00  0.00    -0.309 N 
ATOM     28  H   UNL     1       3.510   1.172  -0.751  0.00  0.00    +0.170 HD
ATOM     29  C   UNL     1       3.469   3.076  -0.062  0.00  0.00    +0.266 A 
ATOM     30  O   UNL     1       4.590   3.074   0.418  0.00  0.00    -0.267 OA
ATOM     31  C   UNL     1       2.659   4.210   0.011  0.00  0.00    +0.102 A 
ATOM     32  C   UNL     1       1.366   4.223  -0.540  0.00  0.00    +0.085 A 
ATOM     33  N   UNL     1       0.961   3.061  -1.151  0.00  0.00    -0.232 NA
ATOM     34  C   UNL     1       0.661   5.426  -0.397  0.00  0.00    +0.036 A 
ATOM     35  C   UNL     1       1.229   6.475   0.236  0.00  0.00    +0.048 A 
ATOM     36  S   UNL     1       2.834   5.839   0.690  0.00  0.00    -0.090 S 
ENDBRANCH  25  26
ENDBRANCH  24  25
ENDBRANCH   5  24
TORSDOF 7
