REMARK  Name = ZINC38621725
REMARK  8 active torsions:
REMARK  status: ('A' for Active; 'I' for Inactive)
REMARK    1  A    between atoms: C_1  and  C_2
REMARK    2  A    between atoms: N_4  and  C_5
REMARK    3  A    between atoms: C_8  and  S_11
REMARK    4  A    between atoms: S_11  and  N_14
REMARK    5  A    between atoms: N_14  and  C_15
REMARK    6  A    between atoms: C_15  and  C_16
REMARK    7  A    between atoms: C_16  and  C_18
REMARK    8  A    between atoms: C_16  and  N_28
REMARK                            x       y       z     vdW  Elec       q    Type
REMARK                         _______ _______ _______ _____ _____    ______ ____
ROOT
ATOM      1  C   UNL     1      -2.529  -6.937   2.644  0.00  0.00    +0.095 C 
ENDROOT
BRANCH   1   2
ATOM      2  N   UNL     1      -2.232  -5.574   3.093  0.00  0.00    -0.191 NA
ATOM      3  H   UNL     1      -2.374  -5.327   4.020  0.00  0.00    +0.148 HD
BRANCH   2   4
ATOM      4  S   UNL     1      -1.654  -4.455   2.017  0.00  0.00    +0.058 S 
ATOM      5  O   UNL     1      -0.581  -5.076   1.322  0.00  0.00    -0.153 OA
ATOM      6  O   UNL     1      -1.494  -3.242   2.739  0.00  0.00    -0.153 OA
BRANCH   4  10
ATOM      7  C   UNL     1      -4.920  -3.722  -1.034  0.00  0.00    +0.033 A 
ATOM      8  C   UNL     1      -4.858  -2.950   0.118  0.00  0.00    +0.025 A 
ATOM      9  C   UNL     1      -3.861  -3.176   1.047  0.00  0.00    +0.030 A 
ATOM     10  C   UNL     1      -2.925  -4.170   0.830  0.00  0.00    +0.105 A 
ATOM     11  C   UNL     1      -2.983  -4.941  -0.317  0.00  0.00    +0.030 A 
ATOM     12  C   UNL     1      -3.981  -4.724  -1.247  0.00  0.00    +0.025 A 
BRANCH   7  16
ATOM     13  C   UNL     1      -7.630  -4.303  -3.581  0.00  0.00    +0.109 C 
ATOM     14  C   UNL     1      -6.466  -4.532  -2.651  0.00  0.00    +0.214 C 
ATOM     15  O   UNL     1      -6.012  -5.648  -2.510  0.00  0.00    -0.276 OA
ATOM     16  N   UNL     1      -5.929  -3.496  -1.977  0.00  0.00    -0.286 N 
ATOM     17  H   UNL     1      -6.241  -2.593  -2.146  0.00  0.00    +0.155 HD
ENDBRANCH   7  16
ENDBRANCH   4  10
ENDBRANCH   2   4
ENDBRANCH   1   2
BRANCH   1  18
ATOM     18  C   UNL     1      -2.633  -7.862   3.858  0.00  0.00    -0.021 C 
BRANCH  18  19
ATOM     19  C   UNL     1      -3.816  -7.455   4.699  0.00  0.00    -0.052 A 
ATOM     20  C   UNL     1      -3.647  -6.615   5.757  0.00  0.00    +0.002 A 
ATOM     21  C   UNL     1      -4.728  -6.228   6.546  0.00  0.00    +0.001 A 
ATOM     22  C   UNL     1      -5.985  -6.680   6.282  0.00  0.00    +0.008 A 
ATOM     23  C   UNL     1      -6.199  -7.549   5.199  0.00  0.00    -0.018 A 
ATOM     24  C   UNL     1      -5.099  -7.937   4.392  0.00  0.00    -0.016 A 
ATOM     25  C   UNL     1      -5.314  -8.802   3.305  0.00  0.00    +0.009 A 
ATOM     26  C   UNL     1      -6.572  -9.248   3.038  0.00  0.00    +0.001 A 
ATOM     27  C   UNL     1      -7.654  -8.861   3.827  0.00  0.00    +0.001 A 
ATOM     28  C   UNL     1      -7.482  -8.036   4.896  0.00  0.00    +0.008 A 
ENDBRANCH  18  19
BRANCH  18  29
ATOM     29  N   UNL     1      -1.405  -7.761   4.658  0.00  0.00    +0.385 N 
ATOM     30  C   UNL     1      -1.416  -8.774   5.744  0.00  0.00    -0.078 C 
ATOM     31  C   UNL     1       0.083  -8.927   6.101  0.00  0.00    -0.020 C 
ATOM     32  C   UNL     1       0.779  -8.818   4.725  0.00  0.00    -0.020 C 
ATOM     33  C   UNL     1      -0.226  -8.076   3.824  0.00  0.00    -0.078 C 
ATOM     34  H   UNL     1      -1.319  -6.833   5.047  0.00  0.00    -0.081 HD
ENDBRANCH  18  29
ENDBRANCH   1  18
TORSDOF 7
