REMARK  Name = ZINC34226914
REMARK  2 active torsions:
REMARK  status: ('A' for Active; 'I' for Inactive)
REMARK    1  A    between atoms: C_1  and  S_2
REMARK    2  A    between atoms: S_2  and  C_3
REMARK                            x       y       z     vdW  Elec       q    Type
REMARK                         _______ _______ _______ _____ _____    ______ ____
ROOT
ATOM      1  C   UNL     1      -1.752  -0.467   0.016  0.00  0.00    +0.080 C 
ATOM      2  C   UNL     1      -2.388  -0.015   1.332  0.00  0.00    +0.017 C 
ATOM      3  C   UNL     1      -3.867  -0.405   1.344  0.00  0.00    +0.001 C 
ATOM      4  C   UNL     1      -3.995  -1.924   1.212  0.00  0.00    +0.003 C 
ATOM      5  C   UNL     1      -3.359  -2.376  -0.104  0.00  0.00    +0.038 C 
ATOM      6  C   UNL     1      -1.880  -1.986  -0.116  0.00  0.00    +0.179 C 
ATOM      7  F   UNL     1      -1.298  -2.399  -1.320  0.00  0.00    -0.244 F 
ENDROOT
BRANCH   1   9
ATOM      8  C   UNL     1      -0.022   1.810   0.012  0.00  0.00    +0.084 C 
ATOM      9  S   UNL     1       0.002  -0.004   0.002  0.00  0.00    -0.158 S 
ENDBRANCH   1   9
TORSDOF 1
