REMARK  Name = ZINC40321646
REMARK  7 active torsions:
REMARK  status: ('A' for Active; 'I' for Inactive)
REMARK    1  A    between atoms: C_4  and  S_7
REMARK    2  A    between atoms: S_7  and  C_10
REMARK    3  A    between atoms: C_13  and  C_15
REMARK    4  A    between atoms: N_17  and  C_18
REMARK    5  A    between atoms: C_18  and  C_19
REMARK    6  A    between atoms: C_19  and  C_21
REMARK    7  A    between atoms: C_19  and  N_26
REMARK                            x       y       z     vdW  Elec       q    Type
REMARK                         _______ _______ _______ _____ _____    ______ ____
ROOT
ATOM      1  C   UNL     1       5.720   0.108   4.553  0.00  0.00    +0.279 C 
ATOM      2  O   UNL     1       5.782  -0.563   5.567  0.00  0.00    -0.267 OA
ATOM      3  N   UNL     1       6.433   1.248   4.455  0.00  0.00    -0.310 N 
ATOM      4  H   UNL     1       6.383   1.782   3.647  0.00  0.00    +0.149 HD
ENDROOT
BRANCH   1   8
ATOM      5  C   UNL     1       3.862  -0.363   1.490  0.00  0.00    +0.246 A 
ATOM      6  C   UNL     1       3.460  -1.467   2.158  0.00  0.00    +0.070 A 
ATOM      7  C   UNL     1       4.101  -1.451   3.406  0.00  0.00    +0.056 A 
ATOM      8  C   UNL     1       4.870  -0.324   3.439  0.00  0.00    +0.192 A 
ATOM      9  O   UNL     1       4.716   0.321   2.264  0.00  0.00    -0.433 OA
BRANCH   5  10
ATOM     10  S   UNL     1       3.353   0.098  -0.132  0.00  0.00    +0.058 S 
ATOM     11  O   UNL     1       2.939  -1.096  -0.782  0.00  0.00    -0.161 OA
ATOM     12  O   UNL     1       4.375   0.935  -0.656  0.00  0.00    -0.161 OA
BRANCH  10  16
ATOM     13  C   UNL     1      -0.339   2.681   0.303  0.00  0.00    +0.000 A 
ATOM     14  C   UNL     1       0.915   3.263   0.298  0.00  0.00    +0.002 A 
ATOM     15  C   UNL     1       2.043   2.474   0.165  0.00  0.00    +0.027 A 
ATOM     16  C   UNL     1       1.916   1.103   0.038  0.00  0.00    +0.097 A 
ATOM     17  C   UNL     1       0.662   0.521   0.044  0.00  0.00    +0.027 A 
ATOM     18  C   UNL     1      -0.465   1.310   0.175  0.00  0.00    +0.002 A 
ENDBRANCH  10  16
ENDBRANCH   5  10
ENDBRANCH   1   8
BRANCH   3  19
ATOM     19  C   UNL     1       7.281   1.679   5.568  0.00  0.00    +0.097 C 
BRANCH  19  20
ATOM     20  C   UNL     1       8.075   2.920   5.154  0.00  0.00    +0.016 C 
BRANCH  20  21
ATOM     21  N   UNL     1       8.811   2.639   3.914  0.00  0.00    +0.387 N 
ATOM     22  C   UNL     1       9.740   1.525   4.141  0.00  0.00    -0.078 C 
ATOM     23  C   UNL     1      10.451   1.175   2.832  0.00  0.00    -0.019 C 
ATOM     24  C   UNL     1      11.229   2.397   2.337  0.00  0.00    -0.004 C 
ATOM     25  C   UNL     1      10.262   3.574   2.175  0.00  0.00    -0.019 C 
ATOM     26  C   UNL     1       9.558   3.835   3.508  0.00  0.00    -0.078 C 
ATOM     27  H   UNL     1       8.159   2.387   3.186  0.00  0.00    -0.081 HD
ENDBRANCH  20  21
BRANCH  20  28
ATOM     28  C   UNL     1       7.127   4.069   4.925  0.00  0.00    +0.093 A 
ATOM     29  C   UNL     1       6.878   5.067   5.792  0.00  0.00    +0.043 A 
ATOM     30  C   UNL     1       5.933   5.919   5.174  0.00  0.00    +0.041 A 
ATOM     31  C   UNL     1       5.662   5.391   3.967  0.00  0.00    +0.195 A 
ATOM     32  O   UNL     1       6.392   4.273   3.820  0.00  0.00    -0.469 OA
ENDBRANCH  20  28
ENDBRANCH  19  20
ENDBRANCH   3  19
TORSDOF 7
