REMARK  Name = ZINC21327197
REMARK  5 active torsions:
REMARK  status: ('A' for Active; 'I' for Inactive)
REMARK    1  A    between atoms: C_6  and  C_7
REMARK    2  A    between atoms: C_7  and  S_8
REMARK    3  A    between atoms: S_8  and  C_9
REMARK    4  A    between atoms: N_13  and  N_14
REMARK    5  A    between atoms: N_15  and  N_16
REMARK                            x       y       z     vdW  Elec       q    Type
REMARK                         _______ _______ _______ _____ _____    ______ ____
ROOT
ATOM      1  C   UNL     1       5.474   3.782  -1.613  0.00  0.00    +0.210 A 
ATOM      2  N   UNL     1       5.984   4.251  -0.499  0.00  0.00    -0.119 NA
ATOM      3  N   UNL     1       7.230   4.816  -0.798  0.00  0.00    -0.109 NA
ATOM      4  C   UNL     1       7.441   4.673  -2.084  0.00  0.00    +0.254 A 
ATOM      5  N   UNL     1       6.364   4.025  -2.620  0.00  0.00    -0.211 N 
ATOM      6  N   UNL     1       8.565   5.100  -2.779  0.00  0.00    -0.204 N 
ATOM      7  H   UNL     1       8.640   4.928  -3.863  0.00  0.00    +0.177 HD
ENDROOT
BRANCH   6   8
ATOM      8  N   UNL     1       9.604   5.750  -2.099  0.00  0.00    -0.189 NA
ATOM      9  C   UNL     1      10.592   6.234  -2.753  0.00  0.00    +0.037 C 
ATOM     10  C   UNL     1      10.592   6.243  -4.266  0.00  0.00    +0.052 C 
ATOM     11  C   UNL     1      10.911   7.669  -4.741  0.00  0.00    +0.006 C 
ATOM     12  C   UNL     1      12.225   8.131  -4.109  0.00  0.00    +0.001 C 
ATOM     13  C   UNL     1      12.070   8.209  -2.589  0.00  0.00    +0.006 C 
ATOM     14  C   UNL     1      11.792   6.808  -2.033  0.00  0.00    +0.052 C 
ENDBRANCH   6   8
BRANCH   5  15
ATOM     15  N   UNL     1       6.204   3.683  -3.933  0.00  0.00    -0.294 N 
ATOM     16  H   UNL     1       6.988   3.929  -4.665  0.00  0.00    +0.163 HD
ATOM     17  H   UNL     1       5.291   3.163  -4.258  0.00  0.00    +0.163 HD
ENDBRANCH   5  15
BRANCH   1  18
ATOM     18  S   UNL     1       3.917   2.973  -1.779  0.00  0.00    -0.080 S 
BRANCH  18  19
ATOM     19  C   UNL     1       3.245   2.963  -0.094  0.00  0.00    +0.112 C 
BRANCH  19  25
ATOM     20  C   UNL     1       0.752   3.037  -0.299  0.00  0.00    +0.006 A 
ATOM     21  C   UNL     1      -0.485   2.421  -0.300  0.00  0.00    +0.022 A 
ATOM     22  C   UNL     1      -0.578   1.056  -0.096  0.00  0.00    +0.059 A 
ATOM     23  C   UNL     1       0.569   0.308   0.109  0.00  0.00    +0.060 A 
ATOM     24  C   UNL     1       1.806   0.926   0.110  0.00  0.00    +0.026 A 
ATOM     25  C   UNL     1       1.897   2.290  -0.094  0.00  0.00    -0.036 A 
ATOM     26 CL   UNL     1       0.454  -1.405   0.366  0.00  0.00    -0.082 Cl
ATOM     27 CL   UNL     1      -2.132   0.281  -0.098  0.00  0.00    -0.082 Cl
ENDBRANCH  19  25
ENDBRANCH  18  19
ENDBRANCH   1  18
TORSDOF 5
