REMARK  Name = ZINC49527050
REMARK  6 active torsions:
REMARK  status: ('A' for Active; 'I' for Inactive)
REMARK    1  A    between atoms: C_1  and  C_2
REMARK    2  A    between atoms: C_2  and  C_4
REMARK    3  A    between atoms: C_2  and  N_11
REMARK    4  A    between atoms: N_11  and  S_12
REMARK    5  A    between atoms: S_12  and  C_15
REMARK    6  A    between atoms: N_21  and  N_22
REMARK                            x       y       z     vdW  Elec       q    Type
REMARK                         _______ _______ _______ _____ _____    ______ ____
ROOT
ATOM      1  S   UNL     1      -0.139  -0.902   2.549  0.00  0.00    +0.060 S 
ATOM      2  O   UNL     1       0.814  -1.354   3.502  0.00  0.00    -0.153 OA
ATOM      3  O   UNL     1      -1.030   0.173   2.814  0.00  0.00    -0.153 OA
ENDROOT
BRANCH   1   4
ATOM      4  C   UNL     1      -1.137  -2.294   2.137  0.00  0.00    +0.123 A 
ATOM      5  C   UNL     1      -2.420  -2.114   1.637  0.00  0.00    +0.033 A 
ATOM      6  C   UNL     1      -3.171  -3.233   1.326  0.00  0.00    +0.046 A 
ATOM      7  C   UNL     1      -2.619  -4.494   1.524  0.00  0.00    +0.132 A 
ATOM      8  N   UNL     1      -1.392  -4.625   2.004  0.00  0.00    -0.237 NA
ATOM      9  C   UNL     1      -0.651  -3.575   2.303  0.00  0.00    +0.141 A 
ATOM     10  N   UNL     1      -3.363  -5.628   1.217  0.00  0.00    -0.268 N 
ATOM     11  H   UNL     1      -4.262  -5.537   0.866  0.00  0.00    +0.167 HD
BRANCH  10  12
ATOM     12  N   UNL     1      -2.826  -6.869   1.409  0.00  0.00    -0.255 NA
ATOM     13  H   UNL     1      -3.480  -7.591   1.143  0.00  0.00    +0.140 HD
ATOM     14  H   UNL     1      -1.955  -6.968   0.910  0.00  0.00    +0.140 HD
ENDBRANCH  10  12
ENDBRANCH   1   4
BRANCH   1  15
ATOM     15  N   UNL     1       0.711  -0.489   1.189  0.00  0.00    -0.183 NA
ATOM     16  H   UNL     1       1.677  -0.569   1.178  0.00  0.00    +0.149 HD
BRANCH  15  18
ATOM     17  C   UNL     1      -0.019   1.526   0.010  0.00  0.00    +0.031 C 
ATOM     18  C   UNL     1       0.002  -0.004   0.002  0.00  0.00    +0.103 C 
BRANCH  18  19
ATOM     19  C   UNL     1       0.707  -0.490  -1.238  0.00  0.00    -0.029 A 
ATOM     20  C   UNL     1       2.089  -0.511  -1.284  0.00  0.00    +0.006 A 
ATOM     21  C   UNL     1       2.736  -0.957  -2.421  0.00  0.00    +0.015 A 
ATOM     22  C   UNL     1       2.002  -1.383  -3.512  0.00  0.00    +0.018 A 
ATOM     23  C   UNL     1       0.619  -1.362  -3.466  0.00  0.00    +0.015 A 
ATOM     24  C   UNL     1      -0.027  -0.920  -2.327  0.00  0.00    +0.006 A 
ATOM     25 BR   UNL     1       2.887  -1.992  -5.068  0.00  0.00    -0.050 Br
ENDBRANCH  18  19
ENDBRANCH  15  18
ENDBRANCH   1  15
TORSDOF 5
