REMARK  Name = ZINC59888583
REMARK  10 active torsions:
REMARK  status: ('A' for Active; 'I' for Inactive)
REMARK    1  A    between atoms: C_1  and  C_2
REMARK    2  A    between atoms: C_3  and  C_13
REMARK    3  A    between atoms: C_4  and  C_12
REMARK    4  A    between atoms: C_13  and  C_14
REMARK    5  A    between atoms: N_16  and  C_17
REMARK    6  A    between atoms: C_17  and  C_18
REMARK    7  A    between atoms: C_23  and  C_24
REMARK    8  A    between atoms: C_24  and  N_25
REMARK    9  A    between atoms: N_25  and  C_26
REMARK   10  A    between atoms: N_25  and  C_27
REMARK                            x       y       z     vdW  Elec       q    Type
REMARK                         _______ _______ _______ _____ _____    ______ ____
ROOT
ATOM      1  C   UNL     1      -2.893   0.357   1.434  0.00  0.00    +0.218 C 
ATOM      2  O   UNL     1      -2.160   0.040   2.347  0.00  0.00    -0.275 OA
ATOM      3  N   UNL     1      -4.040   1.016   1.689  0.00  0.00    -0.311 N 
ATOM      4  H   UNL     1      -4.626   1.269   0.959  0.00  0.00    +0.149 HD
ENDROOT
BRANCH   1   5
ATOM      5  C   UNL     1      -2.520   0.013   0.015  0.00  0.00    +0.134 C 
BRANCH   5   8
ATOM      6  C   UNL     1      -0.018   1.503   0.010  0.00  0.00    +0.066 C 
ATOM      7  C   UNL     1       0.002  -0.004   0.002  0.00  0.00    +0.047 A 
ATOM      8  C   UNL     1      -1.202  -0.717   0.004  0.00  0.00    +0.004 A 
ATOM      9  C   UNL     1      -1.169  -2.075  -0.004  0.00  0.00    +0.049 A 
ATOM     10  N   UNL     1       0.035  -2.706  -0.013  0.00  0.00    -0.199 N 
ATOM     11  C   UNL     1       1.192  -1.980  -0.014  0.00  0.00    +0.255 A 
ATOM     12  N   UNL     1       1.151  -0.643  -0.012  0.00  0.00    -0.216 NA
ATOM     13  N   UNL     1       2.202  -2.844  -0.023  0.00  0.00    -0.176 NA
ATOM     14  C   UNL     1       1.728  -4.088  -0.027  0.00  0.00    +0.234 A 
ATOM     15  N   UNL     1       0.411  -4.055  -0.021  0.00  0.00    -0.128 NA
ATOM     16  N   UNL     1       2.504  -5.244  -0.036  0.00  0.00    -0.326 N 
ATOM     17  C   UNL     1      -2.449  -2.871  -0.001  0.00  0.00    +0.066 C 
ATOM     18  H   UNL     1       3.471  -5.179  -0.040  0.00  0.00    +0.145 HD
ATOM     19  H   UNL     1       2.076  -6.115  -0.039  0.00  0.00    +0.145 HD
ENDBRANCH   5   8
ENDBRANCH   1   5
BRANCH   3  20
ATOM     20  C   UNL     1      -4.402   1.350   3.069  0.00  0.00    +0.139 C 
BRANCH  20  21
ATOM     21  C   UNL     1      -5.720   2.080   3.079  0.00  0.00    -0.029 A 
ATOM     22  C   UNL     1      -5.746   3.458   3.186  0.00  0.00    +0.005 A 
ATOM     23  C   UNL     1      -6.955   4.128   3.196  0.00  0.00    +0.000 A 
ATOM     24  C   UNL     1      -8.139   3.420   3.099  0.00  0.00    +0.000 A 
ATOM     25  C   UNL     1      -8.113   2.042   2.991  0.00  0.00    +0.002 A 
ATOM     26  C   UNL     1      -6.903   1.373   2.977  0.00  0.00    -0.059 A 
BRANCH  26  27
ATOM     27  C   UNL     1      -6.875  -0.129   2.854  0.00  0.00    -0.043 C 
BRANCH  27  28
ATOM     28  N   UNL     1      -6.676  -0.725   4.182  0.00  0.00    +0.382 N 
ATOM     29  C   UNL     1      -7.837  -0.427   5.032  0.00  0.00    -0.095 C 
ATOM     30  H   UNL     1      -5.843  -0.340   4.603  0.00  0.00    -0.081 HD
BRANCH  28  31
ATOM     31  C   UNL     1      -6.528  -2.181   4.048  0.00  0.00    -0.069 C 
ATOM     32  C   UNL     1      -6.321  -2.802   5.431  0.00  0.00    -0.015 C 
ATOM     33  C   UNL     1      -6.168  -4.317   5.292  0.00  0.00    -0.002 C 
ATOM     34  C   UNL     1      -4.959  -4.628   4.407  0.00  0.00    -0.000 C 
ATOM     35  C   UNL     1      -5.166  -4.008   3.024  0.00  0.00    -0.002 C 
ATOM     36  C   UNL     1      -5.319  -2.492   3.164  0.00  0.00    -0.015 C 
ENDBRANCH  28  31
ENDBRANCH  27  28
ENDBRANCH  26  27
ENDBRANCH  20  21
ENDBRANCH   3  20
TORSDOF 7
