REMARK  Name = ZINC43222536
REMARK  12 active torsions:
REMARK  status: ('A' for Active; 'I' for Inactive)
REMARK    1  A    between atoms: C_1  and  C_2
REMARK    2  A    between atoms: C_2  and  C_4
REMARK    3  A    between atoms: C_2  and  N_8
REMARK    4  A    between atoms: C_4  and  C_5
REMARK    5  A    between atoms: C_5  and  C_6
REMARK    6  A    between atoms: C_5  and  C_7
REMARK    7  A    between atoms: C_9  and  C_11
REMARK    8  A    between atoms: C_16  and  C_18
REMARK    9  A    between atoms: N_20  and  C_21
REMARK   10  A    between atoms: C_21  and  C_22
REMARK   11  A    between atoms: C_22  and  C_24
REMARK   12  A    between atoms: C_22  and  C_25
REMARK                            x       y       z     vdW  Elec       q    Type
REMARK                         _______ _______ _______ _____ _____    ______ ____
ROOT
ATOM      1  C   UNL     1      -3.465  -1.164  -1.134  0.00  0.00    +0.068 C 
ATOM      2  C   UNL     1      -4.384  -0.204  -0.349  0.00  0.00    -0.069 C 
ATOM      3  N   UNL     1      -4.981   0.674  -1.387  0.00  0.00    +0.380 N 
ATOM      4  C   UNL     1      -5.256  -0.240  -2.526  0.00  0.00    -0.069 C 
ATOM      5  C   UNL     1      -4.037  -1.190  -2.566  0.00  0.00    +0.068 C 
ATOM      6  H   UNL     1      -5.839   1.086  -1.051  0.00  0.00    -0.086 HD
ATOM      7  H   UNL     1      -4.327   1.392  -1.661  0.00  0.00    -0.086 HD
ENDROOT
BRANCH   1   9
ATOM      8  N   UNL     1      -1.372  -0.511   0.012  0.00  0.00    -0.313 N 
ATOM      9  C   UNL     1      -2.051  -0.643  -1.145  0.00  0.00    +0.215 C 
ATOM     10  O   UNL     1      -1.524  -0.341  -2.194  0.00  0.00    -0.276 OA
ATOM     11  H   UNL     1      -1.794  -0.752   0.852  0.00  0.00    +0.149 HD
BRANCH   8  13
ATOM     12  C   UNL     1      -0.019   1.526   0.010  0.00  0.00    +0.028 C 
ATOM     13  C   UNL     1       0.002  -0.004   0.002  0.00  0.00    +0.070 C 
BRANCH  13  14
ATOM     14  C   UNL     1       0.742  -0.511   1.242  0.00  0.00    +0.025 C 
BRANCH  14  15
ATOM     15  C   UNL     1       0.872  -2.034   1.171  0.00  0.00    -0.015 C 
ATOM     16  C   UNL     1       1.760  -2.415  -0.015  0.00  0.00    +0.007 C 
ATOM     17  C   UNL     1       1.500  -2.553   2.466  0.00  0.00    +0.007 C 
ENDBRANCH  14  15
ENDBRANCH  13  14
ENDBRANCH   8  13
ENDBRANCH   1   9
BRANCH   5  18
ATOM     18  C   UNL     1      -4.471  -2.586  -2.931  0.00  0.00    +0.215 C 
ATOM     19  O   UNL     1      -4.343  -3.490  -2.132  0.00  0.00    -0.276 OA
ATOM     20  N   UNL     1      -5.003  -2.831  -4.145  0.00  0.00    -0.315 N 
ATOM     21  H   UNL     1      -5.106  -2.108  -4.784  0.00  0.00    +0.149 HD
BRANCH  20  22
ATOM     22  C   UNL     1      -5.425  -4.188  -4.500  0.00  0.00    +0.112 C 
BRANCH  22  23
ATOM     23  C   UNL     1      -5.989  -4.191  -5.922  0.00  0.00    +0.033 C 
ATOM     24  C   UNL     1      -4.876  -3.842  -6.913  0.00  0.00    +0.014 C 
BRANCH  23  25
ATOM     25  C   UNL     1      -6.535  -5.559  -6.243  0.00  0.00    -0.043 A 
ATOM     26  C   UNL     1      -5.703  -6.662  -6.206  0.00  0.00    +0.004 A 
ATOM     27  C   UNL     1      -6.204  -7.916  -6.500  0.00  0.00    +0.000 A 
ATOM     28  C   UNL     1      -7.538  -8.067  -6.831  0.00  0.00    +0.000 A 
ATOM     29  C   UNL     1      -8.370  -6.965  -6.867  0.00  0.00    +0.000 A 
ATOM     30  C   UNL     1      -7.870  -5.711  -6.569  0.00  0.00    +0.004 A 
ENDBRANCH  23  25
ENDBRANCH  22  23
ENDBRANCH  20  22
ENDBRANCH   5  18
TORSDOF 8
