REMARK  Name = ZINC36694088
REMARK  5 active torsions:
REMARK  status: ('A' for Active; 'I' for Inactive)
REMARK    1  A    between atoms: C_1  and  C_2
REMARK    2  A    between atoms: C_4  and  C_14
REMARK    3  A    between atoms: C_20  and  C_22
REMARK    4  A    between atoms: C_26  and  S_28
REMARK    5  A    between atoms: S_28  and  C_31
REMARK                            x       y       z     vdW  Elec       q    Type
REMARK                         _______ _______ _______ _____ _____    ______ ____
ROOT
ATOM      1  C   UNL     1       2.028   0.017  -1.441  0.00  0.00    +0.265 C 
ATOM      2  O   UNL     1       2.957  -0.758  -1.527  0.00  0.00    -0.271 OA
ATOM      3  N   UNL     1       2.253   1.345  -1.466  0.00  0.00    -0.235 N 
ATOM      4  C   UNL     1       3.533   1.827  -1.691  0.00  0.00    +0.315 A 
ATOM      5  N   UNL     1       4.608   1.105  -1.899  0.00  0.00    -0.092 NA
ATOM      6  N   UNL     1       5.619   1.882  -2.070  0.00  0.00    -0.106 NA
ATOM      7  C   UNL     1       5.229   3.130  -1.979  0.00  0.00    +0.250 A 
ATOM      8  O   UNL     1       3.900   3.121  -1.742  0.00  0.00    -0.405 OA
ATOM      9  H   UNL     1       1.520   1.965  -1.327  0.00  0.00    +0.159 HD
ENDROOT
BRANCH   1  12
ATOM     10  C   UNL     1       0.143   1.211   0.454  0.00  0.00    +0.056 C 
ATOM     11  C   UNL     1       0.120  -0.283   0.126  0.00  0.00    +0.220 C 
ATOM     12  C   UNL     1       0.621  -0.506  -1.307  0.00  0.00    +0.299 C 
ATOM     13  O   UNL     1       0.600  -1.912  -1.575  0.00  0.00    -0.472 OA
ATOM     14  C   UNL     1       1.121  -2.726  -0.617  0.00  0.00    +0.163 A 
ATOM     15  C   UNL     1       1.465  -4.029  -0.944  0.00  0.00    +0.049 A 
ATOM     16  C   UNL     1       1.993  -4.868   0.019  0.00  0.00    +0.004 A 
ATOM     17  C   UNL     1       2.179  -4.411   1.311  0.00  0.00    +0.004 A 
ATOM     18  C   UNL     1       1.840  -3.113   1.643  0.00  0.00    +0.049 A 
ATOM     19  C   UNL     1       1.312  -2.265   0.680  0.00  0.00    +0.163 A 
ATOM     20  O   UNL     1       0.989  -0.987   1.020  0.00  0.00    -0.481 OA
ENDBRANCH   1  12
BRANCH   7  21
ATOM     21  C   UNL     1       6.086   4.327  -2.115  0.00  0.00    +0.040 A 
ATOM     22  C   UNL     1       5.533   5.603  -1.987  0.00  0.00    +0.013 A 
ATOM     23  C   UNL     1       6.338   6.715  -2.115  0.00  0.00    +0.003 A 
ATOM     24  C   UNL     1       7.691   6.569  -2.369  0.00  0.00    +0.027 A 
ATOM     25  C   UNL     1       8.245   5.308  -2.497  0.00  0.00    +0.089 A 
ATOM     26  C   UNL     1       7.451   4.186  -2.366  0.00  0.00    +0.040 A 
BRANCH  25  27
ATOM     27  S   UNL     1       9.967   5.133  -2.821  0.00  0.00    -0.006 S 
ATOM     28  O   UNL     1      10.087   3.880  -3.481  0.00  0.00    -0.170 OA
ATOM     29  O   UNL     1      10.337   6.337  -3.479  0.00  0.00    -0.170 OA
ATOM     30  C   UNL     1      10.744   5.053  -1.184  0.00  0.00    +0.200 C 
ENDBRANCH  25  27
ENDBRANCH   7  21
TORSDOF 3
