REMARK  Name = ZINC13122581
REMARK  3 active torsions:
REMARK  status: ('A' for Active; 'I' for Inactive)
REMARK    1  A    between atoms: C_1  and  C_2
REMARK    2  A    between atoms: C_5  and  C_8
REMARK    3  A    between atoms: C_25  and  C_27
REMARK                            x       y       z     vdW  Elec       q    Type
REMARK                         _______ _______ _______ _____ _____    ______ ____
ROOT
ATOM      1  C   UNL     1       0.027  -4.246   0.034  0.00  0.00    +0.234 C 
ATOM      2  C   UNL     1      -1.359  -4.782   0.242  0.00  0.00    +0.028 C 
ATOM      3  C   UNL     1      -1.822  -5.030   1.484  0.00  0.00    +0.083 C 
ATOM      4  C   UNL     1      -0.904  -4.764   2.622  0.00  0.00    +0.042 A 
ATOM      5  C   UNL     1      -1.372  -4.671   3.925  0.00  0.00    +0.013 A 
ATOM      6  C   UNL     1      -0.483  -4.421   4.953  0.00  0.00    +0.001 A 
ATOM      7  C   UNL     1       0.865  -4.262   4.685  0.00  0.00    +0.004 A 
ATOM      8  C   UNL     1       1.339  -4.354   3.389  0.00  0.00    +0.046 A 
ATOM      9  C   UNL     1       0.461  -4.605   2.350  0.00  0.00    +0.131 A 
ATOM     10  O   UNL     1       0.895  -4.704   1.073  0.00  0.00    -0.479 OA
ATOM     11  N   UNL     1      -3.074  -5.506   1.693  0.00  0.00    -0.213 NA
ATOM     12  C   UNL     1      -3.933  -5.773   0.737  0.00  0.00    +0.237 C 
ATOM     13  N   UNL     1      -5.198  -6.247   0.768  0.00  0.00    -0.205 NA
ATOM     14  C   UNL     1      -5.671  -6.358  -0.443  0.00  0.00    +0.203 C 
ATOM     15  N   UNL     1      -4.727  -5.956  -1.338  0.00  0.00    -0.251 N 
ATOM     16  N   UNL     1      -3.609  -5.577  -0.590  0.00  0.00    -0.208 N 
ATOM     17  C   UNL     1      -2.278  -5.059  -0.928  0.00  0.00    +0.166 C 
ATOM     18  H   UNL     1      -4.813  -5.937  -2.304  0.00  0.00    +0.171 HD
ENDROOT
BRANCH   1  23
ATOM     19  C   UNL     1      -0.125   1.530   0.082  0.00  0.00    +0.044 C 
ATOM     20  C   UNL     1      -0.086   0.024   0.070  0.00  0.00    -0.050 A 
ATOM     21  C   UNL     1      -0.255  -0.682   1.246  0.00  0.00    +0.004 A 
ATOM     22  C   UNL     1      -0.219  -2.064   1.235  0.00  0.00    +0.008 A 
ATOM     23  C   UNL     1      -0.014  -2.740   0.047  0.00  0.00    -0.003 A 
ATOM     24  C   UNL     1       0.155  -2.034  -1.130  0.00  0.00    +0.008 A 
ATOM     25  C   UNL     1       0.114  -0.652  -1.119  0.00  0.00    +0.004 A 
ENDBRANCH   1  23
BRANCH  17  26
ATOM     26  C   UNL     1      -2.455  -3.777  -1.700  0.00  0.00    +0.016 A 
ATOM     27  C   UNL     1      -1.942  -3.429  -2.906  0.00  0.00    +0.013 A 
ATOM     28  C   UNL     1      -2.242  -2.185  -3.429  0.00  0.00    +0.008 A 
ATOM     29  C   UNL     1      -3.042  -1.350  -2.721  0.00  0.00    +0.045 A 
ATOM     30  S   UNL     1      -3.402  -2.326  -1.269  0.00  0.00    -0.099 S 
ENDBRANCH  17  26
TORSDOF 2
