REMARK  Name = ZINC59959772
REMARK  9 active torsions:
REMARK  status: ('A' for Active; 'I' for Inactive)
REMARK    1  A    between atoms: C_6  and  C_7
REMARK    2  A    between atoms: C_7  and  N_8
REMARK    3  A    between atoms: C_9  and  C_11
REMARK    4  A    between atoms: N_13  and  N_14
REMARK    5  A    between atoms: C_15  and  C_16
REMARK    6  A    between atoms: C_19  and  O_22
REMARK    7  A    between atoms: O_22  and  C_23
REMARK    8  A    between atoms: C_23  and  C_24
REMARK    9  A    between atoms: N_26  and  C_27
REMARK                            x       y       z     vdW  Elec       q    Type
REMARK                         _______ _______ _______ _____ _____    ______ ____
ROOT
ATOM      1  N   UNL     1      -4.864  -2.849  -4.566  0.00  0.00    -0.187 NA
ATOM      2  C   UNL     1      -5.963  -3.501  -4.797  0.00  0.00    +0.138 C 
ENDROOT
BRANCH   2   3
ATOM      3  C   UNL     1      -6.399  -3.745  -6.183  0.00  0.00    -0.005 A 
ATOM      4  C   UNL     1      -5.628  -3.280  -7.252  0.00  0.00    +0.013 A 
ATOM      5  C   UNL     1      -6.039  -3.511  -8.547  0.00  0.00    +0.046 A 
ATOM      6  C   UNL     1      -7.219  -4.203  -8.790  0.00  0.00    +0.121 A 
ATOM      7  C   UNL     1      -7.989  -4.666  -7.731  0.00  0.00    +0.046 A 
ATOM      8  C   UNL     1      -7.582  -4.446  -6.433  0.00  0.00    +0.013 A 
BRANCH   6   9
ATOM      9  O   UNL     1      -7.621  -4.427 -10.068  0.00  0.00    -0.483 OA
BRANCH   9  10
ATOM     10  C   UNL     1      -8.844  -5.145 -10.247  0.00  0.00    +0.324 C 
BRANCH  10  11
ATOM     11  C   UNL     1      -9.126  -5.297 -11.720  0.00  0.00    +0.251 C 
ATOM     12  O   UNL     1      -8.356  -4.836 -12.535  0.00  0.00    -0.272 OA
ATOM     13  N   UNL     1     -10.234  -5.946 -12.130  0.00  0.00    -0.310 N 
ATOM     14  H   UNL     1     -10.850  -6.314 -11.477  0.00  0.00    +0.149 HD
BRANCH  13  15
ATOM     15  C   UNL     1     -10.508  -6.093 -13.561  0.00  0.00    +0.073 C 
ATOM     16  C   UNL     1      -9.769  -7.321 -14.098  0.00  0.00    +0.022 C 
ATOM     17  C   UNL     1     -10.056  -7.475 -15.593  0.00  0.00    +0.002 C 
ATOM     18  C   UNL     1     -11.560  -7.651 -15.809  0.00  0.00    +0.000 C 
ATOM     19  C   UNL     1     -12.299  -6.424 -15.272  0.00  0.00    +0.002 C 
ATOM     20  C   UNL     1     -12.013  -6.270 -13.777  0.00  0.00    +0.022 C 
ENDBRANCH  13  15
ENDBRANCH  10  11
ENDBRANCH   9  10
ENDBRANCH   6   9
ENDBRANCH   2   3
BRANCH   1  23
ATOM     21  C   UNL     1      -3.308  -1.941  -3.010  0.00  0.00    +0.318 C 
ATOM     22  O   UNL     1      -2.639  -1.532  -3.937  0.00  0.00    -0.263 OA
ATOM     23  N   UNL     1      -4.449  -2.617  -3.248  0.00  0.00    -0.199 N 
ATOM     24  H   UNL     1      -4.984  -2.944  -2.508  0.00  0.00    +0.178 HD
BRANCH  21  26
ATOM     25  N   UNL     1      -1.726  -1.017  -1.368  0.00  0.00    -0.303 N 
ATOM     26  C   UNL     1      -2.867  -1.694  -1.606  0.00  0.00    +0.301 C 
ATOM     27  O   UNL     1      -3.536  -2.102  -0.679  0.00  0.00    -0.265 OA
ATOM     28  H   UNL     1      -1.192  -0.691  -2.108  0.00  0.00    +0.149 HD
BRANCH  25  29
ATOM     29  C   UNL     1      -1.293  -0.775   0.011  0.00  0.00    +0.140 C 
BRANCH  29  35
ATOM     30  C   UNL     1      -0.017   1.378   0.010  0.00  0.00    +0.006 A 
ATOM     31  C   UNL     1       1.171   2.086   0.002  0.00  0.00    +0.020 A 
ATOM     32  C   UNL     1       2.378   1.410  -0.013  0.00  0.00    +0.041 A 
ATOM     33  C   UNL     1       2.396   0.027  -0.021  0.00  0.00    +0.020 A 
ATOM     34  C   UNL     1       1.208  -0.679  -0.013  0.00  0.00    +0.006 A 
ATOM     35  C   UNL     1       0.002  -0.004   0.002  0.00  0.00    -0.030 A 
ATOM     36 CL   UNL     1       3.870   2.298  -0.023  0.00  0.00    -0.084 Cl
ENDBRANCH  29  35
ENDBRANCH  25  29
ENDBRANCH  21  26
ENDBRANCH   1  23
TORSDOF 9
