REMARK  Name = ZINC43743206
REMARK  10 active torsions:
REMARK  status: ('A' for Active; 'I' for Inactive)
REMARK    1  A    between atoms: C_1  and  C_2
REMARK    2  A    between atoms: C_3  and  C_32
REMARK    3  A    between atoms: C_9  and  C_31
REMARK    4  A    between atoms: C_23  and  C_30
REMARK    5  A    between atoms: C_26  and  O_29
REMARK    6  A    between atoms: C_32  and  C_33
REMARK    7  A    between atoms: C_33  and  C_34
REMARK    8  A    between atoms: C_34  and  C_36
REMARK    9  A    between atoms: C_34  and  C_37
REMARK   10  A    between atoms: C_37  and  O_38
REMARK                            x       y       z     vdW  Elec       q    Type
REMARK                         _______ _______ _______ _____ _____    ______ ____
ROOT
ATOM      1  C   UNL     1      -0.027   1.671   0.211  0.00  0.00    +0.043 C 
ATOM      2  C   UNL     1      -0.212   0.177   0.218  0.00  0.00    -0.028 C 
ATOM      3  C   UNL     1      -0.493  -0.525  -0.864  0.00  0.00    +0.098 C 
ATOM      4  O   UNL     1      -0.649  -1.847  -0.618  0.00  0.00    -0.493 OA
ATOM      5  C   UNL     1       0.042  -2.148   0.611  0.00  0.00    +0.181 C 
ATOM      6  C   UNL     1      -0.129  -0.781   1.378  0.00  0.00    +0.065 C 
ATOM      7  C   UNL     1       1.229  -0.723   2.111  0.00  0.00    -0.019 C 
ATOM      8  C   UNL     1       1.549   0.556   2.833  0.00  0.00    +0.008 C 
ATOM      9  C   UNL     1       3.037   0.911   2.653  0.00  0.00    +0.005 C 
ATOM     10  C   UNL     1       3.854  -0.375   2.631  0.00  0.00    -0.001 C 
ATOM     11  C   UNL     1       3.631  -1.116   1.319  0.00  0.00    -0.004 C 
ATOM     12  C   UNL     1       2.172  -0.992   0.925  0.00  0.00    +0.003 C 
ATOM     13  C   UNL     1       1.555  -2.251   0.300  0.00  0.00    +0.049 C 
ATOM     14  C   UNL     1       4.447  -0.479   0.185  0.00  0.00    +0.004 C 
ATOM     15  C   UNL     1       5.920  -0.338   0.547  0.00  0.00    +0.004 C 
ATOM     16  C   UNL     1       6.047   0.519   1.808  0.00  0.00    -0.002 C 
ATOM     17  C   UNL     1       5.324  -0.165   2.960  0.00  0.00    -0.026 C 
ATOM     18  C   UNL     1       5.457   0.676   4.232  0.00  0.00    +0.010 C 
ATOM     19  C   UNL     1       6.928   0.892   4.579  0.00  0.00    +0.032 C 
ATOM     20  C   UNL     1       7.653   1.574   3.420  0.00  0.00    +0.115 C 
ATOM     21  C   UNL     1       7.518   0.745   2.143  0.00  0.00    +0.035 C 
ATOM     22  C   UNL     1       5.948  -1.542   3.230  0.00  0.00    +0.012 C 
ATOM     23  C   UNL     1       1.235  -1.901   3.104  0.00  0.00    +0.012 C 
ENDROOT
BRANCH  20  24
ATOM     24  O   UNL     1       7.102   2.876   3.211  0.00  0.00    -0.392 OA
ATOM     25  H   UNL     1       7.175   3.462   3.977  0.00  0.00    +0.210 HD
ENDBRANCH  20  24
BRANCH   3  26
ATOM     26  C   UNL     1      -0.625   0.084  -2.234  0.00  0.00    +0.074 C 
BRANCH  26  27
ATOM     27  C   UNL     1       0.708  -0.032  -2.975  0.00  0.00    +0.013 C 
BRANCH  27  28
ATOM     28  C   UNL     1       0.573   0.587  -4.368  0.00  0.00    +0.012 C 
ATOM     29  C   UNL     1       0.313   2.089  -4.235  0.00  0.00    +0.010 C 
BRANCH  28  30
ATOM     30  C   UNL     1       1.866   0.361  -5.154  0.00  0.00    +0.159 C 
BRANCH  30  31
ATOM     31  O   UNL     1       1.699   0.836  -6.492  0.00  0.00    -0.395 OA
ATOM     32  H   UNL     1       2.482   0.724  -7.049  0.00  0.00    +0.209 HD
ENDBRANCH  30  31
ENDBRANCH  28  30
ENDBRANCH  27  28
ENDBRANCH  26  27
ENDBRANCH   3  26
TORSDOF 6
