REMARK  Name = ZINC01464492
REMARK  6 active torsions:
REMARK  status: ('A' for Active; 'I' for Inactive)
REMARK    1  A    between atoms: C_6  and  C_7
REMARK    2  A    between atoms: C_10  and  C_12
REMARK    3  A    between atoms: C_14  and  C_26
REMARK    4  A    between atoms: C_16  and  C_21
REMARK    5  A    between atoms: C_16  and  O_25
REMARK    6  A    between atoms: C_26  and  C_28
REMARK                            x       y       z     vdW  Elec       q    Type
REMARK                         _______ _______ _______ _____ _____    ______ ____
ROOT
ATOM      1  C   UNL     1      -1.748  -1.031  -1.430  0.00  0.00    +0.156 C 
ATOM      2  C   UNL     1      -1.293  -0.775   0.010  0.00  0.00    +0.147 C 
ATOM      3  C   UNL     1      -1.083  -2.126   0.702  0.00  0.00    +0.243 C 
ATOM      4  N   UNL     1      -2.313  -2.913   0.604  0.00  0.00    -0.264 N 
ATOM      5  C   UNL     1      -3.159  -2.759  -0.426  0.00  0.00    +0.302 C 
ATOM      6  O   UNL     1      -4.162  -3.445  -0.465  0.00  0.00    -0.253 OA
ATOM      7  N   UNL     1      -2.943  -1.877  -1.413  0.00  0.00    -0.289 N 
ATOM      8  H   UNL     1      -2.521  -3.559   1.297  0.00  0.00    +0.153 HD
ATOM      9  H   UNL     1      -3.591  -1.799  -2.131  0.00  0.00    +0.151 HD
ENDROOT
BRANCH   1  13
ATOM     10  C   UNL     1      -3.148   2.100  -2.692  0.00  0.00    +0.135 A 
ATOM     11  C   UNL     1      -1.946   2.121  -3.329  0.00  0.00    +0.050 A 
ATOM     12  C   UNL     1      -1.261   0.952  -2.942  0.00  0.00    +0.047 A 
ATOM     13  C   UNL     1      -2.069   0.282  -2.098  0.00  0.00    +0.127 A 
ATOM     14  O   UNL     1      -3.211   0.975  -1.954  0.00  0.00    -0.458 OA
BRANCH  10  20
ATOM     15  C   UNL     1      -4.010   4.250  -3.605  0.00  0.00    +0.014 A 
ATOM     16  C   UNL     1      -5.001   5.204  -3.705  0.00  0.00    +0.039 A 
ATOM     17  C   UNL     1      -6.183   5.056  -2.997  0.00  0.00    +0.123 A 
ATOM     18  C   UNL     1      -6.379   3.946  -2.190  0.00  0.00    +0.039 A 
ATOM     19  C   UNL     1      -5.397   2.983  -2.088  0.00  0.00    +0.014 A 
ATOM     20  C   UNL     1      -4.204   3.128  -2.799  0.00  0.00    +0.017 A 
ATOM     21  F   UNL     1      -7.149   5.996  -3.094  0.00  0.00    -0.205 F 
ENDBRANCH  10  20
ENDBRANCH   1  13
BRANCH   3  22
ATOM     22  C   UNL     1      -0.738  -1.898   2.176  0.00  0.00    +0.436 C 
ATOM     23  F   UNL     1      -1.787  -1.213   2.799  0.00  0.00    -0.166 F 
ATOM     24  F   UNL     1      -0.547  -3.132   2.806  0.00  0.00    -0.166 F 
ATOM     25  F   UNL     1       0.434  -1.140   2.268  0.00  0.00    -0.166 F 
ENDBRANCH   3  22
BRANCH   3  26
ATOM     26  O   UNL     1      -0.014  -2.829   0.064  0.00  0.00    -0.364 OA
ATOM     27  H   UNL     1       0.174  -3.694   0.452  0.00  0.00    +0.212 HD
ENDBRANCH   3  26
BRANCH   2  28
ATOM     28  C   UNL     1       0.002  -0.004   0.002  0.00  0.00    +0.173 C 
ATOM     29  O   UNL     1       1.060  -0.596  -0.011  0.00  0.00    -0.292 OA
BRANCH  28  30
ATOM     30  C   UNL     1      -0.018   1.467   0.010  0.00  0.00    +0.018 A 
ATOM     31  C   UNL     1      -1.237   2.153   0.020  0.00  0.00    +0.013 A 
ATOM     32  C   UNL     1      -1.248   3.531   0.032  0.00  0.00    +0.020 A 
ATOM     33  C   UNL     1      -0.056   4.237   0.024  0.00  0.00    +0.041 A 
ATOM     34  C   UNL     1       1.156   3.564   0.010  0.00  0.00    +0.020 A 
ATOM     35  C   UNL     1       1.182   2.186   0.003  0.00  0.00    +0.013 A 
ATOM     36 CL   UNL     1      -0.079   5.973   0.032  0.00  0.00    -0.084 Cl
ENDBRANCH  28  30
ENDBRANCH   2  28
TORSDOF 6
