REMARK  Name = ZINC04908384
REMARK  5 active torsions:
REMARK  status: ('A' for Active; 'I' for Inactive)
REMARK    1  A    between atoms: C_4  and  N_7
REMARK    2  A    between atoms: N_10  and  C_11
REMARK    3  A    between atoms: N_20  and  C_21
REMARK    4  A    between atoms: C_21  and  N_23
REMARK    5  A    between atoms: N_23  and  C_24
REMARK                            x       y       z     vdW  Elec       q    Type
REMARK                         _______ _______ _______ _____ _____    ______ ____
ROOT
ATOM      1  C   UNL     1      -2.600   4.991  -2.239  0.00  0.00    +0.078 C 
ATOM      2  C   UNL     1      -3.998   4.876  -1.626  0.00  0.00    +0.045 C 
ATOM      3  C   UNL     1      -4.711   6.232  -1.754  0.00  0.00    +0.077 C 
ATOM      4  C   UNL     1      -3.733   7.328  -1.273  0.00  0.00    +0.024 C 
ATOM      5  C   UNL     1      -2.937   7.726  -2.534  0.00  0.00    +0.024 C 
ATOM      6  C   UNL     1      -3.510   6.833  -3.658  0.00  0.00    +0.077 C 
ATOM      7  C   UNL     1      -2.707   5.522  -3.672  0.00  0.00    +0.045 C 
ATOM      8  N   UNL     1      -4.882   6.505  -3.201  0.00  0.00    -0.306 N 
ENDROOT
BRANCH   1  12
ATOM      9  N   UNL     1      -0.727   2.011  -1.176  0.00  0.00    -0.297 N 
ATOM     10  C   UNL     1      -1.312   3.225  -1.163  0.00  0.00    +0.300 C 
ATOM     11  O   UNL     1      -1.252   3.918  -0.165  0.00  0.00    -0.253 OA
ATOM     12  N   UNL     1      -1.964   3.672  -2.254  0.00  0.00    -0.296 N 
ATOM     13  H   UNL     1      -0.775   1.459  -1.972  0.00  0.00    +0.151 HD
ATOM     14  H   UNL     1      -2.012   3.119  -3.050  0.00  0.00    +0.151 HD
BRANCH   9  18
ATOM     15  C   UNL     1       2.178   0.019   1.231  0.00  0.00    +0.000 C 
ATOM     16  C   UNL     1       0.742  -0.511   1.242  0.00  0.00    +0.002 C 
ATOM     17  C   UNL     1       0.002  -0.004   0.002  0.00  0.00    +0.022 C 
ATOM     18  C   UNL     1      -0.019   1.526   0.010  0.00  0.00    +0.074 C 
ATOM     19  C   UNL     1       1.417   2.055  -0.000  0.00  0.00    +0.022 C 
ATOM     20  C   UNL     1       2.157   1.548   1.239  0.00  0.00    +0.002 C 
ENDBRANCH   9  18
ENDBRANCH   1  12
BRANCH   8  21
ATOM     21  C   UNL     1      -6.015   6.464  -3.929  0.00  0.00    +0.134 C 
ATOM     22  S   UNL     1      -5.971   6.821  -5.603  0.00  0.00    -0.019 S 
BRANCH  21  23
ATOM     23  N   UNL     1      -7.184   6.143  -3.339  0.00  0.00    -0.324 N 
ATOM     24  H   UNL     1      -7.209   5.941  -2.391  0.00  0.00    +0.148 HD
BRANCH  23  25
ATOM     25  C   UNL     1      -8.416   6.099  -4.131  0.00  0.00    +0.072 C 
ATOM     26  C   UNL     1      -9.016   7.504  -4.219  0.00  0.00    +0.022 C 
ATOM     27  C   UNL     1     -10.303   7.458  -5.045  0.00  0.00    +0.002 C 
ATOM     28  C   UNL     1     -11.306   6.516  -4.375  0.00  0.00    +0.000 C 
ATOM     29  C   UNL     1     -10.706   5.112  -4.287  0.00  0.00    +0.002 C 
ATOM     30  C   UNL     1      -9.419   5.158  -3.461  0.00  0.00    +0.022 C 
ENDBRANCH  23  25
ENDBRANCH  21  23
ENDBRANCH   8  21
TORSDOF 5
