REMARK  Name = ZINC03444337
REMARK  13 active torsions:
REMARK  status: ('A' for Active; 'I' for Inactive)
REMARK    1  A    between atoms: C_1  and  C_2
REMARK    2  A    between atoms: C_2  and  C_3
REMARK    3  A    between atoms: C_2  and  C_4
REMARK    4  A    between atoms: C_4  and  C_6
REMARK    5  A    between atoms: C_4  and  N_25
REMARK    6  A    between atoms: C_6  and  O_8
REMARK    7  A    between atoms: O_8  and  C_9
REMARK    8  A    between atoms: C_9  and  C_10
REMARK    9  A    between atoms: N_12  and  C_13
REMARK   10  A    between atoms: C_16  and  S_20
REMARK   11  A    between atoms: S_20  and  N_23
REMARK   12  A    between atoms: C_26  and  C_28
REMARK   13  A    between atoms: C_28  and  C_29
REMARK                            x       y       z     vdW  Elec       q    Type
REMARK                         _______ _______ _______ _____ _____    ______ ____
ROOT
ATOM      1  C   UNL     1       3.676   5.921  -0.507  0.00  0.00    +0.328 C 
ENDROOT
BRANCH   1   2
ATOM      2  C   UNL     1       2.369   5.180  -0.392  0.00  0.00    +0.255 C 
ATOM      3  O   UNL     1       1.327   5.744  -0.651  0.00  0.00    -0.272 OA
ATOM      4  N   UNL     1       2.357   3.891   0.001  0.00  0.00    -0.280 N 
ATOM      5  H   UNL     1       3.181   3.461   0.278  0.00  0.00    +0.155 HD
BRANCH   4   6
ATOM      6  C   UNL     1       1.156   3.172   0.009  0.00  0.00    +0.071 A 
ATOM      7  C   UNL     1       0.748   2.485  -1.128  0.00  0.00    +0.065 A 
ATOM      8  C   UNL     1      -0.439   1.776  -1.117  0.00  0.00    +0.050 A 
ATOM      9  C   UNL     1      -1.222   1.754   0.022  0.00  0.00    +0.108 A 
ATOM     10  C   UNL     1      -0.817   2.432   1.157  0.00  0.00    +0.050 A 
ATOM     11  C   UNL     1       0.368   3.143   1.153  0.00  0.00    +0.065 A 
ATOM     12 CL   UNL     1       0.873   4.000   2.576  0.00  0.00    -0.082 Cl
ATOM     13 CL   UNL     1       1.728   2.516  -2.561  0.00  0.00    -0.082 Cl
BRANCH   9  14
ATOM     14  S   UNL     1      -2.738   0.856   0.030  0.00  0.00    +0.056 S 
ATOM     15  O   UNL     1      -3.552   1.441   1.037  0.00  0.00    -0.153 OA
ATOM     16  O   UNL     1      -3.156   0.754  -1.325  0.00  0.00    -0.153 OA
BRANCH  14  17
ATOM     17  N   UNL     1      -2.393  -0.683   0.535  0.00  0.00    -0.204 NA
ATOM     18  H   UNL     1      -1.481  -0.926   0.759  0.00  0.00    +0.144 HD
ATOM     19  H   UNL     1      -3.102  -1.340   0.608  0.00  0.00    +0.144 HD
ENDBRANCH  14  17
ENDBRANCH   9  14
ENDBRANCH   4   6
ENDBRANCH   1   2
BRANCH   1  20
ATOM     20  O   UNL     1       3.424   7.282  -0.944  0.00  0.00    -0.454 OA
BRANCH  20  21
ATOM     21  C   UNL     1       4.491   8.081  -1.097  0.00  0.00    +0.328 C 
ATOM     22  O   UNL     1       5.600   7.656  -0.874  0.00  0.00    -0.249 OA
BRANCH  21  23
ATOM     23  C   UNL     1       4.307   9.507  -1.548  0.00  0.00    +0.184 C 
BRANCH  23  24
ATOM     24  N   UNL     1       5.614  10.163  -1.638  0.00  0.00    -0.302 N 
ATOM     25  C   UNL     1       5.705  11.503  -1.522  0.00  0.00    +0.218 C 
ATOM     26  O   UNL     1       4.705  12.165  -1.343  0.00  0.00    -0.275 OA
ATOM     27  H   UNL     1       6.414   9.634  -1.781  0.00  0.00    +0.150 HD
BRANCH  25  28
ATOM     28  C   UNL     1       7.049  12.178  -1.614  0.00  0.00    +0.130 C 
BRANCH  28  29
ATOM     29  C   UNL     1       6.876  13.666  -1.453  0.00  0.00    -0.039 A 
ATOM     30  C   UNL     1       6.664  14.462  -2.564  0.00  0.00    +0.004 A 
ATOM     31  C   UNL     1       6.500  15.826  -2.415  0.00  0.00    +0.000 A 
ATOM     32  C   UNL     1       6.558  16.397  -1.158  0.00  0.00    +0.000 A 
ATOM     33  C   UNL     1       6.776  15.602  -0.048  0.00  0.00    +0.000 A 
ATOM     34  C   UNL     1       6.934  14.237  -0.195  0.00  0.00    +0.004 A 
ENDBRANCH  28  29
ENDBRANCH  25  28
ENDBRANCH  23  24
BRANCH  23  36
ATOM     35  C   UNL     1       2.267   8.840  -2.827  0.00  0.00    +0.009 C 
ATOM     36  C   UNL     1       3.632   9.525  -2.921  0.00  0.00    +0.014 C 
ATOM     37  C   UNL     1       3.445  10.973  -3.378  0.00  0.00    +0.009 C 
ENDBRANCH  23  36
ENDBRANCH  21  23
ENDBRANCH  20  21
ENDBRANCH   1  20
TORSDOF 11
