REMARK  Name = ZINC50841301
REMARK  1 active torsions:
REMARK  status: ('A' for Active; 'I' for Inactive)
REMARK    1  A    between atoms: C_6  and  C_7
REMARK                            x       y       z     vdW  Elec       q    Type
REMARK                         _______ _______ _______ _____ _____    ______ ____
ROOT
ATOM      1  C   UNL     1      -1.270  -0.765   0.011  0.00  0.00    +0.163 A 
ATOM      2  N   UNL     1      -1.235  -2.094   0.009  0.00  0.00    -0.212 NA
ATOM      3  C   UNL     1      -2.336  -2.825   0.016  0.00  0.00    +0.128 A 
ATOM      4  C   UNL     1      -3.603  -2.176   0.027  0.00  0.00    +0.047 A 
ATOM      5  C   UNL     1      -4.937  -2.749   0.037  0.00  0.00    +0.021 A 
ATOM      6  C   UNL     1      -6.001  -1.932   0.047  0.00  0.00    +0.048 A 
ATOM      7  S   UNL     1      -5.276  -0.303   0.043  0.00  0.00    -0.077 S 
ATOM      8  C   UNL     1      -3.563  -0.763   0.029  0.00  0.00    +0.114 A 
ATOM      9  N   UNL     1      -2.422  -0.107   0.025  0.00  0.00    -0.220 NA
ATOM     10  N   UNL     1      -2.258  -4.206   0.014  0.00  0.00    -0.343 N 
ATOM     11  H   UNL     1      -1.392  -4.643   0.006  0.00  0.00    +0.144 HD
ATOM     12  H   UNL     1      -3.069  -4.737   0.019  0.00  0.00    +0.144 HD
ENDROOT
BRANCH   1  18
ATOM     13  C   UNL     1      -0.017   1.390   0.010  0.00  0.00    +0.014 A 
ATOM     14  C   UNL     1       1.169   2.094   0.002  0.00  0.00    +0.039 A 
ATOM     15  C   UNL     1       2.379   1.417  -0.013  0.00  0.00    +0.123 A 
ATOM     16  C   UNL     1       2.402   0.032  -0.022  0.00  0.00    +0.039 A 
ATOM     17  C   UNL     1       1.221  -0.680  -0.014  0.00  0.00    +0.014 A 
ATOM     18  C   UNL     1       0.002  -0.004   0.002  0.00  0.00    +0.019 A 
ATOM     19  F   UNL     1       3.538   2.111  -0.021  0.00  0.00    -0.205 F 
ENDBRANCH   1  18
TORSDOF 1
