REMARK  Name = ZINC22840961
REMARK  11 active torsions:
REMARK  status: ('A' for Active; 'I' for Inactive)
REMARK    1  A    between atoms: C_1  and  C_2
REMARK    2  A    between atoms: C_5  and  C_9
REMARK    3  A    between atoms: C_7  and  C_8
REMARK    4  A    between atoms: C_12  and  C_36
REMARK    5  A    between atoms: C_17  and  C_19
REMARK    6  A    between atoms: N_21  and  N_22
REMARK    7  A    between atoms: N_22  and  C_23
REMARK    8  A    between atoms: C_23  and  N_25
REMARK    9  A    between atoms: N_25  and  C_26
REMARK   10  A    between atoms: C_26  and  C_28
REMARK   11  A    between atoms: C_26  and  C_29
REMARK                            x       y       z     vdW  Elec       q    Type
REMARK                         _______ _______ _______ _____ _____    ______ ____
ROOT
ATOM      1  C   UNL     1       0.776  -4.522  -0.319  0.00  0.00    +0.104 C 
ATOM      2  C   UNL     1      -0.535  -4.508   0.474  0.00  0.00    +0.063 C 
ATOM      3  C   UNL     1      -1.416  -3.344   0.005  0.00  0.00    +0.215 C 
ATOM      4  N   UNL     1      -0.615  -2.116  -0.001  0.00  0.00    -0.238 N 
ATOM      5  C   UNL     1       0.751  -2.102  -0.016  0.00  0.00    +0.119 A 
ATOM      6  C   UNL     1       1.158  -0.818  -0.013  0.00  0.00    +0.078 A 
ATOM      7  C   UNL     1       0.002  -0.004   0.002  0.00  0.00    +0.150 A 
ATOM      8  N   UNL     1      -1.057  -0.794   0.014  0.00  0.00    -0.164 NA
ATOM      9  N   UNL     1       1.512  -3.275  -0.032  0.00  0.00    -0.322 N 
ATOM     10  H   UNL     1       2.596  -3.306   0.153  0.00  0.00    +0.148 HD
ENDROOT
BRANCH   1  15
ATOM     11  C   UNL     1      -0.364  -4.846  -5.975  0.00  0.00    +0.044 C 
ATOM     12  C   UNL     1      -0.066  -4.761  -4.500  0.00  0.00    -0.048 A 
ATOM     13  C   UNL     1      -0.177  -3.551  -3.841  0.00  0.00    +0.004 A 
ATOM     14  C   UNL     1       0.092  -3.474  -2.487  0.00  0.00    +0.006 A 
ATOM     15  C   UNL     1       0.479  -4.606  -1.794  0.00  0.00    -0.027 A 
ATOM     16  C   UNL     1       0.589  -5.816  -2.453  0.00  0.00    +0.009 A 
ATOM     17  C   UNL     1       0.317  -5.894  -3.807  0.00  0.00    -0.047 A 
ATOM     18  C   UNL     1       0.437  -7.213  -4.525  0.00  0.00    +0.044 C 
ENDBRANCH   1  15
BRANCH   7  19
ATOM     19  C   UNL     1      -0.018   1.473   0.010  0.00  0.00    +0.280 C 
ATOM     20  O   UNL     1       1.026   2.095   0.004  0.00  0.00    -0.267 OA
ATOM     21  N   UNL     1      -1.194   2.131   0.019  0.00  0.00    -0.230 N 
ATOM     22  H   UNL     1      -2.139   1.568   0.021  0.00  0.00    +0.173 HD
BRANCH  21  23
ATOM     23  N   UNL     1      -1.213   3.532   0.027  0.00  0.00    -0.246 N 
ATOM     24  H   UNL     1      -0.268   4.095   0.025  0.00  0.00    +0.172 HD
BRANCH  23  25
ATOM     25  C   UNL     1      -2.389   4.190   0.036  0.00  0.00    +0.147 C 
ATOM     26  S   UNL     1      -2.413   5.902   0.046  0.00  0.00    -0.017 S 
BRANCH  25  27
ATOM     27  N   UNL     1      -3.547   3.500   0.038  0.00  0.00    -0.319 N 
ATOM     28  H   UNL     1      -3.532   2.400   0.032  0.00  0.00    +0.148 HD
BRANCH  27  29
ATOM     29  C   UNL     1      -4.826   4.215   0.048  0.00  0.00    +0.099 C 
ATOM     30  C   UNL     1      -5.216   4.582  -1.385  0.00  0.00    +0.033 C 
BRANCH  29  31
ATOM     31  C   UNL     1      -5.890   3.333   0.649  0.00  0.00    -0.028 A 
ATOM     32  C   UNL     1      -5.924   1.985   0.344  0.00  0.00    +0.005 A 
ATOM     33  C   UNL     1      -6.897   1.176   0.899  0.00  0.00    +0.000 A 
ATOM     34  C   UNL     1      -7.843   1.716   1.750  0.00  0.00    +0.000 A 
ATOM     35  C   UNL     1      -7.812   3.065   2.051  0.00  0.00    +0.000 A 
ATOM     36  C   UNL     1      -6.836   3.874   1.500  0.00  0.00    +0.005 A 
ENDBRANCH  29  31
ENDBRANCH  27  29
ENDBRANCH  25  27
ENDBRANCH  23  25
ENDBRANCH  21  23
ENDBRANCH   7  19
BRANCH   3  37
ATOM     37  C   UNL     1      -2.599  -3.179   0.962  0.00  0.00    +0.412 C 
ATOM     38  F   UNL     1      -2.123  -2.914   2.250  0.00  0.00    -0.168 F 
ATOM     39  F   UNL     1      -3.401  -2.117   0.532  0.00  0.00    -0.168 F 
ATOM     40  F   UNL     1      -3.354  -4.357   0.977  0.00  0.00    -0.168 F 
ENDBRANCH   3  37
TORSDOF 8
