REMARK  Name = ZINC41076790
REMARK  6 active torsions:
REMARK  status: ('A' for Active; 'I' for Inactive)
REMARK    1  A    between atoms: C_1  and  C_2
REMARK    2  A    between atoms: C_6  and  C_8
REMARK    3  A    between atoms: C_8  and  O_10
REMARK    4  A    between atoms: O_10  and  C_11
REMARK    5  A    between atoms: C_15  and  C_17
REMARK    6  A    between atoms: C_27  and  C_29
REMARK                            x       y       z     vdW  Elec       q    Type
REMARK                         _______ _______ _______ _____ _____    ______ ____
ROOT
ATOM      1  C   UNL     1       0.367  -8.519   4.638  0.00  0.00    +0.024 C 
ATOM      2  C   UNL     1       0.915  -9.209   5.681  0.00  0.00    +0.081 C 
ATOM      3  C   UNL     1       0.945 -10.700   5.707  0.00  0.00    +0.153 C 
ATOM      4  N   UNL     1       1.066 -11.434   4.634  0.00  0.00    -0.283 NA
ATOM      5  N   UNL     1       0.830 -11.239   7.006  0.00  0.00    -0.151 N 
ATOM      6  C   UNL     1       1.197 -10.435   8.064  0.00  0.00    +0.181 C 
ATOM      7  N   UNL     1       1.557  -9.176   8.023  0.00  0.00    -0.152 NA
ATOM      8  C   UNL     1       1.519  -8.516   6.847  0.00  0.00    +0.273 C 
ATOM      9  O   UNL     1       1.962  -7.384   6.744  0.00  0.00    -0.268 OA
ATOM     10  S   UNL     1       1.030 -11.533   9.447  0.00  0.00    -0.030 S 
ATOM     11  C   UNL     1       0.392 -12.943   8.554  0.00  0.00    +0.165 C 
ATOM     12  N   UNL     1       0.390 -12.509   7.314  0.00  0.00    -0.161 NA
ATOM     13  H   UNL     1       1.080 -12.401   4.707  0.00  0.00    +0.188 HD
ENDROOT
BRANCH   1  18
ATOM     14  C   UNL     1       0.197  -4.893   3.692  0.00  0.00    +0.133 A 
ATOM     15  C   UNL     1      -0.130  -4.315   4.912  0.00  0.00    +0.046 A 
ATOM     16  C   UNL     1      -0.295  -5.104   6.037  0.00  0.00    +0.004 A 
ATOM     17  C   UNL     1      -0.135  -6.471   5.955  0.00  0.00    +0.008 A 
ATOM     18  C   UNL     1       0.195  -7.064   4.730  0.00  0.00    -0.021 A 
ATOM     19  C   UNL     1       0.355  -6.263   3.593  0.00  0.00    +0.054 A 
BRANCH  14  20
ATOM     20  O   UNL     1       0.357  -4.111   2.592  0.00  0.00    -0.422 OA
BRANCH  20  21
ATOM     21  C   UNL     1       1.505  -3.416   2.471  0.00  0.00    +0.344 C 
ATOM     22  O   UNL     1       2.320  -3.429   3.371  0.00  0.00    -0.245 OA
BRANCH  21  28
ATOM     23  C   UNL     1       4.486  -0.413  -0.174  0.00  0.00    +0.044 C 
ATOM     24  C   UNL     1       3.204  -1.192  -0.033  0.00  0.00    -0.050 A 
ATOM     25  C   UNL     1       2.272  -1.180  -1.057  0.00  0.00    +0.003 A 
ATOM     26  C   UNL     1       1.093  -1.893  -0.936  0.00  0.00    +0.001 A 
ATOM     27  C   UNL     1       0.837  -2.621   0.207  0.00  0.00    +0.015 A 
ATOM     28  C   UNL     1       1.772  -2.638   1.244  0.00  0.00    +0.060 A 
ATOM     29  C   UNL     1       2.963  -1.921   1.113  0.00  0.00    +0.018 A 
ENDBRANCH  21  28
ENDBRANCH  20  21
ENDBRANCH  14  20
ENDBRANCH   1  18
BRANCH  11  30
ATOM     30  C   UNL     1      -0.024 -14.256   9.074  0.00  0.00    +0.161 A 
ATOM     31  C   UNL     1      -0.002 -14.642  10.380  0.00  0.00    +0.052 A 
ATOM     32  C   UNL     1      -0.484 -15.964  10.420  0.00  0.00    +0.042 A 
ATOM     33  C   UNL     1      -0.773 -16.318   9.151  0.00  0.00    +0.196 A 
ATOM     34  O   UNL     1      -0.499 -15.283   8.342  0.00  0.00    -0.461 OA
ENDBRANCH  11  30
TORSDOF 5
