REMARK  Name = ZINC13143158
REMARK  10 active torsions:
REMARK  status: ('A' for Active; 'I' for Inactive)
REMARK    1  A    between atoms: C_1  and  C_2
REMARK    2  A    between atoms: C_2  and  C_4
REMARK    3  A    between atoms: C_4  and  S_14
REMARK    4  A    between atoms: N_5  and  N_6
REMARK    5  A    between atoms: N_6  and  C_7
REMARK    6  A    between atoms: S_14  and  C_15
REMARK    7  A    between atoms: C_18  and  C_26
REMARK    8  A    between atoms: N_19  and  C_20
REMARK    9  A    between atoms: C_26  and  C_28
REMARK   10  A    between atoms: C_26  and  O_34
REMARK                            x       y       z     vdW  Elec       q    Type
REMARK                         _______ _______ _______ _____ _____    ______ ____
ROOT
ATOM      1  C   UNL     1       0.148  -2.865  -2.959  0.00  0.00    +0.202 A 
ATOM      2  N   UNL     1       0.311  -2.017  -3.948  0.00  0.00    -0.122 NA
ATOM      3  N   UNL     1       0.368  -2.652  -5.064  0.00  0.00    -0.130 NA
ATOM      4  C   UNL     1       0.247  -3.933  -4.858  0.00  0.00    +0.172 A 
ATOM      5  N   UNL     1       0.107  -4.117  -3.508  0.00  0.00    -0.272 N 
ENDROOT
BRANCH   5   6
ATOM      6  C   UNL     1      -0.048  -5.335  -2.830  0.00  0.00    +0.050 A 
ATOM      7  C   UNL     1       0.982  -6.266  -2.828  0.00  0.00    +0.026 A 
ATOM      8  C   UNL     1       0.826  -7.465  -2.159  0.00  0.00    +0.002 A 
ATOM      9  C   UNL     1      -0.354  -7.738  -1.494  0.00  0.00    +0.000 A 
ATOM     10  C   UNL     1      -1.382  -6.813  -1.494  0.00  0.00    +0.002 A 
ATOM     11  C   UNL     1      -1.230  -5.610  -2.156  0.00  0.00    +0.026 A 
ENDBRANCH   5   6
BRANCH   1  12
ATOM     12  S   UNL     1       0.015  -2.466  -1.248  0.00  0.00    -0.025 S 
BRANCH  12  13
ATOM     13  C   UNL     1      -0.004  -0.705  -1.220  0.00  0.00    +0.164 C 
ATOM     14  N   UNL     1       1.106  -0.034  -1.409  0.00  0.00    -0.172 NA
BRANCH  13  16
ATOM     15  C   UNL     1      -1.236   1.493  -0.973  0.00  0.00    +0.094 C 
ATOM     16  C   UNL     1      -1.219  -0.013  -0.996  0.00  0.00    +0.187 C 
ATOM     17  O   UNL     1      -2.248  -0.635  -0.821  0.00  0.00    -0.290 OA
ENDBRANCH  13  16
BRANCH  14  18
ATOM     18  N   UNL     1       2.325  -0.715  -1.518  0.00  0.00    -0.235 N 
ATOM     19  H   UNL     1       2.340  -1.685  -1.527  0.00  0.00    +0.174 HD
BRANCH  18  20
ATOM     20  C   UNL     1       3.518   0.002  -1.615  0.00  0.00    +0.067 A 
ATOM     21  C   UNL     1       3.492   1.388  -1.706  0.00  0.00    +0.026 A 
ATOM     22  C   UNL     1       4.675   2.095  -1.802  0.00  0.00    +0.002 A 
ATOM     23  C   UNL     1       5.885   1.424  -1.806  0.00  0.00    +0.002 A 
ATOM     24  C   UNL     1       5.916   0.045  -1.716  0.00  0.00    +0.022 A 
ATOM     25  C   UNL     1       4.737  -0.669  -1.615  0.00  0.00    +0.063 A 
ATOM     26 CL   UNL     1       4.776  -2.400  -1.494  0.00  0.00    -0.082 Cl
ENDBRANCH  18  20
ENDBRANCH  14  18
ENDBRANCH  12  13
ENDBRANCH   1  12
BRANCH   4  27
ATOM     27  C   UNL     1       0.264  -5.013  -5.910  0.00  0.00    +0.212 C 
BRANCH  27  28
ATOM     28  C   UNL     1      -1.047  -5.009  -6.653  0.00  0.00    -0.012 A 
ATOM     29  C   UNL     1      -1.230  -4.158  -7.727  0.00  0.00    +0.006 A 
ATOM     30  C   UNL     1      -2.433  -4.154  -8.409  0.00  0.00    +0.000 A 
ATOM     31  C   UNL     1      -3.451  -5.003  -8.018  0.00  0.00    +0.000 A 
ATOM     32  C   UNL     1      -3.268  -5.856  -6.945  0.00  0.00    +0.000 A 
ATOM     33  C   UNL     1      -2.064  -5.862  -6.266  0.00  0.00    +0.006 A 
ENDBRANCH  27  28
BRANCH  27  34
ATOM     34  O   UNL     1       1.332  -4.768  -6.826  0.00  0.00    -0.379 OA
ATOM     35  H   UNL     1       1.268  -3.921  -7.288  0.00  0.00    +0.211 HD
ENDBRANCH  27  34
ENDBRANCH   4  27
TORSDOF 9
