REMARK  Name = ZINC40744718
REMARK  13 active torsions:
REMARK  status: ('A' for Active; 'I' for Inactive)
REMARK    1  A    between atoms: C_1  and  C_2
REMARK    2  A    between atoms: C_6  and  C_8
REMARK    3  A    between atoms: C_8  and  O_9
REMARK    4  A    between atoms: O_9  and  C_10
REMARK    5  A    between atoms: C_11  and  O_28
REMARK    6  A    between atoms: C_13  and  C_17
REMARK    7  A    between atoms: C_17  and  N_18
REMARK    8  A    between atoms: N_18  and  C_19
REMARK    9  A    between atoms: C_19  and  C_20
REMARK   10  A    between atoms: C_20  and  S_21
REMARK   11  A    between atoms: S_21  and  C_22
REMARK   12  A    between atoms: N_26  and  C_27
REMARK   13  A    between atoms: O_28  and  C_29
REMARK                            x       y       z     vdW  Elec       q    Type
REMARK                         _______ _______ _______ _____ _____    ______ ____
ROOT
ATOM      1  C   UNL     1       1.599  -3.746   4.056  0.00  0.00    +0.176 A 
ATOM      2  C   UNL     1       1.682  -3.054   5.261  0.00  0.00    +0.163 A 
ATOM      3  C   UNL     1       1.879  -3.749   6.443  0.00  0.00    +0.051 A 
ATOM      4  C   UNL     1       1.992  -5.128   6.424  0.00  0.00    -0.060 A 
ATOM      5  C   UNL     1       1.910  -5.815   5.228  0.00  0.00    +0.021 A 
ATOM      6  C   UNL     1       1.708  -5.127   4.045  0.00  0.00    +0.063 A 
ATOM      7 BR   UNL     1       1.588  -6.072   2.411  0.00  0.00    -0.046 Br
ENDROOT
BRANCH   2   8
ATOM      8  O   UNL     1       1.571  -1.699   5.278  0.00  0.00    -0.491 OA
ATOM      9  C   UNL     1       1.665  -1.056   6.551  0.00  0.00    +0.277 C 
ENDBRANCH   2   8
BRANCH   1  10
ATOM     10  O   UNL     1       1.406  -3.067   2.893  0.00  0.00    -0.483 OA
BRANCH  10  11
ATOM     11  C   UNL     1       0.054  -2.845   2.489  0.00  0.00    +0.264 C 
BRANCH  11  17
ATOM     12  C   UNL     1      -0.018   1.503   0.010  0.00  0.00    +0.044 C 
ATOM     13  C   UNL     1       0.002  -0.004   0.002  0.00  0.00    -0.050 A 
ATOM     14  C   UNL     1       0.006  -0.689  -1.199  0.00  0.00    +0.003 A 
ATOM     15  C   UNL     1       0.025  -2.071  -1.207  0.00  0.00    +0.001 A 
ATOM     16  C   UNL     1       0.040  -2.768  -0.013  0.00  0.00    +0.007 A 
ATOM     17  C   UNL     1       0.037  -2.084   1.188  0.00  0.00    -0.010 A 
ATOM     18  C   UNL     1       0.023  -0.702   1.195  0.00  0.00    +0.010 A 
ENDBRANCH  11  17
ENDBRANCH  10  11
ENDBRANCH   1  10
BRANCH   4  19
ATOM     19  C   UNL     1       2.206  -5.882   7.711  0.00  0.00    -0.047 C 
BRANCH  19  20
ATOM     20  N   UNL     1       0.905  -6.242   8.290  0.00  0.00    +0.382 N 
ATOM     21  H   UNL     1       0.375  -5.403   8.476  0.00  0.00    -0.085 HD
ATOM     22  H   UNL     1       0.397  -6.823   7.640  0.00  0.00    -0.085 HD
BRANCH  20  23
ATOM     23  C   UNL     1       1.113  -6.977   9.545  0.00  0.00    -0.071 C 
BRANCH  23  24
ATOM     24  C   UNL     1      -0.242  -7.352  10.147  0.00  0.00    +0.058 C 
BRANCH  24  25
ATOM     25  S   UNL     1       0.015  -8.260  11.697  0.00  0.00    -0.086 S 
BRANCH  25  26
ATOM     26  C   UNL     1      -1.617  -8.615  12.258  0.00  0.00    +0.209 A 
ATOM     27  N   UNL     1      -2.739  -8.285  11.658  0.00  0.00    -0.102 NA
ATOM     28  N   UNL     1      -3.750  -8.697  12.335  0.00  0.00    -0.022 NA
ATOM     29  N   UNL     1      -3.356  -9.309  13.399  0.00  0.00    -0.043 NA
ATOM     30  N   UNL     1      -1.951  -9.284  13.387  0.00  0.00    -0.223 N 
ATOM     31  C   UNL     1      -1.042  -9.857  14.383  0.00  0.00    +0.177 C 
ENDBRANCH  25  26
ENDBRANCH  24  25
ENDBRANCH  23  24
ENDBRANCH  20  23
ENDBRANCH  19  20
ENDBRANCH   4  19
TORSDOF 10
