REMARK  Name = ZINC17086065
REMARK  5 active torsions:
REMARK  status: ('A' for Active; 'I' for Inactive)
REMARK    1  A    between atoms: C_1  and  C_2
REMARK    2  A    between atoms: C_14  and  C_17
REMARK    3  A    between atoms: C_20  and  O_26
REMARK    4  A    between atoms: C_21  and  N_23
REMARK    5  A    between atoms: O_26  and  C_27
REMARK                            x       y       z     vdW  Elec       q    Type
REMARK                         _______ _______ _______ _____ _____    ______ ____
ROOT
ATOM      1  C   UNL     1       5.343   7.024  -0.141  0.00  0.00    +0.008 C 
ATOM      2  C   UNL     1       4.356   5.897  -0.454  0.00  0.00    -0.009 C 
ATOM      3  C   UNL     1       4.472   4.803   0.612  0.00  0.00    +0.008 C 
ATOM      4  C   UNL     1       3.676   3.571   0.179  0.00  0.00    +0.037 C 
ATOM      5  C   UNL     1       2.256   4.001  -0.173  0.00  0.00    -0.023 A 
ATOM      6  C   UNL     1       1.971   5.295  -0.441  0.00  0.00    -0.004 A 
ATOM      7  S   UNL     1       0.232   5.317  -0.791  0.00  0.00    -0.078 S 
ATOM      8  C   UNL     1      -0.103   3.650  -0.591  0.00  0.00    +0.080 A 
ATOM      9  C   UNL     1       1.132   3.081  -0.244  0.00  0.00    +0.068 A 
ATOM     10  C   UNL     1       1.169   1.621  -0.000  0.00  0.00    +0.248 C 
ATOM     11  O   UNL     1       2.220   1.035   0.185  0.00  0.00    -0.270 OA
ATOM     12  N   UNL     1      -0.011   0.966   0.007  0.00  0.00    -0.289 N 
ATOM     13  C   UNL     1      -1.306   1.639   0.017  0.00  0.00    +0.190 C 
ATOM     14  N   UNL     1      -1.254   2.915  -0.714  0.00  0.00    -0.316 N 
ATOM     15  C   UNL     1       2.923   6.450  -0.440  0.00  0.00    +0.046 C 
ATOM     16  H   UNL     1       0.037  -0.133   0.006  0.00  0.00    +0.151 HD
ATOM     17  H   UNL     1      -2.113   3.237  -1.320  0.00  0.00    +0.149 HD
ENDROOT
BRANCH  13  18
ATOM     18  C   UNL     1      -1.711   1.909   1.444  0.00  0.00    -0.007 A 
ATOM     19  C   UNL     1      -2.494   3.009   1.742  0.00  0.00    +0.011 A 
ATOM     20  C   UNL     1      -2.871   3.256   3.048  0.00  0.00    +0.048 A 
ATOM     21  C   UNL     1      -2.454   2.404   4.062  0.00  0.00    +0.150 A 
ATOM     22  C   UNL     1      -1.665   1.304   3.760  0.00  0.00    +0.168 A 
ATOM     23  C   UNL     1      -1.295   1.059   2.452  0.00  0.00    +0.043 A 
BRANCH  22  24
ATOM     24  N   UNL     1      -1.220   0.394   4.839  0.00  0.00    +0.060 N 
ATOM     25  O   UNL     1      -0.526  -0.572   4.573  0.00  0.00    -0.126 OA
ATOM     26  O   UNL     1      -1.546   0.611   5.992  0.00  0.00    -0.126 OA
ENDBRANCH  22  24
BRANCH  21  27
ATOM     27  O   UNL     1      -2.819   2.648   5.348  0.00  0.00    -0.493 OA
ATOM     28  C   UNL     1      -3.633   3.799   5.585  0.00  0.00    +0.277 C 
ENDBRANCH  21  27
ENDBRANCH  13  18
TORSDOF 3
