REMARK  Name = ZINC45556311
REMARK  11 active torsions:
REMARK  status: ('A' for Active; 'I' for Inactive)
REMARK    1  A    between atoms: C_1  and  C_2
REMARK    2  A    between atoms: C_2  and  C_3
REMARK    3  A    between atoms: C_3  and  N_4
REMARK    4  A    between atoms: N_11  and  C_14
REMARK    5  A    between atoms: C_14  and  C_15
REMARK    6  A    between atoms: C_15  and  O_17
REMARK    7  A    between atoms: O_17  and  C_18
REMARK    8  A    between atoms: C_18  and  C_20
REMARK    9  A    between atoms: C_18  and  C_21
REMARK   10  A    between atoms: N_23  and  C_24
REMARK   11  A    between atoms: C_24  and  C_25
REMARK                            x       y       z     vdW  Elec       q    Type
REMARK                         _______ _______ _______ _____ _____    ______ ____
ROOT
ATOM      1  C   UNL     1      -1.593  -5.626  -1.008  0.00  0.00    +0.328 C 
ATOM      2  O   UNL     1      -1.637  -5.014   0.032  0.00  0.00    -0.249 OA
ENDROOT
BRANCH   1   3
ATOM      3  C   UNL     1      -0.625  -5.212  -2.086  0.00  0.00    +0.247 C 
BRANCH   3  11
ATOM      4  N   UNL     1       0.738  -1.962  -1.265  0.00  0.00    -0.292 N 
ATOM      5  C   UNL     1       1.730  -2.767  -0.709  0.00  0.00    +0.070 A 
ATOM      6  C   UNL     1       2.909  -2.494  -0.032  0.00  0.00    +0.028 A 
ATOM      7  C   UNL     1       3.705  -3.533   0.409  0.00  0.00    +0.002 A 
ATOM      8  C   UNL     1       3.331  -4.845   0.177  0.00  0.00    +0.002 A 
ATOM      9  C   UNL     1       2.159  -5.127  -0.496  0.00  0.00    +0.028 A 
ATOM     10  C   UNL     1       1.353  -4.091  -0.942  0.00  0.00    +0.070 A 
ATOM     11  N   UNL     1       0.143  -4.050  -1.632  0.00  0.00    -0.281 N 
ATOM     12  C   UNL     1      -0.202  -2.760  -1.806  0.00  0.00    +0.331 A 
ATOM     13  O   UNL     1      -1.209  -2.374  -2.369  0.00  0.00    -0.246 OA
BRANCH   4  14
ATOM     14  C   UNL     1       0.718  -0.497  -1.257  0.00  0.00    +0.127 C 
BRANCH  14  16
ATOM     15  C   UNL     1      -0.019   1.526   0.010  0.00  0.00    +0.005 C 
ATOM     16  C   UNL     1       0.002  -0.004   0.002  0.00  0.00    +0.018 C 
ENDBRANCH  14  16
ENDBRANCH   4  14
ENDBRANCH   3  11
ENDBRANCH   1   3
BRANCH   1  17
ATOM     17  O   UNL     1      -2.406  -6.676  -1.204  0.00  0.00    -0.451 OA
BRANCH  17  18
ATOM     18  C   UNL     1      -3.298  -7.013  -0.140  0.00  0.00    +0.258 C 
ATOM     19  C   UNL     1      -2.618  -8.012   0.798  0.00  0.00    +0.062 C 
BRANCH  18  20
ATOM     20  C   UNL     1      -4.549  -7.631  -0.710  0.00  0.00    +0.254 C 
ATOM     21  O   UNL     1      -4.629  -7.852  -1.900  0.00  0.00    -0.272 OA
ATOM     22  N   UNL     1      -5.580  -7.937   0.103  0.00  0.00    -0.308 N 
ATOM     23  H   UNL     1      -5.516  -7.760   1.054  0.00  0.00    +0.149 HD
BRANCH  22  24
ATOM     24  C   UNL     1      -6.796  -8.537  -0.451  0.00  0.00    +0.146 C 
BRANCH  24  25
ATOM     25  C   UNL     1      -7.787  -8.780   0.658  0.00  0.00    +0.007 A 
ATOM     26  C   UNL     1      -8.756  -7.960   1.131  0.00  0.00    +0.013 A 
ATOM     27  C   UNL     1      -9.558  -8.398   2.168  0.00  0.00    +0.008 A 
ATOM     28  C   UNL     1      -9.351  -9.636   2.682  0.00  0.00    +0.045 A 
ATOM     29  S   UNL     1      -7.993 -10.226   1.685  0.00  0.00    -0.100 S 
ENDBRANCH  24  25
ENDBRANCH  22  24
ENDBRANCH  18  20
ENDBRANCH  17  18
ENDBRANCH   1  17
TORSDOF 9
