REMARK  Name = ZINC38657616
REMARK  6 active torsions:
REMARK  status: ('A' for Active; 'I' for Inactive)
REMARK    1  A    between atoms: C_4  and  C_7
REMARK    2  A    between atoms: C_7  and  O_9
REMARK    3  A    between atoms: O_9  and  C_10
REMARK    4  A    between atoms: C_17  and  N_33
REMARK    5  A    between atoms: C_18  and  C_31
REMARK    6  A    between atoms: C_19  and  C_21
REMARK                            x       y       z     vdW  Elec       q    Type
REMARK                         _______ _______ _______ _____ _____    ______ ____
ROOT
ATOM      1  C   UNL     1       4.880  -2.732  -0.095  0.00  0.00    +0.135 A 
ATOM      2  C   UNL     1       6.098  -2.069  -0.061  0.00  0.00    +0.047 A 
ATOM      3  C   UNL     1       7.277  -2.787  -0.110  0.00  0.00    +0.012 A 
ATOM      4  C   UNL     1       7.248  -4.168  -0.194  0.00  0.00    +0.008 A 
ATOM      5  C   UNL     1       6.034  -4.836  -0.229  0.00  0.00    +0.138 A 
ATOM      6  C   UNL     1       4.848  -4.115  -0.173  0.00  0.00    +0.093 A 
ATOM      7  O   UNL     1       5.986  -6.188  -0.310  0.00  0.00    -0.441 OA
ATOM      8  C   UNL     1       7.059  -6.872  -0.740  0.00  0.00    +0.199 C 
ATOM      9  C   UNL     1       8.302  -6.333  -0.736  0.00  0.00    +0.098 C 
ATOM     10  C   UNL     1       8.544  -4.933  -0.247  0.00  0.00    +0.098 C 
ENDROOT
BRANCH  10  11
ATOM     11  C   UNL     1       9.150  -4.984   1.132  0.00  0.00    -0.027 A 
ATOM     12  C   UNL     1       8.515  -5.653   2.134  0.00  0.00    +0.005 A 
ATOM     13  C   UNL     1       9.060  -5.711   3.415  0.00  0.00    +0.001 A 
ATOM     14  C   UNL     1      10.242  -5.101   3.702  0.00  0.00    +0.008 A 
ATOM     15  C   UNL     1      10.927  -4.402   2.694  0.00  0.00    -0.018 A 
ATOM     16  C   UNL     1      10.376  -4.348   1.389  0.00  0.00    -0.014 A 
ATOM     17  C   UNL     1      11.063  -3.653   0.379  0.00  0.00    +0.009 A 
ATOM     18  C   UNL     1      12.248  -3.048   0.665  0.00  0.00    +0.001 A 
ATOM     19  C   UNL     1      12.793  -3.107   1.947  0.00  0.00    +0.001 A 
ATOM     20  C   UNL     1      12.149  -3.759   2.953  0.00  0.00    +0.008 A 
ENDBRANCH  10  11
BRANCH   8  21
ATOM     21  N   UNL     1       6.892  -8.156  -1.196  0.00  0.00    -0.328 N 
ATOM     22  H   UNL     1       6.009  -8.556  -1.205  0.00  0.00    +0.145 HD
ATOM     23  H   UNL     1       7.657  -8.663  -1.510  0.00  0.00    +0.145 HD
ENDBRANCH   8  21
BRANCH   9  24
ATOM     24  C   UNL     1       9.406  -7.113  -1.208  0.00  0.00    +0.101 C 
ATOM     25  N   UNL     1      10.283  -7.731  -1.582  0.00  0.00    -0.191 NA
ENDBRANCH   9  24
BRANCH   1  26
ATOM     26  O   UNL     1       3.719  -2.027  -0.046  0.00  0.00    -0.422 OA
BRANCH  26  27
ATOM     27  C   UNL     1       3.310  -1.403  -1.168  0.00  0.00    +0.344 C 
ATOM     28  O   UNL     1       4.017  -1.406  -2.156  0.00  0.00    -0.245 OA
BRANCH  27  32
ATOM     29  C   UNL     1      -0.448   0.573  -1.250  0.00  0.00    +0.000 A 
ATOM     30  C   UNL     1       0.355   0.572  -2.377  0.00  0.00    +0.001 A 
ATOM     31  C   UNL     1       1.577  -0.068  -2.357  0.00  0.00    +0.015 A 
ATOM     32  C   UNL     1       2.003  -0.715  -1.196  0.00  0.00    +0.059 A 
ATOM     33  C   UNL     1       1.189  -0.710  -0.062  0.00  0.00    +0.015 A 
ATOM     34  C   UNL     1      -0.031  -0.066  -0.096  0.00  0.00    +0.001 A 
ENDBRANCH  27  32
ENDBRANCH  26  27
ENDBRANCH   1  26
TORSDOF 6
