REMARK  Name = ZINC12960971
REMARK  7 active torsions:
REMARK  status: ('A' for Active; 'I' for Inactive)
REMARK    1  A    between atoms: N_9  and  C_12
REMARK    2  A    between atoms: C_12  and  C_13
REMARK    3  A    between atoms: C_13  and  C_14
REMARK    4  A    between atoms: N_19  and  N_20
REMARK    5  A    between atoms: C_23  and  C_26
REMARK    6  A    between atoms: C_26  and  C_27
REMARK    7  A    between atoms: C_27  and  N_28
REMARK                            x       y       z     vdW  Elec       q    Type
REMARK                         _______ _______ _______ _____ _____    ______ ____
ROOT
ATOM      1  C   UNL     1       2.188   0.709  -0.015  0.00  0.00    +0.052 A 
ATOM      2  C   UNL     1       1.747   1.989  -0.004  0.00  0.00    +0.072 A 
ATOM      3  S   UNL     1      -0.021   1.732   0.012  0.00  0.00    -0.059 S 
ATOM      4  C   UNL     1       0.002  -0.004   0.002  0.00  0.00    +0.175 A 
ATOM      5  N   UNL     1       1.296  -0.264  -0.012  0.00  0.00    -0.229 NA
ATOM      6  N   UNL     1      -1.064  -0.890   0.007  0.00  0.00    -0.243 N 
ATOM      7  H   UNL     1      -0.901  -1.846   0.000  0.00  0.00    +0.172 HD
ENDROOT
BRANCH   6   8
ATOM      8  N   UNL     1      -2.378  -0.404   0.022  0.00  0.00    -0.243 N 
ATOM      9  C   UNL     1      -3.445  -1.289   0.027  0.00  0.00    +0.175 A 
ATOM     10  N   UNL     1      -4.738  -1.029   0.046  0.00  0.00    -0.229 NA
ATOM     11  C   UNL     1      -5.630  -2.002   0.044  0.00  0.00    +0.052 A 
ATOM     12  C   UNL     1      -5.189  -3.283   0.033  0.00  0.00    +0.072 A 
ATOM     13  S   UNL     1      -3.421  -3.026   0.018  0.00  0.00    -0.059 S 
ATOM     14  H   UNL     1      -2.542   0.552   0.029  0.00  0.00    +0.172 HD
BRANCH  11  15
ATOM     15  C   UNL     1      -7.105  -1.695   0.060  0.00  0.00    +0.075 C 
BRANCH  15  16
ATOM     16  C   UNL     1      -7.425  -0.787   1.250  0.00  0.00    +0.123 C 
BRANCH  16  17
ATOM     17  N   UNL     1      -8.859  -0.489   1.265  0.00  0.00    -0.234 N 
ATOM     18  C   UNL     1      -9.424   0.563   0.645  0.00  0.00    +0.254 C 
ATOM     19  O   UNL     1      -8.836   1.401  -0.007  0.00  0.00    -0.270 OA
ATOM     20  C   UNL     1     -10.882   0.524   0.887  0.00  0.00    +0.049 A 
ATOM     21  C   UNL     1     -11.947   1.325   0.507  0.00  0.00    +0.014 A 
ATOM     22  C   UNL     1     -13.230   1.003   0.921  0.00  0.00    +0.001 A 
ATOM     23  C   UNL     1     -13.454  -0.110   1.709  0.00  0.00    +0.001 A 
ATOM     24  C   UNL     1     -12.398  -0.920   2.097  0.00  0.00    +0.014 A 
ATOM     25  C   UNL     1     -11.110  -0.611   1.691  0.00  0.00    +0.049 A 
ATOM     26  C   UNL     1      -9.783  -1.226   1.906  0.00  0.00    +0.254 C 
ATOM     27  O   UNL     1      -9.564  -2.231   2.554  0.00  0.00    -0.270 OA
ENDBRANCH  16  17
ENDBRANCH  15  16
ENDBRANCH  11  15
ENDBRANCH   6   8
BRANCH   1  28
ATOM     28  C   UNL     1       3.663   0.402  -0.031  0.00  0.00    +0.075 C 
BRANCH  28  29
ATOM     29  C   UNL     1       4.005  -0.518   1.143  0.00  0.00    +0.123 C 
BRANCH  29  38
ATOM     30  C   UNL     1      10.041  -1.199   1.480  0.00  0.00    +0.001 A 
ATOM     31  C   UNL     1       9.803  -2.304   0.684  0.00  0.00    +0.001 A 
ATOM     32  C   UNL     1       8.512  -2.622   0.292  0.00  0.00    +0.014 A 
ATOM     33  C   UNL     1       7.454  -1.826   0.700  0.00  0.00    +0.049 A 
ATOM     34  C   UNL     1       7.697  -0.699   1.512  0.00  0.00    +0.049 A 
ATOM     35  C   UNL     1       8.993  -0.394   1.896  0.00  0.00    +0.014 A 
ATOM     36  C   UNL     1       6.375  -0.086   1.759  0.00  0.00    +0.254 C 
ATOM     37  O   UNL     1       6.169   0.912   2.420  0.00  0.00    -0.270 OA
ATOM     38  N   UNL     1       5.439  -0.817   1.128  0.00  0.00    -0.234 N 
ATOM     39  C   UNL     1       5.992  -1.862   0.486  0.00  0.00    +0.254 C 
ATOM     40  O   UNL     1       5.391  -2.694  -0.163  0.00  0.00    -0.270 OA
ENDBRANCH  29  38
ENDBRANCH  28  29
ENDBRANCH   1  28
TORSDOF 7
