REMARK  Name = ZINC45606757
REMARK  7 active torsions:
REMARK  status: ('A' for Active; 'I' for Inactive)
REMARK    1  A    between atoms: C_1  and  C_2
REMARK    2  A    between atoms: C_2  and  C_4
REMARK    3  A    between atoms: C_2  and  N_13
REMARK    4  A    between atoms: C_4  and  C_5
REMARK    5  A    between atoms: C_5  and  C_6
REMARK    6  A    between atoms: C_9  and  O_12
REMARK    7  A    between atoms: C_19  and  C_22
REMARK                            x       y       z     vdW  Elec       q    Type
REMARK                         _______ _______ _______ _____ _____    ______ ____
ROOT
ATOM      1  N   UNL     1       0.711  -0.488   1.189  0.00  0.00    -0.297 N 
ATOM      2  C   UNL     1       0.051  -0.633   2.355  0.00  0.00    +0.303 C 
ATOM      3  O   UNL     1      -1.108  -0.277   2.447  0.00  0.00    -0.253 OA
ATOM      4  N   UNL     1       0.676  -1.174   3.420  0.00  0.00    -0.282 N 
ATOM      5  C   UNL     1      -0.047  -1.451   4.673  0.00  0.00    +0.114 C 
ATOM      6  C   UNL     1      -0.001  -2.961   4.921  0.00  0.00    +0.054 C 
ATOM      7  C   UNL     1       1.386  -3.486   4.697  0.00  0.00    -0.039 C 
ATOM      8  C   UNL     1       2.314  -2.857   4.014  0.00  0.00    -0.004 C 
ATOM      9  C   UNL     1       2.105  -1.517   3.376  0.00  0.00    +0.137 C 
ATOM     10  H   UNL     1       1.655  -0.703   1.136  0.00  0.00    +0.151 HD
ENDROOT
BRANCH   7  11
ATOM     11  C   UNL     1       1.731  -4.795   5.285  0.00  0.00    +0.005 A 
ATOM     12  C   UNL     1       1.977  -5.059   6.594  0.00  0.00    +0.093 A 
ATOM     13  N   UNL     1       2.260  -6.385   6.751  0.00  0.00    -0.345 N 
ATOM     14  H   UNL     1       2.470  -6.810   7.598  0.00  0.00    +0.167 HD
ATOM     15  C   UNL     1       2.206  -7.033   5.539  0.00  0.00    +0.139 A 
ATOM     16  C   UNL     1       1.868  -6.073   4.568  0.00  0.00    +0.026 A 
ATOM     17  C   UNL     1       1.738  -6.460   3.235  0.00  0.00    +0.013 A 
ATOM     18  C   UNL     1       1.948  -7.790   2.920  0.00  0.00    +0.020 A 
ATOM     19  C   UNL     1       2.275  -8.684   3.928  0.00  0.00    +0.113 A 
ATOM     20  N   UNL     1       2.400  -8.295   5.179  0.00  0.00    -0.237 NA
ENDBRANCH   7  11
BRANCH   1  22
ATOM     21  C   UNL     1      -0.022   1.525   0.010  0.00  0.00    +0.028 C 
ATOM     22  C   UNL     1       0.002  -0.004   0.002  0.00  0.00    +0.072 C 
BRANCH  22  23
ATOM     23  C   UNL     1       0.720  -0.496  -1.256  0.00  0.00    +0.026 C 
BRANCH  23  24
ATOM     24  C   UNL     1       0.636  -2.022  -1.328  0.00  0.00    +0.037 C 
BRANCH  24  25
ATOM     25  C   UNL     1       1.344  -2.507  -2.567  0.00  0.00    -0.047 A 
ATOM     26  C   UNL     1       0.646  -2.638  -3.754  0.00  0.00    +0.007 A 
ATOM     27  C   UNL     1       1.292  -3.082  -4.891  0.00  0.00    +0.045 A 
ATOM     28  C   UNL     1       2.642  -3.397  -4.842  0.00  0.00    +0.117 A 
ATOM     29  C   UNL     1       3.340  -3.264  -3.651  0.00  0.00    +0.045 A 
ATOM     30  C   UNL     1       2.691  -2.814  -2.518  0.00  0.00    +0.007 A 
BRANCH  28  31
ATOM     31  O   UNL     1       3.280  -3.834  -5.960  0.00  0.00    -0.507 OA
ATOM     32  H   UNL     1       3.666  -3.127  -6.495  0.00  0.00    +0.292 HD
ENDBRANCH  28  31
ENDBRANCH  24  25
ENDBRANCH  23  24
ENDBRANCH  22  23
ENDBRANCH   1  22
TORSDOF 6
