REMARK  Name = ZINC03114441
REMARK  9 active torsions:
REMARK  status: ('A' for Active; 'I' for Inactive)
REMARK    1  A    between atoms: C_1  and  C_2
REMARK    2  A    between atoms: C_2  and  C_3
REMARK    3  A    between atoms: N_5  and  C_6
REMARK    4  A    between atoms: C_6  and  C_7
REMARK    5  A    between atoms: C_6  and  C_11
REMARK    6  A    between atoms: C_6  and  N_15
REMARK    7  A    between atoms: N_15  and  C_16
REMARK    8  A    between atoms: C_19  and  S_22
REMARK    9  A    between atoms: S_22  and  N_25
REMARK                            x       y       z     vdW  Elec       q    Type
REMARK                         _______ _______ _______ _____ _____    ______ ____
ROOT
ATOM      1  C   UNL     1       1.359   1.979  -0.088  0.00  0.00    +0.293 C 
ENDROOT
BRANCH   1   4
ATOM      2  C   UNL     1       2.973   0.184  -0.424  0.00  0.00    +0.215 C 
ATOM      3  O   UNL     1       2.226  -0.296  -1.250  0.00  0.00    -0.276 OA
ATOM      4  N   UNL     1       2.654   1.347   0.178  0.00  0.00    -0.280 N 
ATOM      5  H   UNL     1       3.282   1.766   0.787  0.00  0.00    +0.151 HD
BRANCH   2   7
ATOM      6  C   UNL     1       4.376  -1.807  -0.890  0.00  0.00    +0.013 C 
ATOM      7  C   UNL     1       4.257  -0.520  -0.070  0.00  0.00    +0.092 C 
ENDBRANCH   2   7
ENDBRANCH   1   4
BRANCH   1   8
ATOM      8  C   UNL     1       1.389   2.641  -1.467  0.00  0.00    +0.436 C 
ATOM      9  F   UNL     1       0.129   3.178  -1.754  0.00  0.00    -0.166 F 
ATOM     10  F   UNL     1       2.344   3.663  -1.473  0.00  0.00    -0.166 F 
ATOM     11  F   UNL     1       1.720   1.687  -2.436  0.00  0.00    -0.166 F 
ENDBRANCH   1   8
BRANCH   1  12
ATOM     12  C   UNL     1       1.079   3.038   0.980  0.00  0.00    +0.436 C 
ATOM     13  F   UNL     1       1.144   2.449   2.248  0.00  0.00    -0.166 F 
ATOM     14  F   UNL     1       2.034   4.056   0.889  0.00  0.00    -0.166 F 
ATOM     15  F   UNL     1      -0.197   3.576   0.780  0.00  0.00    -0.166 F 
ENDBRANCH   1  12
BRANCH   1  16
ATOM     16  N   UNL     1       0.304   0.963  -0.057  0.00  0.00    -0.309 N 
ATOM     17  H   UNL     1      -0.383   0.955  -0.742  0.00  0.00    +0.149 HD
BRANCH  16  18
ATOM     18  C   UNL     1       0.285   0.008   0.962  0.00  0.00    +0.029 A 
ATOM     19  C   UNL     1       1.271   0.013   1.940  0.00  0.00    +0.025 A 
ATOM     20  C   UNL     1       1.246  -0.930   2.949  0.00  0.00    +0.030 A 
ATOM     21  C   UNL     1       0.246  -1.884   2.981  0.00  0.00    +0.105 A 
ATOM     22  C   UNL     1      -0.735  -1.895   2.006  0.00  0.00    +0.030 A 
ATOM     23  C   UNL     1      -0.718  -0.953   0.997  0.00  0.00    +0.025 A 
BRANCH  21  24
ATOM     24  S   UNL     1       0.221  -3.089   4.267  0.00  0.00    +0.056 S 
ATOM     25  O   UNL     1       0.934  -2.529   5.361  0.00  0.00    -0.153 OA
ATOM     26  O   UNL     1      -1.124  -3.533   4.381  0.00  0.00    -0.153 OA
BRANCH  24  27
ATOM     27  N   UNL     1       1.105  -4.386   3.740  0.00  0.00    -0.204 NA
ATOM     28  H   UNL     1       1.514  -4.369   2.861  0.00  0.00    +0.144 HD
ATOM     29  H   UNL     1       1.212  -5.164   4.310  0.00  0.00    +0.144 HD
ENDBRANCH  24  27
ENDBRANCH  21  24
ENDBRANCH  16  18
ENDBRANCH   1  16
TORSDOF 8
