REMARK  Name = ZINC36561959
REMARK  17 active torsions:
REMARK  status: ('A' for Active; 'I' for Inactive)
REMARK    1  A    between atoms: C_1  and  C_2
REMARK    2  A    between atoms: C_2  and  C_3
REMARK    3  A    between atoms: C_3  and  N_4
REMARK    4  A    between atoms: N_4  and  C_5
REMARK    5  A    between atoms: C_5  and  C_7
REMARK    6  A    between atoms: C_5  and  C_16
REMARK    7  A    between atoms: C_8  and  O_15
REMARK    8  A    between atoms: C_10  and  O_14
REMARK    9  A    between atoms: C_12  and  O_13
REMARK   10  A    between atoms: N_18  and  C_19
REMARK   11  A    between atoms: C_19  and  C_20
REMARK   12  A    between atoms: C_19  and  C_21
REMARK   13  A    between atoms: C_19  and  C_22
REMARK   14  A    between atoms: C_23  and  C_25
REMARK   15  A    between atoms: C_33  and  C_35
REMARK   16  A    between atoms: C_36  and  C_37
REMARK   17  A    between atoms: C_36  and  C_38
REMARK                            x       y       z     vdW  Elec       q    Type
REMARK                         _______ _______ _______ _____ _____    ______ ____
ROOT
ATOM      1  C   UNL     1      -1.024  -2.216  -1.592  0.00  0.00    +0.199 C 
ENDROOT
BRANCH   1   2
ATOM      2  C   UNL     1      -1.344  -3.106  -0.419  0.00  0.00    +0.065 A 
ATOM      3  C   UNL     1      -1.570  -4.460  -0.618  0.00  0.00    +0.129 A 
ATOM      4  C   UNL     1      -1.864  -5.279   0.462  0.00  0.00    +0.091 A 
ATOM      5  C   UNL     1      -1.931  -4.745   1.740  0.00  0.00    +0.124 A 
ATOM      6  C   UNL     1      -1.703  -3.392   1.938  0.00  0.00    +0.091 A 
ATOM      7  C   UNL     1      -1.405  -2.573   0.860  0.00  0.00    +0.129 A 
BRANCH   7   8
ATOM      8  O   UNL     1      -1.178  -1.248   1.055  0.00  0.00    -0.506 OA
ATOM      9  H   UNL     1      -1.973  -0.700   1.001  0.00  0.00    +0.292 HD
ENDBRANCH   7   8
BRANCH   5  10
ATOM     10  O   UNL     1      -2.220  -5.548   2.797  0.00  0.00    -0.507 OA
ATOM     11  H   UNL     1      -1.442  -5.942   3.216  0.00  0.00    +0.292 HD
ENDBRANCH   5  10
BRANCH   3  12
ATOM     12  O   UNL     1      -1.504  -4.983  -1.870  0.00  0.00    -0.506 OA
ATOM     13  H   UNL     1      -0.644  -5.364  -2.092  0.00  0.00    +0.292 HD
ENDBRANCH   3  12
ENDBRANCH   1   2
BRANCH   1  14
ATOM     14  C   UNL     1      -2.224  -1.363  -1.917  0.00  0.00    +0.239 C 
ATOM     15  O   UNL     1      -2.115  -0.156  -1.965  0.00  0.00    -0.273 OA
ATOM     16  N   UNL     1      -3.418  -1.942  -2.154  0.00  0.00    -0.309 N 
ATOM     17  H   UNL     1      -3.505  -2.908  -2.116  0.00  0.00    +0.149 HD
BRANCH  16  18
ATOM     18  C   UNL     1      -4.584  -1.114  -2.470  0.00  0.00    +0.026 C 
ATOM     19  C   UNL     1      -4.307  -0.305  -3.739  0.00  0.00    +0.031 C 
ATOM     20  C   UNL     1      -5.802  -2.012  -2.693  0.00  0.00    +0.031 C 
ATOM     21  C   UNL     1      -4.861  -0.159  -1.307  0.00  0.00    +0.031 C 
ENDBRANCH  16  18
ENDBRANCH   1  14
BRANCH   1  22
ATOM     22  N   UNL     1       0.111  -1.353  -1.256  0.00  0.00    -0.285 N 
ATOM     23  C   UNL     1       1.336  -1.888  -1.081  0.00  0.00    +0.220 C 
ATOM     24  O   UNL     1       1.486  -3.090  -1.140  0.00  0.00    -0.275 OA
BRANCH  23  25
ATOM     25  C   UNL     1       2.526  -0.987  -0.812  0.00  0.00    +0.079 C 
ATOM     26  C   UNL     1       2.766  -0.111  -2.037  0.00  0.00    +0.017 C 
ATOM     27  C   UNL     1       4.250   0.126  -2.311  0.00  0.00    -0.004 C 
ATOM     28  C   UNL     1       5.001  -1.204  -2.530  0.00  0.00    +0.008 C 
ATOM     29  C   UNL     1       5.040  -1.257  -0.982  0.00  0.00    -0.001 C 
ATOM     30  C   UNL     1       3.731  -1.854  -0.466  0.00  0.00    +0.001 C 
ATOM     31  C   UNL     1       3.804  -2.102   1.043  0.00  0.00    +0.008 C 
ATOM     32  C   UNL     1       5.103   0.270  -1.042  0.00  0.00    -0.029 C 
ATOM     33  C   UNL     1       6.519   0.808  -1.328  0.00  0.00    +0.011 C 
ATOM     34  C   UNL     1       4.452   1.039   0.103  0.00  0.00    +0.011 C 
ENDBRANCH  23  25
BRANCH  22  35
ATOM     35  C   UNL     1      -0.085   0.091  -1.109  0.00  0.00    +0.108 C 
BRANCH  35  37
ATOM     36  C   UNL     1      -0.313   2.251  -2.344  0.00  0.00    +0.005 C 
ATOM     37  C   UNL     1       0.001   0.760  -2.482  0.00  0.00    +0.016 C 
ENDBRANCH  35  37
ENDBRANCH  22  35
ENDBRANCH   1  22
TORSDOF 10
