REMARK  Name = ZINC20591976
REMARK  8 active torsions:
REMARK  status: ('A' for Active; 'I' for Inactive)
REMARK    1  A    between atoms: C_1  and  C_2
REMARK    2  A    between atoms: C_2  and  C_3
REMARK    3  A    between atoms: C_3  and  C_4
REMARK    4  A    between atoms: C_4  and  C_5
REMARK    5  A    between atoms: C_8  and  C_11
REMARK    6  A    between atoms: N_13  and  C_14
REMARK    7  A    between atoms: C_14  and  C_15
REMARK    8  A    between atoms: C_15  and  C_16
REMARK                            x       y       z     vdW  Elec       q    Type
REMARK                         _______ _______ _______ _____ _____    ______ ____
ROOT
ATOM      1  C   UNL     1       7.648  -5.213  -8.132  0.00  0.00    +0.217 C 
ATOM      2  O   UNL     1       7.018  -5.413  -9.149  0.00  0.00    -0.276 OA
ATOM      3  N   UNL     1       8.979  -5.425  -8.111  0.00  0.00    -0.301 N 
ATOM      4  C   UNL     1       9.754  -5.192  -6.885  0.00  0.00    +0.110 C 
ATOM      5  C   UNL     1      10.913  -4.243  -7.208  0.00  0.00    +0.047 C 
ATOM      6  C   UNL     1      11.727  -4.815  -8.370  0.00  0.00    +0.064 C 
ATOM      7  C   UNL     1      10.841  -4.938  -9.610  0.00  0.00    +0.047 C 
ATOM      8  C   UNL     1       9.680  -5.899  -9.311  0.00  0.00    +0.110 C 
ATOM      9  C   UNL     1      12.895  -3.912  -8.665  0.00  0.00    +0.057 A 
ATOM     10  C   UNL     1      14.167  -4.187  -8.294  0.00  0.00    +0.039 A 
ATOM     11  N   UNL     1      14.943  -3.187  -8.713  0.00  0.00    -0.349 N 
ATOM     12  C   UNL     1      14.205  -2.300  -9.328  0.00  0.00    +0.171 A 
ATOM     13  N   UNL     1      12.918  -2.720  -9.317  0.00  0.00    -0.348 N 
ATOM     14  H   UNL     1      12.156  -2.258  -9.701  0.00  0.00    +0.166 HD
ATOM     15  C   UNL     1      14.551  -5.434  -7.537  0.00  0.00    +0.070 C 
ATOM     16  C   UNL     1      13.270  -6.046  -6.953  0.00  0.00    +0.088 C 
ATOM     17  N   UNL     1      12.245  -6.142  -8.001  0.00  0.00    -0.305 NA
ATOM     18  H   UNL     1      11.496  -6.757  -7.719  0.00  0.00    +0.123 HD
ATOM     19  H   UNL     1      15.902  -3.127  -8.581  0.00  0.00    +0.166 HD
ENDROOT
BRANCH   1  20
ATOM     20  C   UNL     1       6.942  -4.726  -6.892  0.00  0.00    +0.114 C 
BRANCH  20  21
ATOM     21  C   UNL     1       5.449  -4.569  -7.184  0.00  0.00    +0.113 C 
BRANCH  21  24
ATOM     22  C   UNL     1       3.432  -3.884  -6.000  0.00  0.00    +0.244 C 
ATOM     23  O   UNL     1       2.801  -4.085  -7.019  0.00  0.00    -0.270 OA
ATOM     24  N   UNL     1       4.763  -4.096  -5.979  0.00  0.00    -0.311 N 
ATOM     25  H   UNL     1       5.267  -3.935  -5.165  0.00  0.00    +0.149 HD
BRANCH  22  29
ATOM     26  C   UNL     1       1.444  -2.513  -2.505  0.00  0.00    -0.047 A 
ATOM     27  C   UNL     1       0.723  -2.741  -3.663  0.00  0.00    +0.004 A 
ATOM     28  C   UNL     1       1.362  -3.186  -4.802  0.00  0.00    +0.013 A 
ATOM     29  C   UNL     1       2.740  -3.406  -4.783  0.00  0.00    +0.037 A 
ATOM     30  C   UNL     1       3.462  -3.175  -3.612  0.00  0.00    +0.013 A 
ATOM     31  C   UNL     1       2.812  -2.724  -2.482  0.00  0.00    +0.004 A 
BRANCH  26  32
ATOM     32  C   UNL     1       0.739  -2.027  -1.265  0.00  0.00    +0.035 C 
BRANCH  32  33
ATOM     33  C   UNL     1       0.718  -0.497  -1.257  0.00  0.00    +0.004 C 
BRANCH  33  35
ATOM     34  C   UNL     1      -0.019   1.526   0.010  0.00  0.00    +0.004 C 
ATOM     35  C   UNL     1       0.002  -0.004   0.002  0.00  0.00    -0.003 C 
ENDBRANCH  33  35
ENDBRANCH  32  33
ENDBRANCH  26  32
ENDBRANCH  22  29
ENDBRANCH  21  24
ENDBRANCH  20  21
ENDBRANCH   1  20
TORSDOF 7
