REMARK  Name = ZINC20557906
REMARK  8 active torsions:
REMARK  status: ('A' for Active; 'I' for Inactive)
REMARK    1  A    between atoms: C_1  and  C_2
REMARK    2  A    between atoms: C_2  and  O_3
REMARK    3  A    between atoms: O_3  and  C_4
REMARK    4  A    between atoms: C_4  and  C_6
REMARK    5  A    between atoms: C_7  and  C_21
REMARK    6  A    between atoms: C_12  and  C_14
REMARK    7  A    between atoms: C_21  and  N_22
REMARK    8  A    between atoms: C_25  and  N_28
REMARK                            x       y       z     vdW  Elec       q    Type
REMARK                         _______ _______ _______ _____ _____    ______ ____
ROOT
ATOM      1  C   UNL     1      -2.711   7.718   6.150  0.00  0.00    +0.079 C 
ATOM      2  C   UNL     1      -1.480   7.178   6.287  0.00  0.00    +0.038 C 
ATOM      3  N   UNL     1      -0.356   7.929   6.100  0.00  0.00    -0.271 N 
ATOM      4  C   UNL     1      -0.376   9.229   5.780  0.00  0.00    +0.304 C 
ATOM      5  O   UNL     1       0.679   9.815   5.633  0.00  0.00    -0.252 OA
ATOM      6  N   UNL     1      -1.527   9.909   5.614  0.00  0.00    -0.288 N 
ATOM      7  C   UNL     1      -2.799   9.188   5.793  0.00  0.00    +0.144 C 
ATOM      8  H   UNL     1       0.638   7.470   6.212  0.00  0.00    +0.156 HD
ATOM      9  H   UNL     1      -1.533  10.977   5.350  0.00  0.00    +0.151 HD
ENDROOT
BRANCH   7  10
ATOM     10  C   UNL     1      -3.583   9.303   4.512  0.00  0.00    -0.022 A 
ATOM     11  C   UNL     1      -2.935   9.211   3.294  0.00  0.00    +0.008 A 
ATOM     12  C   UNL     1      -3.654   9.311   2.119  0.00  0.00    +0.038 A 
ATOM     13  C   UNL     1      -5.023   9.515   2.160  0.00  0.00    +0.123 A 
ATOM     14  C   UNL     1      -5.670   9.614   3.380  0.00  0.00    +0.038 A 
ATOM     15  C   UNL     1      -4.950   9.507   4.554  0.00  0.00    +0.008 A 
ATOM     16  F   UNL     1      -5.726   9.620   1.011  0.00  0.00    -0.205 F 
ENDBRANCH   7  10
BRANCH   1  17
ATOM     17  C   UNL     1      -3.877   6.940   6.338  0.00  0.00    +0.339 C 
ATOM     18  O   UNL     1      -4.492   7.009   7.386  0.00  0.00    -0.245 OA
BRANCH  17  19
ATOM     19  O   UNL     1      -4.307   6.121   5.356  0.00  0.00    -0.462 OA
BRANCH  19  21
ATOM     20  C   UNL     1      -5.821   4.501   4.394  0.00  0.00    +0.048 C 
ATOM     21  C   UNL     1      -5.491   5.364   5.614  0.00  0.00    +0.229 C 
ENDBRANCH  19  21
ENDBRANCH  17  19
ENDBRANCH   1  17
BRANCH   2  22
ATOM     22  C   UNL     1      -1.347   5.720   6.647  0.00  0.00    +0.135 C 
BRANCH  22  23
ATOM     23  N   UNL     1      -0.698   5.001   5.543  0.00  0.00    -0.297 NA
ATOM     24  C   UNL     1      -0.763   3.549   5.750  0.00  0.00    +0.083 C 
ATOM     25  C   UNL     1       0.045   2.840   4.661  0.00  0.00    +0.000 C 
ATOM     26  C   UNL     1      -0.527   3.204   3.289  0.00  0.00    -0.066 C 
ATOM     27  C   UNL     1      -0.493   4.725   3.117  0.00  0.00    +0.000 C 
ATOM     28  C   UNL     1      -1.286   5.379   4.251  0.00  0.00    +0.083 C 
BRANCH  26  29
ATOM     29  N   UNL     1       0.281   2.573   2.237  0.00  0.00    +0.382 N 
ATOM     30  C   UNL     1       0.359   1.120   2.434  0.00  0.00    -0.078 C 
ATOM     31  C   UNL     1       1.322   0.516   1.409  0.00  0.00    -0.019 C 
ATOM     32  C   UNL     1       0.823   0.833  -0.003  0.00  0.00    -0.004 C 
ATOM     33  C   UNL     1       0.705   2.351  -0.166  0.00  0.00    -0.019 C 
ATOM     34  C   UNL     1      -0.241   2.901   0.904  0.00  0.00    -0.078 C 
ATOM     35  H   UNL     1       1.302   2.975   2.305  0.00  0.00    -0.081 HD
ENDBRANCH  26  29
ENDBRANCH  22  23
ENDBRANCH   2  22
TORSDOF 7
