REMARK  Name = ZINC12526700
REMARK  11 active torsions:
REMARK  status: ('A' for Active; 'I' for Inactive)
REMARK    1  A    between atoms: C_1  and  C_2
REMARK    2  A    between atoms: C_2  and  C_3
REMARK    3  A    between atoms: C_3  and  C_32
REMARK    4  A    between atoms: N_6  and  C_10
REMARK    5  A    between atoms: C_10  and  C_11
REMARK    6  A    between atoms: N_13  and  C_14
REMARK    7  A    between atoms: C_16  and  S_23
REMARK    8  A    between atoms: C_19  and  N_20
REMARK    9  A    between atoms: N_20  and  C_21
REMARK   10  A    between atoms: N_20  and  C_22
REMARK   11  A    between atoms: S_23  and  N_26
REMARK                            x       y       z     vdW  Elec       q    Type
REMARK                         _______ _______ _______ _____ _____    ______ ____
ROOT
ATOM      1  C   UNL     1       0.956   3.179  -4.149  0.00  0.00    +0.235 C 
ATOM      2  O   UNL     1       1.302   3.710  -3.115  0.00  0.00    -0.274 OA
ATOM      3  N   UNL     1       0.169   3.843  -5.018  0.00  0.00    -0.283 N 
ATOM      4  H   UNL     1      -0.042   3.451  -5.880  0.00  0.00    +0.155 HD
ENDROOT
BRANCH   3   5
ATOM      5  C   UNL     1      -0.346   5.101  -4.676  0.00  0.00    +0.057 A 
ATOM      6  C   UNL     1      -0.503   5.450  -3.343  0.00  0.00    +0.053 A 
ATOM      7  C   UNL     1      -1.011   6.691  -3.008  0.00  0.00    +0.107 A 
ATOM      8  C   UNL     1      -1.364   7.588  -3.999  0.00  0.00    +0.030 A 
ATOM      9  C   UNL     1      -1.210   7.250  -5.330  0.00  0.00    +0.027 A 
ATOM     10  C   UNL     1      -0.696   6.009  -5.676  0.00  0.00    +0.051 A 
BRANCH  10  11
ATOM     11  N   UNL     1      -0.534   5.666  -7.022  0.00  0.00    -0.335 N 
ATOM     12  C   UNL     1       0.727   5.962  -7.707  0.00  0.00    +0.129 C 
ATOM     13  C   UNL     1      -1.625   5.011  -7.748  0.00  0.00    +0.129 C 
ENDBRANCH  10  11
BRANCH   7  14
ATOM     14  S   UNL     1      -1.210   7.130  -1.314  0.00  0.00    +0.061 S 
ATOM     15  O   UNL     1      -2.213   8.136  -1.270  0.00  0.00    -0.153 OA
ATOM     16  O   UNL     1      -1.320   5.913  -0.589  0.00  0.00    -0.153 OA
BRANCH  14  17
ATOM     17  N   UNL     1       0.200   7.847  -0.825  0.00  0.00    -0.177 NA
ATOM     18  C   UNL     1       1.294   7.042  -0.263  0.00  0.00    +0.109 C 
ATOM     19  C   UNL     1       2.577   7.341  -1.044  0.00  0.00    +0.017 C 
ATOM     20  C   UNL     1       2.837   8.849  -1.033  0.00  0.00    +0.003 C 
ATOM     21  C   UNL     1       1.675   9.574  -1.717  0.00  0.00    +0.017 C 
ATOM     22  C   UNL     1       0.384   9.300  -0.949  0.00  0.00    +0.109 C 
ENDBRANCH  14  17
ENDBRANCH   7  14
ENDBRANCH   3   5
BRANCH   1  23
ATOM     23  C   UNL     1       1.407   1.775  -4.463  0.00  0.00    +0.214 C 
BRANCH  23  27
ATOM     24  C   UNL     1       2.990   0.298  -1.445  0.00  0.00    +0.138 C 
ATOM     25  C   UNL     1       1.776   0.614  -2.296  0.00  0.00    +0.251 C 
ATOM     26  O   UNL     1       0.621   0.330  -2.059  0.00  0.00    -0.272 OA
ATOM     27  N   UNL     1       2.247   1.276  -3.371  0.00  0.00    -0.215 N 
ATOM     28  C   UNL     1       3.576   1.422  -3.318  0.00  0.00    +0.310 C 
ATOM     29  O   UNL     1       4.228   1.986  -4.174  0.00  0.00    -0.252 OA
ATOM     30  N   UNL     1       4.109   0.874  -2.211  0.00  0.00    -0.281 N 
ATOM     31  H   UNL     1       5.047   0.860  -1.965  0.00  0.00    +0.152 HD
BRANCH  24  32
ATOM     32  C   UNL     1       3.162  -1.191  -1.293  0.00  0.00    -0.015 A 
ATOM     33  C   UNL     1       2.603  -1.844  -0.210  0.00  0.00    +0.006 A 
ATOM     34  C   UNL     1       2.761  -3.211  -0.071  0.00  0.00    +0.000 A 
ATOM     35  C   UNL     1       3.477  -3.924  -1.014  0.00  0.00    +0.000 A 
ATOM     36  C   UNL     1       4.035  -3.270  -2.097  0.00  0.00    +0.000 A 
ATOM     37  C   UNL     1       3.874  -1.905  -2.239  0.00  0.00    +0.006 A 
ENDBRANCH  24  32
BRANCH  24  39
ATOM     38  C   UNL     1       2.648   2.470  -0.258  0.00  0.00    +0.007 C 
ATOM     39  C   UNL     1       2.875   0.968  -0.074  0.00  0.00    +0.037 C 
ENDBRANCH  24  39
ENDBRANCH  23  27
ENDBRANCH   1  23
TORSDOF 8
