REMARK  Name = ZINC40656391
REMARK  5 active torsions:
REMARK  status: ('A' for Active; 'I' for Inactive)
REMARK    1  A    between atoms: C_1  and  C_2
REMARK    2  A    between atoms: N_5  and  S_11
REMARK    3  A    between atoms: C_6  and  C_9
REMARK    4  A    between atoms: C_6  and  C_10
REMARK    5  A    between atoms: S_11  and  C_14
REMARK                            x       y       z     vdW  Elec       q    Type
REMARK                         _______ _______ _______ _____ _____    ______ ____
ROOT
ATOM      1  C   UNL     1      -0.061   1.679   0.419  0.00  0.00    +0.039 C 
ATOM      2  C   UNL     1       0.166   0.172   0.294  0.00  0.00    +0.131 C 
ATOM      3  C   UNL     1      -1.159  -0.519  -0.047  0.00  0.00    +0.141 C 
ATOM      4  N   UNL     1      -0.955  -1.975   0.022  0.00  0.00    -0.171 NA
ATOM      5  C   UNL     1      -0.324  -2.528   1.232  0.00  0.00    +0.060 C 
ATOM      6  C   UNL     1       0.960  -1.739   1.511  0.00  0.00    +0.183 C 
ATOM      7  O   UNL     1       0.660  -0.342   1.534  0.00  0.00    -0.374 OA
ATOM      8  C   UNL     1      -1.280  -2.393   2.419  0.00  0.00    +0.031 C 
ATOM      9  C   UNL     1       0.015  -4.003   1.007  0.00  0.00    +0.031 C 
ENDROOT
BRANCH   4  10
ATOM     10  S   UNL     1      -1.421  -2.962  -1.223  0.00  0.00    +0.035 S 
ATOM     11  O   UNL     1      -1.828  -4.170  -0.595  0.00  0.00    -0.158 OA
ATOM     12  O   UNL     1      -2.347  -2.187  -1.972  0.00  0.00    -0.158 OA
BRANCH  10  13
ATOM     13  C   UNL     1       0.089  -3.238  -2.190  0.00  0.00    +0.148 C 
ATOM     14  C   UNL     1       0.666  -1.889  -2.664  0.00  0.00    +0.028 C 
ATOM     15  C   UNL     1       1.211  -2.187  -4.083  0.00  0.00    +0.002 C 
ATOM     16  C   UNL     1       0.153  -3.161  -4.658  0.00  0.00    +0.002 C 
ATOM     17  C   UNL     1      -0.238  -4.047  -3.457  0.00  0.00    +0.028 C 
ENDBRANCH  10  13
ENDBRANCH   4  10
TORSDOF 2
