REMARK  Name = ZINC39894094
REMARK  9 active torsions:
REMARK  status: ('A' for Active; 'I' for Inactive)
REMARK    1  A    between atoms: C_1  and  C_2
REMARK    2  A    between atoms: C_4  and  N_30
REMARK    3  A    between atoms: C_7  and  N_8
REMARK    4  A    between atoms: N_8  and  C_9
REMARK    5  A    between atoms: C_11  and  C_29
REMARK    6  A    between atoms: C_12  and  C_27
REMARK    7  A    between atoms: N_15  and  C_18
REMARK    8  A    between atoms: C_18  and  C_20
REMARK    9  A    between atoms: C_18  and  C_21
REMARK                            x       y       z     vdW  Elec       q    Type
REMARK                         _______ _______ _______ _____ _____    ______ ____
ROOT
ATOM      1  C   UNL     1      -3.035  -1.659   5.187  0.00  0.00    +0.085 C 
ATOM      2  C   UNL     1      -2.122  -0.778   5.758  0.00  0.00    +0.055 C 
ATOM      3  C   UNL     1      -2.042   0.559   5.310  0.00  0.00    -0.015 C 
ATOM      4  C   UNL     1      -1.119   1.408   5.904  0.00  0.00    +0.118 C 
ATOM      5  C   UNL     1      -0.256   0.903   6.973  0.00  0.00    +0.264 C 
ATOM      6  O   UNL     1       0.554   1.647   7.494  0.00  0.00    -0.269 OA
ATOM      7  N   UNL     1      -0.346  -0.374   7.385  0.00  0.00    -0.226 N 
ATOM      8  C   UNL     1      -1.232  -1.225   6.838  0.00  0.00    +0.255 C 
ATOM      9  O   UNL     1      -1.294  -2.374   7.237  0.00  0.00    -0.269 OA
ATOM     10  C   UNL     1      -2.943   1.054   4.208  0.00  0.00    +0.046 C 
ENDROOT
BRANCH   1  11
ATOM     11  N   UNL     1      -3.959  -1.204   4.322  0.00  0.00    -0.320 N 
ATOM     12  H   UNL     1      -3.928  -0.282   4.020  0.00  0.00    +0.152 HD
BRANCH  11  19
ATOM     13  C   UNL     1      -5.872  -0.158   2.494  0.00  0.00    +0.046 C 
ATOM     14  C   UNL     1      -5.918  -1.589   2.964  0.00  0.00    -0.027 A 
ATOM     15  C   UNL     1      -6.905  -2.437   2.503  0.00  0.00    +0.038 A 
ATOM     16  C   UNL     1      -6.947  -3.750   2.933  0.00  0.00    +0.127 A 
ATOM     17  C   UNL     1      -6.002  -4.219   3.828  0.00  0.00    +0.034 A 
ATOM     18  C   UNL     1      -5.012  -3.376   4.294  0.00  0.00    +0.026 A 
ATOM     19  C   UNL     1      -4.963  -2.058   3.858  0.00  0.00    +0.034 A 
BRANCH  16  20
ATOM     20  N   UNL     1      -8.007  -4.657   2.437  0.00  0.00    +0.056 N 
ATOM     21  O   UNL     1      -8.834  -4.249   1.655  0.00  0.00    -0.126 OA
ATOM     22  O   UNL     1      -8.045  -5.805   2.813  0.00  0.00    -0.126 OA
ENDBRANCH  16  20
ENDBRANCH  11  19
ENDBRANCH   1  11
BRANCH   7  23
ATOM     23  C   UNL     1       0.534  -0.845   8.457  0.00  0.00    +0.112 C 
ATOM     24  C   UNL     1       0.669   0.244   9.523  0.00  0.00    +0.033 C 
BRANCH  23  25
ATOM     25  C   UNL     1       1.893  -1.162   7.888  0.00  0.00    -0.027 A 
ATOM     26  C   UNL     1       2.511  -0.267   7.035  0.00  0.00    +0.005 A 
ATOM     27  C   UNL     1       3.758  -0.558   6.513  0.00  0.00    +0.000 A 
ATOM     28  C   UNL     1       4.386  -1.744   6.844  0.00  0.00    +0.000 A 
ATOM     29  C   UNL     1       3.768  -2.639   7.697  0.00  0.00    +0.000 A 
ATOM     30  C   UNL     1       2.524  -2.346   8.223  0.00  0.00    +0.005 A 
ENDBRANCH  23  25
ENDBRANCH   7  23
BRANCH   4  31
ATOM     31  C   UNL     1      -1.012   2.770   5.474  0.00  0.00    +0.105 C 
ATOM     32  N   UNL     1      -0.927   3.850   5.133  0.00  0.00    -0.191 NA
ENDBRANCH   4  31
TORSDOF 6
