REMARK  Name = ZINC39664404
REMARK  11 active torsions:
REMARK  status: ('A' for Active; 'I' for Inactive)
REMARK    1  A    between atoms: C_1  and  C_2
REMARK    2  A    between atoms: C_2  and  C_3
REMARK    3  A    between atoms: C_3  and  C_4
REMARK    4  A    between atoms: C_4  and  C_5
REMARK    5  A    between atoms: C_5  and  C_6
REMARK    6  A    between atoms: C_6  and  C_7
REMARK    7  A    between atoms: C_11  and  C_20
REMARK    8  A    between atoms: N_22  and  C_23
REMARK    9  A    between atoms: C_23  and  C_24
REMARK   10  A    between atoms: C_24  and  C_26
REMARK   11  A    between atoms: C_24  and  N_32
REMARK                            x       y       z     vdW  Elec       q    Type
REMARK                         _______ _______ _______ _____ _____    ______ ____
ROOT
ATOM      1  C   UNL     1       1.917  -5.398  -1.604  0.00  0.00    +0.216 C 
ATOM      2  O   UNL     1       2.442  -4.402  -2.055  0.00  0.00    -0.276 OA
ATOM      3  N   UNL     1       2.096  -6.588  -2.210  0.00  0.00    -0.300 N 
ATOM      4  C   UNL     1       1.536  -7.902  -1.815  0.00  0.00    +0.121 C 
ATOM      5  C   UNL     1       1.163  -8.585  -3.150  0.00  0.00    +0.100 C 
ATOM      6  C   UNL     1       2.062  -7.911  -4.200  0.00  0.00    -0.004 C 
ATOM      7  C   UNL     1       2.894  -6.878  -3.426  0.00  0.00    +0.115 C 
ATOM      8  C   UNL     1       1.209  -7.210  -5.253  0.00  0.00    -0.010 C 
ATOM      9  C   UNL     1       2.124  -6.595  -6.317  0.00  0.00    -0.082 C 
ATOM     10  N   UNL     1       2.933  -7.651  -6.937  0.00  0.00    +0.379 N 
ATOM     11  C   UNL     1       3.818  -8.258  -5.936  0.00  0.00    -0.082 C 
ATOM     12  C   UNL     1       2.975  -8.942  -4.855  0.00  0.00    -0.010 C 
ATOM     13  H   UNL     1       2.325  -8.359  -7.320  0.00  0.00    -0.086 HD
ATOM     14  H   UNL     1       3.490  -7.254  -7.679  0.00  0.00    -0.086 HD
ENDROOT
BRANCH   5  15
ATOM     15  C   UNL     1      -0.290  -8.350  -3.471  0.00  0.00    +0.218 C 
ATOM     16  O   UNL     1      -0.850  -7.358  -3.055  0.00  0.00    -0.275 OA
ATOM     17  N   UNL     1      -0.968  -9.243  -4.220  0.00  0.00    -0.313 N 
ATOM     18  H   UNL     1      -0.519 -10.036  -4.553  0.00  0.00    +0.149 HD
BRANCH  17  19
ATOM     19  C   UNL     1      -2.381  -9.014  -4.532  0.00  0.00    +0.127 C 
BRANCH  19  20
ATOM     20  C   UNL     1      -2.906 -10.168  -5.389  0.00  0.00    +0.104 C 
BRANCH  20  21
ATOM     21  C   UNL     1      -4.322  -9.874  -5.813  0.00  0.00    -0.029 A 
ATOM     22  C   UNL     1      -5.305 -10.832  -5.651  0.00  0.00    +0.005 A 
ATOM     23  C   UNL     1      -6.604 -10.563  -6.039  0.00  0.00    +0.000 A 
ATOM     24  C   UNL     1      -6.920  -9.335  -6.589  0.00  0.00    +0.000 A 
ATOM     25  C   UNL     1      -5.938  -8.376  -6.751  0.00  0.00    +0.000 A 
ATOM     26  C   UNL     1      -4.640  -8.644  -6.358  0.00  0.00    +0.005 A 
ENDBRANCH  20  21
BRANCH  20  27
ATOM     27  N   UNL     1      -2.060 -10.318  -6.581  0.00  0.00    -0.290 NA
ATOM     28  C   UNL     1      -2.120  -9.115  -7.424  0.00  0.00    +0.113 C 
ATOM     29  C   UNL     1      -1.180  -9.290  -8.620  0.00  0.00    +0.175 C 
ATOM     30  O   UNL     1      -1.544 -10.473  -9.337  0.00  0.00    -0.377 OA
ATOM     31  C   UNL     1      -1.496 -11.663  -8.546  0.00  0.00    +0.175 C 
ATOM     32  C   UNL     1      -2.439 -11.512  -7.349  0.00  0.00    +0.113 C 
ENDBRANCH  20  27
ENDBRANCH  19  20
ENDBRANCH  17  19
ENDBRANCH   5  15
BRANCH   1  33
ATOM     33  C   UNL     1       1.063  -5.304  -0.366  0.00  0.00    +0.096 C 
BRANCH  33  34
ATOM     34  C   UNL     1       1.024  -3.853   0.118  0.00  0.00    +0.009 C 
BRANCH  34  35
ATOM     35  C   UNL     1       0.157  -3.758   1.375  0.00  0.00    +0.000 C 
BRANCH  35  36
ATOM     36  C   UNL     1       0.117  -2.307   1.858  0.00  0.00    -0.000 C 
BRANCH  36  38
ATOM     37  C   UNL     1      -0.789  -0.760   3.599  0.00  0.00    +0.004 C 
ATOM     38  C   UNL     1      -0.749  -2.211   3.115  0.00  0.00    -0.003 C 
ENDBRANCH  36  38
ENDBRANCH  35  36
ENDBRANCH  34  35
ENDBRANCH  33  34
ENDBRANCH   1  33
TORSDOF 10
