REMARK  Name = ZINC36207092
REMARK  14 active torsions:
REMARK  status: ('A' for Active; 'I' for Inactive)
REMARK    1  A    between atoms: C_1  and  C_2
REMARK    2  A    between atoms: C_5  and  C_36
REMARK    3  A    between atoms: C_6  and  C_8
REMARK    4  A    between atoms: C_17  and  C_19
REMARK    5  A    between atoms: C_19  and  N_20
REMARK    6  A    between atoms: N_20  and  C_21
REMARK    7  A    between atoms: N_20  and  C_33
REMARK    8  A    between atoms: C_21  and  C_22
REMARK    9  A    between atoms: C_22  and  C_24
REMARK   10  A    between atoms: C_22  and  O_32
REMARK   11  A    between atoms: C_24  and  O_25
REMARK   12  A    between atoms: O_25  and  C_26
REMARK   13  A    between atoms: C_33  and  C_34
REMARK   14  A    between atoms: C_33  and  C_35
REMARK                            x       y       z     vdW  Elec       q    Type
REMARK                         _______ _______ _______ _____ _____    ______ ____
ROOT
ATOM      1  C   UNL     1      -0.949  -6.772   1.228  0.00  0.00    +0.004 A 
ATOM      2  C   UNL     1      -1.993  -7.227   1.962  0.00  0.00    +0.056 A 
ATOM      3  S   UNL     1      -1.259  -7.579   3.548  0.00  0.00    -0.076 S 
ATOM      4  C   UNL     1       0.415  -7.112   3.192  0.00  0.00    +0.116 A 
ATOM      5  C   UNL     1       0.367  -6.699   1.850  0.00  0.00    +0.080 A 
ATOM      6  C   UNL     1       1.611  -6.264   1.291  0.00  0.00    +0.260 A 
ATOM      7  O   UNL     1       1.670  -5.883   0.134  0.00  0.00    -0.267 OA
ATOM      8  N   UNL     1       2.715  -6.282   2.061  0.00  0.00    -0.312 N 
ATOM      9  H   UNL     1       3.560  -5.988   1.688  0.00  0.00    +0.170 HD
ATOM     10  C   UNL     1       2.668  -6.703   3.351  0.00  0.00    +0.094 A 
ATOM     11  N   UNL     1       1.546  -7.097   3.892  0.00  0.00    -0.229 NA
ENDROOT
BRANCH   1  17
ATOM     12  C   UNL     1      -2.975  -3.693  -2.140  0.00  0.00    +0.044 C 
ATOM     13  C   UNL     1      -2.113  -4.884  -1.806  0.00  0.00    -0.050 A 
ATOM     14  C   UNL     1      -1.500  -5.597  -2.821  0.00  0.00    +0.003 A 
ATOM     15  C   UNL     1      -0.708  -6.691  -2.522  0.00  0.00    +0.004 A 
ATOM     16  C   UNL     1      -0.525  -7.077  -1.210  0.00  0.00    -0.043 A 
ATOM     17  C   UNL     1      -1.141  -6.362  -0.184  0.00  0.00    -0.013 A 
ATOM     18  C   UNL     1      -1.933  -5.257  -0.490  0.00  0.00    +0.012 A 
ATOM     19  C   UNL     1       0.337  -8.270  -0.887  0.00  0.00    +0.044 C 
ENDBRANCH   1  17
BRANCH  10  20
ATOM     20  C   UNL     1       3.929  -6.706   4.176  0.00  0.00    -0.003 C 
BRANCH  20  21
ATOM     21  N   UNL     1       3.600  -7.020   5.573  0.00  0.00    +0.388 N 
ATOM     22  H   UNL     1       2.825  -7.665   5.599  0.00  0.00    -0.081 HD
BRANCH  21  23
ATOM     23  C   UNL     1       3.233  -5.785   6.279  0.00  0.00    -0.074 C 
ATOM     24  C   UNL     1       4.397  -4.794   6.213  0.00  0.00    -0.014 C 
ATOM     25  C   UNL     1       1.999  -5.167   5.618  0.00  0.00    -0.014 C 
ENDBRANCH  21  23
BRANCH  21  26
ATOM     26  C   UNL     1       4.767  -7.628   6.225  0.00  0.00    -0.043 C 
BRANCH  26  27
ATOM     27  C   UNL     1       4.378  -8.101   7.628  0.00  0.00    +0.135 C 
BRANCH  27  28
ATOM     28  O   UNL     1       4.133  -6.966   8.461  0.00  0.00    -0.390 OA
ATOM     29  H   UNL     1       4.874  -6.346   8.510  0.00  0.00    +0.210 HD
ENDBRANCH  27  28
BRANCH  27  30
ATOM     30  C   UNL     1       5.517  -8.932   8.220  0.00  0.00    +0.258 C 
BRANCH  30  31
ATOM     31  O   UNL     1       5.110  -9.470   9.480  0.00  0.00    -0.489 OA
BRANCH  31  32
ATOM     32  C   UNL     1       6.012 -10.239  10.143  0.00  0.00    +0.121 A 
ATOM     33  C   UNL     1       7.266 -10.468   9.596  0.00  0.00    +0.045 A 
ATOM     34  C   UNL     1       8.182 -11.250  10.273  0.00  0.00    +0.004 A 
ATOM     35  C   UNL     1       7.849 -11.805  11.495  0.00  0.00    +0.000 A 
ATOM     36  C   UNL     1       6.600 -11.580  12.042  0.00  0.00    +0.004 A 
ATOM     37  C   UNL     1       5.683 -10.793  11.372  0.00  0.00    +0.045 A 
ENDBRANCH  31  32
ENDBRANCH  30  31
ENDBRANCH  27  30
ENDBRANCH  26  27
ENDBRANCH  21  26
ENDBRANCH  20  21
ENDBRANCH  10  20
TORSDOF 10
