REMARK  Name = ZINC03840496
REMARK  9 active torsions:
REMARK  status: ('A' for Active; 'I' for Inactive)
REMARK    1  A    between atoms: C_1  and  C_2
REMARK    2  A    between atoms: N_9  and  C_10
REMARK    3  A    between atoms: C_10  and  C_11
REMARK    4  A    between atoms: C_14  and  C_35
REMARK    5  A    between atoms: C_17  and  O_34
REMARK    6  A    between atoms: C_19  and  C_23
REMARK    7  A    between atoms: C_23  and  C_25
REMARK    8  A    between atoms: C_23  and  C_26
REMARK    9  A    between atoms: C_33  and  N_69
REMARK                            x       y       z     vdW  Elec       q    Type
REMARK                         _______ _______ _______ _____ _____    ______ ____
ROOT
ATOM      1  C   UNL     1       2.865   2.630  -1.786  0.00  0.00    +0.014 C 
ATOM      2  C   UNL     1       1.548   2.143  -1.179  0.00  0.00    +0.042 C 
ATOM      3  C   UNL     1       1.264   0.726  -1.655  0.00  0.00    +0.057 A 
ATOM      4  C   UNL     1       0.005   0.365  -2.006  0.00  0.00    +0.015 A 
ATOM      5  S   UNL     1       0.200  -1.336  -2.465  0.00  0.00    -0.057 S 
ATOM      6  C   UNL     1       1.909  -1.443  -2.164  0.00  0.00    +0.159 A 
ATOM      7  N   UNL     1       2.193  -0.224  -1.753  0.00  0.00    -0.229 NA
ATOM      8  N   UNL     1       2.755  -2.530  -2.318  0.00  0.00    -0.320 N 
ATOM      9  C   UNL     1      -1.219   1.212  -2.002  0.00  0.00    +0.051 C 
ATOM     10  C   UNL     1      -0.942   2.491  -1.187  0.00  0.00    -0.022 C 
ATOM     11  C   UNL     1       0.408   3.070  -1.619  0.00  0.00    +0.033 C 
ATOM     12  C   UNL     1       0.636   4.429  -0.948  0.00  0.00    +0.123 C 
ATOM     13  C   UNL     1      -0.493   5.394  -1.304  0.00  0.00    +0.029 C 
ATOM     14  C   UNL     1      -1.817   4.812  -0.799  0.00  0.00    +0.007 C 
ATOM     15  C   UNL     1      -2.068   3.480  -1.503  0.00  0.00    +0.008 C 
ATOM     16  C   UNL     1      -0.922   2.181   0.311  0.00  0.00    +0.012 C 
ATOM     17  H   UNL     1       3.698  -2.444  -2.110  0.00  0.00    +0.148 HD
ENDROOT
BRANCH  13  18
ATOM     18  C   UNL     1      -0.556   5.571  -2.823  0.00  0.00    +0.078 C 
ATOM     19  C   UNL     1       0.720   6.261  -3.310  0.00  0.00    +0.017 C 
BRANCH  18  20
ATOM     20  C   UNL     1      -1.752   6.415  -3.181  0.00  0.00    +0.219 C 
ATOM     21  O   UNL     1      -2.208   7.194  -2.371  0.00  0.00    -0.275 OA
ATOM     22  N   UNL     1      -2.314   6.306  -4.401  0.00  0.00    -0.305 N 
ATOM     23  C   UNL     1      -1.839   5.300  -5.363  0.00  0.00    +0.089 C 
ATOM     24  C   UNL     1      -3.053   4.507  -5.871  0.00  0.00    -0.060 C 
ATOM     25  C   UNL     1      -4.563   6.329  -5.340  0.00  0.00    -0.060 C 
ATOM     26  C   UNL     1      -3.415   7.192  -4.808  0.00  0.00    +0.089 C 
ATOM     27  C   UNL     1      -5.157   4.722  -7.051  0.00  0.00    -0.096 C 
ATOM     28  N   UNL     1      -4.044   5.460  -6.418  0.00  0.00    +0.380 N 
ATOM     29  H   UNL     1      -3.587   6.045  -7.127  0.00  0.00    -0.082 HD
ENDBRANCH  18  20
ENDBRANCH  13  18
BRANCH  12  30
ATOM     30  O   UNL     1       1.879   4.974  -1.396  0.00  0.00    -0.391 OA
ATOM     31  H   UNL     1       2.091   5.836  -1.012  0.00  0.00    +0.210 HD
ENDBRANCH  12  30
BRANCH   8  32
ATOM     32  C   UNL     1       2.224  -3.809  -2.795  0.00  0.00    +0.130 C 
BRANCH  32  33
ATOM     33  C   UNL     1       3.340  -4.819  -2.873  0.00  0.00    -0.016 C 
ATOM     34  C   UNL     1       3.235  -5.962  -2.243  0.00  0.00    +0.005 C 
ENDBRANCH  32  33
ENDBRANCH   8  32
TORSDOF 5
