REMARK  Name = ZINC38732666
REMARK  6 active torsions:
REMARK  status: ('A' for Active; 'I' for Inactive)
REMARK    1  A    between atoms: C_13  and  C_15
REMARK    2  A    between atoms: C_21  and  C_23
REMARK    3  A    between atoms: N_25  and  C_26
REMARK    4  A    between atoms: C_26  and  C_27
REMARK    5  A    between atoms: C_31  and  O_33
REMARK    6  A    between atoms: O_33  and  C_34
REMARK                            x       y       z     vdW  Elec       q    Type
REMARK                         _______ _______ _______ _____ _____    ______ ____
ROOT
ATOM      1  C   UNL     1      -0.032  -6.653   1.157  0.00  0.00    +0.087 C 
ATOM      2  C   UNL     1      -0.792  -6.391  -0.145  0.00  0.00    +0.013 C 
ATOM      3  C   UNL     1      -2.098  -7.188  -0.143  0.00  0.00    +0.001 C 
ATOM      4  C   UNL     1      -1.784  -8.681  -0.028  0.00  0.00    +0.001 C 
ATOM      5  C   UNL     1      -1.025  -8.943   1.274  0.00  0.00    +0.013 C 
ATOM      6  C   UNL     1       0.281  -8.146   1.272  0.00  0.00    +0.087 C 
ENDROOT
BRANCH   1  19
ATOM      7  C   UNL     1       0.361   0.741   4.463  0.00  0.00    +0.005 A 
ATOM      8  C   UNL     1       1.575   1.417   4.467  0.00  0.00    +0.018 A 
ATOM      9  C   UNL     1       2.722   0.747   4.092  0.00  0.00    +0.084 A 
ATOM     10  N   UNL     1       2.678  -0.522   3.732  0.00  0.00    -0.350 N 
ATOM     11  C   UNL     1       1.541  -1.200   3.715  0.00  0.00    +0.099 A 
ATOM     12  C   UNL     1       0.346  -0.588   4.081  0.00  0.00    +0.042 A 
ATOM     13  N   UNL     1       1.541  -2.535   3.328  0.00  0.00    -0.314 N 
ATOM     14  C   UNL     1       0.313  -3.338   3.411  0.00  0.00    +0.125 C 
ATOM     15  C   UNL     1       0.026  -3.940   2.030  0.00  0.00    +0.126 C 
ATOM     16  N   UNL     1       1.254  -4.574   1.530  0.00  0.00    -0.298 N 
ATOM     17  C   UNL     1       2.482  -3.771   1.447  0.00  0.00    +0.126 C 
ATOM     18  C   UNL     1       2.768  -3.167   2.823  0.00  0.00    +0.125 C 
ATOM     19  C   UNL     1       1.254  -5.868   1.155  0.00  0.00    +0.219 C 
ATOM     20  O   UNL     1       2.289  -6.402   0.816  0.00  0.00    -0.275 OA
ATOM     21  H   UNL     1       3.499  -0.968   3.472  0.00  0.00    +0.166 HD
ENDBRANCH   1  19
BRANCH   6  22
ATOM     22  C   UNL     1       1.029  -8.405   2.555  0.00  0.00    +0.217 C 
ATOM     23  O   UNL     1       1.286  -7.485   3.303  0.00  0.00    -0.275 OA
ATOM     24  N   UNL     1       1.413  -9.657   2.871  0.00  0.00    -0.311 N 
ATOM     25  H   UNL     1       1.207 -10.393   2.273  0.00  0.00    +0.149 HD
BRANCH  24  26
ATOM     26  C   UNL     1       2.139  -9.909   4.118  0.00  0.00    +0.139 C 
BRANCH  26  27
ATOM     27  C   UNL     1       2.448 -11.379   4.231  0.00  0.00    -0.027 A 
ATOM     28  C   UNL     1       1.549 -12.228   4.849  0.00  0.00    +0.005 A 
ATOM     29  C   UNL     1       1.829 -13.578   4.955  0.00  0.00    +0.004 A 
ATOM     30  C   UNL     1       3.010 -14.082   4.444  0.00  0.00    +0.046 A 
ATOM     31  C   UNL     1       3.914 -13.232   3.824  0.00  0.00    +0.130 A 
ATOM     32  C   UNL     1       3.627 -11.879   3.714  0.00  0.00    +0.051 A 
BRANCH  31  33
ATOM     33  O   UNL     1       5.076 -13.725   3.321  0.00  0.00    -0.406 OA
BRANCH  33  34
ATOM     34  C   UNL     1       5.302 -15.128   3.465  0.00  0.00    +0.575 C 
ATOM     35  F   UNL     1       4.282 -15.834   2.817  0.00  0.00    -0.133 F 
ATOM     36  F   UNL     1       6.535 -15.463   2.896  0.00  0.00    -0.133 F 
ATOM     37  F   UNL     1       5.309 -15.462   4.824  0.00  0.00    -0.133 F 
ENDBRANCH  33  34
ENDBRANCH  31  33
ENDBRANCH  26  27
ENDBRANCH  24  26
ENDBRANCH   6  22
TORSDOF 6
