REMARK  Name = ZINC13109554
REMARK  11 active torsions:
REMARK  status: ('A' for Active; 'I' for Inactive)
REMARK    1  A    between atoms: C_1  and  C_2
REMARK    2  A    between atoms: C_2  and  C_3
REMARK    3  A    between atoms: C_3  and  C_4
REMARK    4  A    between atoms: C_4  and  N_5
REMARK    5  A    between atoms: C_6  and  N_38
REMARK    6  A    between atoms: C_7  and  N_14
REMARK    7  A    between atoms: N_14  and  C_15
REMARK    8  A    between atoms: C_16  and  C_18
REMARK    9  A    between atoms: N_23  and  C_31
REMARK   10  A    between atoms: C_24  and  C_26
REMARK   11  A    between atoms: C_34  and  C_37
REMARK                            x       y       z     vdW  Elec       q    Type
REMARK                         _______ _______ _______ _____ _____    ______ ____
ROOT
ATOM      1  N   UNL     1       2.050   3.920  -1.162  0.00  0.00    -0.267 N 
ATOM      2  C   UNL     1       1.561   5.000  -2.022  0.00  0.00    +0.138 C 
ATOM      3  C   UNL     1       2.748   4.210  -0.045  0.00  0.00    +0.225 C 
ATOM      4  O   UNL     1       3.078   3.322   0.713  0.00  0.00    -0.275 OA
ENDROOT
BRANCH   1   7
ATOM      5  N   UNL     1       2.072   0.704  -2.939  0.00  0.00    -0.280 N 
ATOM      6  C   UNL     1       2.345   2.017  -2.634  0.00  0.00    +0.127 A 
ATOM      7  C   UNL     1       1.789   2.575  -1.501  0.00  0.00    +0.139 A 
ATOM      8  C   UNL     1       0.958   1.780  -0.690  0.00  0.00    +0.277 A 
ATOM      9  O   UNL     1       0.454   2.248   0.317  0.00  0.00    -0.266 OA
ATOM     10  N   UNL     1       0.723   0.499  -1.033  0.00  0.00    -0.273 N 
ATOM     11  H   UNL     1       0.133  -0.067  -0.457  0.00  0.00    +0.173 HD
ATOM     12  C   UNL     1       1.274  -0.028  -2.141  0.00  0.00    +0.331 A 
ATOM     13  O   UNL     1       1.045  -1.188  -2.428  0.00  0.00    -0.246 OA
BRANCH   6  14
ATOM     14  N   UNL     1       3.165   2.763  -3.446  0.00  0.00    -0.343 N 
ATOM     15  H   UNL     1       3.616   2.345  -4.196  0.00  0.00    +0.144 HD
ATOM     16  H   UNL     1       3.294   3.708  -3.269  0.00  0.00    +0.144 HD
ENDBRANCH   6  14
BRANCH   5  17
ATOM     17  C   UNL     1       2.656   0.098  -4.138  0.00  0.00    +0.128 C 
BRANCH  17  18
ATOM     18  C   UNL     1       4.007  -0.529  -3.787  0.00  0.00    +0.021 C 
BRANCH  18  20
ATOM     19  C   UNL     1       5.968  -1.788  -4.689  0.00  0.00    +0.004 C 
ATOM     20  C   UNL     1       4.617  -1.161  -5.040  0.00  0.00    -0.002 C 
ENDBRANCH  18  20
ENDBRANCH  17  18
ENDBRANCH   5  17
ENDBRANCH   1   7
BRANCH   3  21
ATOM     21  C   UNL     1       3.119   5.639   0.262  0.00  0.00    +0.110 C 
ATOM     22  C   UNL     1       2.890   5.961   1.757  0.00  0.00    +0.111 C 
ATOM     23  C   UNL     1       4.232   5.697   2.403  0.00  0.00    +0.221 C 
ATOM     24  O   UNL     1       4.414   5.559   3.595  0.00  0.00    -0.275 OA
ATOM     25  N   UNL     1       5.193   5.639   1.466  0.00  0.00    -0.263 N 
ATOM     26  C   UNL     1       4.642   5.856   0.123  0.00  0.00    +0.130 C 
BRANCH  25  27
ATOM     27  C   UNL     1       6.545   5.400   1.735  0.00  0.00    +0.037 A 
ATOM     28  C   UNL     1       6.952   5.079   3.024  0.00  0.00    +0.024 A 
ATOM     29  C   UNL     1       8.286   4.837   3.285  0.00  0.00    +0.005 A 
ATOM     30  C   UNL     1       9.219   4.927   2.268  0.00  0.00    -0.050 A 
ATOM     31  C   UNL     1       8.818   5.253   0.985  0.00  0.00    +0.005 A 
ATOM     32  C   UNL     1       7.484   5.489   0.716  0.00  0.00    +0.024 A 
ATOM     33  C   UNL     1      10.675   4.669   2.558  0.00  0.00    +0.044 C 
ENDBRANCH  25  27
BRANCH  26  34
ATOM     34  C   UNL     1       5.225   4.862  -0.848  0.00  0.00    +0.011 A 
ATOM     35  C   UNL     1       5.559   5.035  -2.150  0.00  0.00    +0.013 A 
ATOM     36  C   UNL     1       6.085   3.968  -2.854  0.00  0.00    +0.008 A 
ATOM     37  C   UNL     1       6.251   2.780  -2.222  0.00  0.00    +0.045 A 
ATOM     38  S   UNL     1       5.661   3.151  -0.578  0.00  0.00    -0.100 S 
ENDBRANCH  26  34
ENDBRANCH   3  21
TORSDOF 8
