REMARK  Name = ZINC41152294
REMARK  3 active torsions:
REMARK  status: ('A' for Active; 'I' for Inactive)
REMARK    1  A    between atoms: C_7  and  N_24
REMARK    2  A    between atoms: N_14  and  C_17
REMARK    3  A    between atoms: N_24  and  C_25
REMARK                            x       y       z     vdW  Elec       q    Type
REMARK                         _______ _______ _______ _____ _____    ______ ____
ROOT
ATOM      1  C   UNL     1      -0.028   1.343  -0.214  0.00  0.00    +0.001 A 
ATOM      2  C   UNL     1       1.144   2.056  -0.446  0.00  0.00    +0.002 A 
ATOM      3  C   UNL     1       2.355   1.430  -0.463  0.00  0.00    +0.026 A 
ATOM      4  C   UNL     1       2.423   0.047  -0.245  0.00  0.00    +0.052 A 
ATOM      5  C   UNL     1       1.229  -0.676  -0.010  0.00  0.00    +0.038 A 
ATOM      6  C   UNL     1       0.002  -0.004   0.001  0.00  0.00    +0.013 A 
ATOM      7  C   UNL     1       1.322  -2.074   0.209  0.00  0.00    +0.132 A 
ATOM      8  N   UNL     1       2.522  -2.635   0.182  0.00  0.00    -0.201 NA
ATOM      9  C   UNL     1       3.619  -1.918  -0.043  0.00  0.00    +0.198 A 
ATOM     10  N   UNL     1       3.589  -0.615  -0.252  0.00  0.00    -0.327 N 
ATOM     11  N   UNL     1       4.841  -2.563  -0.057  0.00  0.00    -0.298 N 
ATOM     12  C   UNL     1       6.091  -1.798  -0.170  0.00  0.00    +0.127 C 
ATOM     13  C   UNL     1       6.999  -2.166   1.010  0.00  0.00    +0.124 C 
ATOM     14  N   UNL     1       7.072  -3.630   1.107  0.00  0.00    -0.325 N 
ATOM     15  C   UNL     1       5.823  -4.396   1.220  0.00  0.00    +0.124 C 
ATOM     16  C   UNL     1       4.915  -4.028   0.046  0.00  0.00    +0.127 C 
ATOM     17  H   UNL     1       4.416  -0.134  -0.412  0.00  0.00    +0.169 HD
ENDROOT
BRANCH  14  18
ATOM     18  C   UNL     1       8.309  -4.283   1.093  0.00  0.00    +0.065 A 
ATOM     19  C   UNL     1       8.979  -4.531   2.283  0.00  0.00    +0.026 A 
ATOM     20  C   UNL     1      10.200  -5.177   2.265  0.00  0.00    +0.002 A 
ATOM     21  C   UNL     1      10.756  -5.577   1.064  0.00  0.00    +0.003 A 
ATOM     22  C   UNL     1      10.093  -5.332  -0.124  0.00  0.00    +0.040 A 
ATOM     23  C   UNL     1       8.867  -4.691  -0.114  0.00  0.00    +0.144 A 
ATOM     24  F   UNL     1       8.216  -4.457  -1.274  0.00  0.00    -0.204 F 
ENDBRANCH  14  18
BRANCH   7  25
ATOM     25  N   UNL     1       0.193  -2.829   0.443  0.00  0.00    -0.326 N 
ATOM     26  H   UNL     1      -0.679  -2.405   0.461  0.00  0.00    +0.148 HD
BRANCH  25  27
ATOM     27  C   UNL     1       0.310  -4.272   0.667  0.00  0.00    +0.072 C 
ATOM     28  C   UNL     1       0.267  -5.021  -0.681  0.00  0.00    +0.022 C 
ATOM     29  C   UNL     1      -0.531  -6.312  -0.372  0.00  0.00    +0.002 C 
ATOM     30  C   UNL     1      -1.618  -5.816   0.613  0.00  0.00    +0.002 C 
ATOM     31  C   UNL     1      -0.888  -4.777   1.490  0.00  0.00    +0.022 C 
ENDBRANCH  25  27
ENDBRANCH   7  25
TORSDOF 3
