REMARK  Name = ZINC04010293
REMARK  10 active torsions:
REMARK  status: ('A' for Active; 'I' for Inactive)
REMARK    1  A    between atoms: C_1  and  C_2
REMARK    2  A    between atoms: C_2  and  O_3
REMARK    3  A    between atoms: O_3  and  C_4
REMARK    4  A    between atoms: C_4  and  C_6
REMARK    5  A    between atoms: C_6  and  C_7
REMARK    6  A    between atoms: C_14  and  N_34
REMARK    7  A    between atoms: C_15  and  C_32
REMARK    8  A    between atoms: C_16  and  C_18
REMARK    9  A    between atoms: C_22  and  O_24
REMARK   10  A    between atoms: O_24  and  C_25
REMARK                            x       y       z     vdW  Elec       q    Type
REMARK                         _______ _______ _______ _____ _____    ______ ____
ROOT
ATOM      1  C   UNL     1      -2.036  -4.848   1.418  0.00  0.00    +0.055 A 
ATOM      2  C   UNL     1      -2.187  -5.405   2.629  0.00  0.00    +0.050 A 
ATOM      3  C   UNL     1      -2.130  -6.808   2.477  0.00  0.00    +0.245 A 
ATOM      4  N   UNL     1      -1.954  -7.069   1.214  0.00  0.00    -0.135 NA
ATOM      5  N   UNL     1      -1.895  -5.850   0.520  0.00  0.00    -0.277 N 
ATOM      6  H   UNL     1      -1.773  -5.745  -0.436  0.00  0.00    +0.189 HD
ATOM      7  O   UNL     1      -2.249  -7.653   3.536  0.00  0.00    -0.421 OA
ATOM      8  C   UNL     1      -2.152  -7.120   4.770  0.00  0.00    +0.201 C 
ATOM      9  C   UNL     1      -2.205  -5.799   5.039  0.00  0.00    +0.098 C 
ATOM     10  C   UNL     1      -2.386  -4.749   3.972  0.00  0.00    +0.101 C 
ENDROOT
BRANCH  10  11
ATOM     11  C   UNL     1      -3.776  -4.174   4.056  0.00  0.00    -0.031 A 
ATOM     12  C   UNL     1      -4.875  -5.004   3.932  0.00  0.00    +0.007 A 
ATOM     13  C   UNL     1      -6.153  -4.480   4.008  0.00  0.00    +0.042 A 
ATOM     14  C   UNL     1      -6.334  -3.124   4.209  0.00  0.00    +0.165 A 
ATOM     15  C   UNL     1      -5.231  -2.289   4.334  0.00  0.00    +0.164 A 
ATOM     16  C   UNL     1      -3.951  -2.819   4.262  0.00  0.00    +0.053 A 
ATOM     17  F   UNL     1      -7.582  -2.612   4.283  0.00  0.00    -0.202 F 
BRANCH  15  18
ATOM     18  O   UNL     1      -5.405  -0.955   4.530  0.00  0.00    -0.453 OA
BRANCH  18  19
ATOM     19  C   UNL     1      -4.297  -0.177   4.650  0.00  0.00    +0.129 A 
ATOM     20  C   UNL     1      -3.729   0.401   3.523  0.00  0.00    +0.046 A 
ATOM     21  C   UNL     1      -2.603   1.191   3.647  0.00  0.00    +0.004 A 
ATOM     22  C   UNL     1      -2.041   1.405   4.892  0.00  0.00    +0.000 A 
ATOM     23  C   UNL     1      -2.605   0.830   6.016  0.00  0.00    +0.004 A 
ATOM     24  C   UNL     1      -3.735   0.044   5.899  0.00  0.00    +0.046 A 
ENDBRANCH  18  19
ENDBRANCH  15  18
ENDBRANCH  10  11
BRANCH   8  25
ATOM     25  N   UNL     1      -1.989  -7.981   5.826  0.00  0.00    -0.328 N 
ATOM     26  H   UNL     1      -1.947  -8.937   5.671  0.00  0.00    +0.145 HD
ATOM     27  H   UNL     1      -1.916  -7.633   6.729  0.00  0.00    +0.145 HD
ENDBRANCH   8  25
BRANCH   9  28
ATOM     28  C   UNL     1      -2.084  -5.374   6.401  0.00  0.00    +0.101 C 
ATOM     29  N   UNL     1      -1.987  -5.037   7.481  0.00  0.00    -0.191 NA
ENDBRANCH   9  28
BRANCH   1  30
ATOM     30  C   UNL     1      -2.031  -3.372   1.112  0.00  0.00    +0.175 C 
BRANCH  30  31
ATOM     31  C   UNL     1      -0.643  -2.822   1.314  0.00  0.00    +0.313 C 
ATOM     32  O   UNL     1       0.251  -3.553   1.669  0.00  0.00    -0.250 OA
BRANCH  31  33
ATOM     33  O   UNL     1      -0.399  -1.520   1.098  0.00  0.00    -0.465 OA
BRANCH  33  35
ATOM     34  C   UNL     1       1.023   0.433   1.016  0.00  0.00    +0.048 C 
ATOM     35  C   UNL     1       0.940  -1.067   1.309  0.00  0.00    +0.229 C 
ENDBRANCH  33  35
ENDBRANCH  31  33
ENDBRANCH  30  31
ENDBRANCH   1  30
TORSDOF 9
