REMARK  Name = ZINC27329938
REMARK  7 active torsions:
REMARK  status: ('A' for Active; 'I' for Inactive)
REMARK    1  A    between atoms: C_1  and  C_2
REMARK    2  A    between atoms: C_9  and  C_11
REMARK    3  A    between atoms: N_13  and  N_14
REMARK    4  A    between atoms: C_15  and  C_17
REMARK    5  A    between atoms: C_17  and  N_18
REMARK    6  A    between atoms: C_21  and  C_25
REMARK    7  A    between atoms: C_21  and  C_26
REMARK                            x       y       z     vdW  Elec       q    Type
REMARK                         _______ _______ _______ _____ _____    ______ ____
ROOT
ATOM      1  N   UNL     1      -4.933   1.606   0.033  0.00  0.00    -0.233 N 
ATOM      2  C   UNL     1      -5.977   2.458   0.043  0.00  0.00    +0.247 C 
ATOM      3  O   UNL     1      -5.782   3.655   0.049  0.00  0.00    -0.273 OA
ATOM      4  H   UNL     1      -5.109   0.520   0.028  0.00  0.00    +0.173 HD
ENDROOT
BRANCH   1   7
ATOM      5  C   UNL     1      -2.579   1.250   0.021  0.00  0.00    +0.267 C 
ATOM      6  O   UNL     1      -2.774   0.049   0.015  0.00  0.00    -0.268 OA
ATOM      7  N   UNL     1      -3.623   2.102   0.030  0.00  0.00    -0.230 N 
ATOM      8  H   UNL     1      -3.446   3.188   0.035  0.00  0.00    +0.173 HD
BRANCH   5  16
ATOM      9  C   UNL     1       4.980   1.583  -0.340  0.00  0.00    +0.008 C 
ATOM     10  C   UNL     1       3.575   2.172  -0.484  0.00  0.00    -0.009 C 
ATOM     11  C   UNL     1       3.467   3.442   0.365  0.00  0.00    +0.009 C 
ATOM     12  C   UNL     1       2.162   4.167   0.005  0.00  0.00    +0.043 C 
ATOM     13  C   UNL     1       1.049   3.164   0.009  0.00  0.00    -0.006 A 
ATOM     14  C   UNL     1       1.166   1.804   0.001  0.00  0.00    -0.036 A 
ATOM     15  C   UNL     1      -0.013   1.076   0.008  0.00  0.00    +0.024 A 
ATOM     16  C   UNL     1      -1.208   1.770   0.017  0.00  0.00    +0.076 A 
ATOM     17  S   UNL     1      -0.647   3.464   0.026  0.00  0.00    -0.088 S 
ATOM     18  C   UNL     1       2.543   1.145  -0.017  0.00  0.00    +0.039 C 
ENDBRANCH   5  16
ENDBRANCH   1   7
BRANCH   2  19
ATOM     19  C   UNL     1      -7.386   1.923   0.046  0.00  0.00    +0.215 C 
BRANCH  19  20
ATOM     20  N   UNL     1      -8.332   3.042   0.057  0.00  0.00    -0.215 N 
ATOM     21  C   UNL     1      -8.826   3.626  -1.052  0.00  0.00    +0.251 C 
ATOM     22  O   UNL     1      -8.580   3.337  -2.204  0.00  0.00    -0.272 OA
ATOM     23  C   UNL     1      -9.754   4.720  -0.561  0.00  0.00    +0.135 C 
ATOM     24  N   UNL     1      -9.666   4.615   0.905  0.00  0.00    -0.281 N 
ATOM     25  C   UNL     1      -8.817   3.606   1.169  0.00  0.00    +0.310 C 
ATOM     26  O   UNL     1      -8.521   3.248   2.292  0.00  0.00    -0.252 OA
ATOM     27  C   UNL     1      -9.266   6.091  -1.034  0.00  0.00    +0.047 C 
ATOM     28  H   UNL     1     -10.244   5.303   1.541  0.00  0.00    +0.152 HD
BRANCH  23  29
ATOM     29  C   UNL     1     -11.164   4.468  -1.028  0.00  0.00    -0.015 A 
ATOM     30  C   UNL     1     -11.390   3.808  -2.221  0.00  0.00    +0.009 A 
ATOM     31  C   UNL     1     -12.683   3.572  -2.647  0.00  0.00    +0.039 A 
ATOM     32  C   UNL     1     -13.753   4.007  -1.883  0.00  0.00    +0.123 A 
ATOM     33  C   UNL     1     -13.526   4.673  -0.691  0.00  0.00    +0.039 A 
ATOM     34  C   UNL     1     -12.232   4.902  -0.264  0.00  0.00    +0.009 A 
ATOM     35  F   UNL     1     -15.018   3.781  -2.301  0.00  0.00    -0.205 F 
ENDBRANCH  23  29
ENDBRANCH  19  20
ENDBRANCH   2  19
TORSDOF 5
