REMARK  Name = ZINC09057038
REMARK  12 active torsions:
REMARK  status: ('A' for Active; 'I' for Inactive)
REMARK    1  A    between atoms: C_1  and  C_2
REMARK    2  A    between atoms: C_2  and  N_61
REMARK    3  A    between atoms: C_3  and  C_4
REMARK    4  A    between atoms: C_3  and  N_61
REMARK    5  A    between atoms: C_5  and  C_6
REMARK    6  A    between atoms: C_5  and  N_61
REMARK    7  A    between atoms: C_6  and  C_7
REMARK    8  A    between atoms: C_7  and  C_8
REMARK    9  A    between atoms: C_8  and  C_10
REMARK   10  A    between atoms: C_8  and  N_11
REMARK   11  A    between atoms: C_20  and  C_22
REMARK   12  A    between atoms: C_23  and  C_24
REMARK                            x       y       z     vdW  Elec       q    Type
REMARK                         _______ _______ _______ _____ _____    ______ ____
ROOT
ATOM      1  N   UNL     1      -5.042   7.443   0.455  0.00  0.00    -0.326 N 
ATOM      2  C   UNL     1      -5.132   6.069   0.540  0.00  0.00    +0.131 A 
ATOM      3  C   UNL     1      -6.347   5.443   0.917  0.00  0.00    +0.040 A 
ATOM      4  C   UNL     1      -7.497   6.179   1.218  0.00  0.00    +0.015 A 
ATOM      5  C   UNL     1      -8.640   5.526   1.575  0.00  0.00    +0.021 A 
ATOM      6  C   UNL     1      -8.677   4.135   1.645  0.00  0.00    +0.043 A 
ATOM      7  C   UNL     1      -7.572   3.388   1.357  0.00  0.00    +0.048 A 
ATOM      8  C   UNL     1      -6.381   4.028   0.987  0.00  0.00    +0.078 A 
ATOM      9  N   UNL     1      -5.271   3.339   0.690  0.00  0.00    -0.228 NA
ATOM     10  C   UNL     1      -4.162   3.973   0.347  0.00  0.00    +0.155 A 
ATOM     11  N   UNL     1      -4.087   5.304   0.270  0.00  0.00    -0.213 NA
ATOM     12 CL   UNL     1     -10.151   3.341   2.103  0.00  0.00    -0.083 Cl
ATOM     13  H   UNL     1      -5.815   7.993   0.656  0.00  0.00    +0.148 HD
ENDROOT
BRANCH   1  14
ATOM     14  C   UNL     1      -3.778   8.071   0.063  0.00  0.00    +0.069 C 
ATOM     15  C   UNL     1      -3.684   8.118  -1.463  0.00  0.00    +0.028 C 
BRANCH  14  16
ATOM     16  C   UNL     1      -3.721   9.495   0.622  0.00  0.00    +0.020 C 
BRANCH  16  17
ATOM     17  C   UNL     1      -3.690   9.442   2.150  0.00  0.00    -0.017 C 
BRANCH  17  18
ATOM     18  C   UNL     1      -3.633  10.865   2.709  0.00  0.00    -0.079 C 
BRANCH  18  19
ATOM     19  N   UNL     1      -3.625  10.798   4.185  0.00  0.00    +0.379 N 
ATOM     20  H   UNL     1      -4.407  10.210   4.497  0.00  0.00    -0.082 HD
BRANCH  19  22
ATOM     21  C   UNL     1      -1.164  11.037   4.190  0.00  0.00    -0.017 C 
ATOM     22  C   UNL     1      -2.357  10.201   4.657  0.00  0.00    -0.082 C 
ENDBRANCH  19  22
BRANCH  19  23
ATOM     23  C   UNL     1      -3.787  12.153   4.753  0.00  0.00    -0.082 C 
ATOM     24  C   UNL     1      -4.139  12.025   6.237  0.00  0.00    -0.017 C 
ENDBRANCH  19  23
ENDBRANCH  18  19
ENDBRANCH  17  18
ENDBRANCH  16  17
ENDBRANCH  14  16
ENDBRANCH   1  14
BRANCH  10  25
ATOM     25  C   UNL     1      -2.963   3.179   0.034  0.00  0.00    +0.049 C 
ATOM     26  C   UNL     1      -3.008   1.837   0.103  0.00  0.00    +0.011 C 
BRANCH  26  27
ATOM     27  C   UNL     1      -1.808   1.042  -0.211  0.00  0.00    -0.023 A 
ATOM     28  C   UNL     1      -1.852  -0.353  -0.139  0.00  0.00    +0.009 A 
ATOM     29  C   UNL     1      -0.728  -1.092  -0.440  0.00  0.00    +0.022 A 
ATOM     30  C   UNL     1       0.445  -0.455  -0.812  0.00  0.00    +0.059 A 
ATOM     31  C   UNL     1       0.496   0.929  -0.885  0.00  0.00    +0.060 A 
ATOM     32  C   UNL     1      -0.623   1.680  -0.587  0.00  0.00    +0.029 A 
ATOM     33 CL   UNL     1       1.970   1.718  -1.353  0.00  0.00    -0.082 Cl
ATOM     34 CL   UNL     1       1.856  -1.393  -1.188  0.00  0.00    -0.082 Cl
ENDBRANCH  26  27
ENDBRANCH  10  25
TORSDOF 9
