REMARK  Name = ZINC09492187
REMARK  11 active torsions:
REMARK  status: ('A' for Active; 'I' for Inactive)
REMARK    1  A    between atoms: C_1  and  N_55
REMARK    2  A    between atoms: C_2  and  N_55
REMARK    3  A    between atoms: C_3  and  C_5
REMARK    4  A    between atoms: C_3  and  C_27
REMARK    5  A    between atoms: C_3  and  N_55
REMARK    6  A    between atoms: C_5  and  N_57
REMARK    7  A    between atoms: C_6  and  C_8
REMARK    8  A    between atoms: C_6  and  C_14
REMARK    9  A    between atoms: C_6  and  N_57
REMARK   10  A    between atoms: N_16  and  C_17
REMARK   11  A    between atoms: C_20  and  N_24
REMARK                            x       y       z     vdW  Elec       q    Type
REMARK                         _______ _______ _______ _____ _____    ______ ____
ROOT
ATOM      1  C   UNL     1      -2.257   0.561   3.738  0.00  0.00    +0.047 C 
ENDROOT
BRANCH   1   2
ATOM      2  C   UNL     1      -2.740   1.802   4.444  0.00  0.00    -0.053 A 
ATOM      3  C   UNL     1      -1.827   2.694   4.976  0.00  0.00    +0.002 A 
ATOM      4  C   UNL     1      -2.270   3.835   5.619  0.00  0.00    +0.000 A 
ATOM      5  C   UNL     1      -3.625   4.079   5.739  0.00  0.00    +0.000 A 
ATOM      6  C   UNL     1      -4.538   3.185   5.211  0.00  0.00    +0.000 A 
ATOM      7  C   UNL     1      -4.095   2.046   4.564  0.00  0.00    +0.002 A 
ENDBRANCH   1   2
BRANCH   1   8
ATOM      8  C   UNL     1      -1.880  -0.482   4.758  0.00  0.00    +0.207 C 
ATOM      9  O   UNL     1      -0.746  -0.910   4.798  0.00  0.00    -0.277 OA
ATOM     10  N   UNL     1      -2.804  -0.940   5.627  0.00  0.00    -0.285 N 
ATOM     11  H   UNL     1      -3.730  -0.665   5.540  0.00  0.00    +0.155 HD
BRANCH  10  12
ATOM     12  C   UNL     1      -2.426  -1.811   6.655  0.00  0.00    +0.052 A 
ATOM     13  C   UNL     1      -1.094  -1.901   7.037  0.00  0.00    +0.027 A 
ATOM     14  C   UNL     1      -0.725  -2.762   8.052  0.00  0.00    +0.034 A 
ATOM     15  C   UNL     1      -1.679  -3.534   8.688  0.00  0.00    +0.128 A 
ATOM     16  C   UNL     1      -3.006  -3.448   8.311  0.00  0.00    +0.054 A 
ATOM     17  C   UNL     1      -3.384  -2.584   7.300  0.00  0.00    +0.064 A 
ATOM     18 CL   UNL     1      -5.052  -2.471   6.831  0.00  0.00    -0.082 Cl
BRANCH  15  19
ATOM     19  N   UNL     1      -1.279  -4.456   9.775  0.00  0.00    +0.056 N 
ATOM     20  O   UNL     1      -0.110  -4.533  10.108  0.00  0.00    -0.126 OA
ATOM     21  O   UNL     1      -2.119  -5.137  10.336  0.00  0.00    -0.126 OA
ENDBRANCH  15  19
ENDBRANCH  10  12
ENDBRANCH   1   8
BRANCH   1  22
ATOM     22  N   UNL     1      -1.074   0.888   2.920  0.00  0.00    +0.389 N 
ATOM     23  H   UNL     1      -0.516   1.603   3.403  0.00  0.00    -0.084 HD
ATOM     24  H   UNL     1      -0.508   0.042   2.790  0.00  0.00    -0.084 HD
BRANCH  22  25
ATOM     25  C   UNL     1      -1.489   1.404   1.602  0.00  0.00    -0.092 C 
BRANCH  25  26
ATOM     26  C   UNL     1      -0.243   1.734   0.778  0.00  0.00    -0.056 C 
BRANCH  26  27
ATOM     27  C   UNL     1      -0.656   2.375  -0.522  0.00  0.00    -0.063 A 
ATOM     28  C   UNL     1      -0.433   3.723  -0.730  0.00  0.00    +0.002 A 
ATOM     29  C   UNL     1      -0.808   4.310  -1.924  0.00  0.00    +0.000 A 
ATOM     30  C   UNL     1      -1.415   3.551  -2.907  0.00  0.00    +0.000 A 
ATOM     31  C   UNL     1      -1.642   2.203  -2.697  0.00  0.00    +0.000 A 
ATOM     32  C   UNL     1      -1.263   1.615  -1.505  0.00  0.00    +0.002 A 
ENDBRANCH  26  27
BRANCH  26  35
ATOM     33  C   UNL     1      -0.197   3.655   2.250  0.00  0.00    -0.096 C 
ATOM     34  C   UNL     1       1.493   1.933   2.454  0.00  0.00    -0.096 C 
ATOM     35  N   UNL     1       0.627   2.675   1.512  0.00  0.00    +0.379 N 
ATOM     36  H   UNL     1       1.219   3.176   0.840  0.00  0.00    -0.082 HD
ENDBRANCH  26  35
ENDBRANCH  25  26
ENDBRANCH  22  25
ENDBRANCH   1  22
TORSDOF 9
