REMARK  Name = ZINC36597503
REMARK  12 active torsions:
REMARK  status: ('A' for Active; 'I' for Inactive)
REMARK    1  A    between atoms: C_1  and  C_2
REMARK    2  A    between atoms: C_5  and  C_7
REMARK    3  A    between atoms: C_7  and  N_8
REMARK    4  A    between atoms: N_8  and  C_9
REMARK    5  A    between atoms: C_9  and  C_11
REMARK    6  A    between atoms: C_9  and  C_20
REMARK    7  A    between atoms: C_11  and  C_13
REMARK    8  A    between atoms: C_11  and  C_14
REMARK    9  A    between atoms: N_22  and  C_23
REMARK   10  A    between atoms: C_29  and  C_31
REMARK   11  A    between atoms: C_32  and  O_38
REMARK   12  A    between atoms: C_36  and  O_37
REMARK                            x       y       z     vdW  Elec       q    Type
REMARK                         _______ _______ _______ _____ _____    ______ ____
ROOT
ATOM      1  N   UNL     1       2.265  -3.560  -1.196  0.00  0.00    -0.278 N 
ATOM      2  C   UNL     1       1.147  -4.237  -1.525  0.00  0.00    +0.255 C 
ATOM      3  O   UNL     1       0.994  -4.643  -2.661  0.00  0.00    -0.270 OA
ENDROOT
BRANCH   2   4
ATOM      4  C   UNL     1       0.111  -4.485  -0.509  0.00  0.00    +0.119 A 
ATOM      5  C   UNL     1      -0.933  -3.566  -0.325  0.00  0.00    +0.133 A 
ATOM      6  C   UNL     1      -1.903  -3.810   0.634  0.00  0.00    +0.046 A 
ATOM      7  C   UNL     1      -1.845  -4.955   1.407  0.00  0.00    +0.007 A 
ATOM      8  C   UNL     1      -0.821  -5.867   1.234  0.00  0.00    +0.046 A 
ATOM      9  C   UNL     1       0.156  -5.646   0.277  0.00  0.00    +0.133 A 
BRANCH   9  10
ATOM     10  O   UNL     1       1.157  -6.546   0.105  0.00  0.00    -0.506 OA
ATOM     11  H   UNL     1       1.934  -6.380   0.657  0.00  0.00    +0.292 HD
ENDBRANCH   9  10
BRANCH   5  12
ATOM     12  O   UNL     1      -0.991  -2.442  -1.082  0.00  0.00    -0.506 OA
ATOM     13  H   UNL     1      -1.493  -2.546  -1.902  0.00  0.00    +0.292 HD
ENDBRANCH   5  12
ENDBRANCH   2   4
BRANCH   1  14
ATOM     14  C   UNL     1       2.502  -3.170   0.196  0.00  0.00    +0.183 C 
BRANCH  14  19
ATOM     15  C   UNL     1       2.033   1.839   0.550  0.00  0.00    +0.086 C 
ATOM     16  C   UNL     1       1.702   0.370   0.599  0.00  0.00    +0.102 A 
ATOM     17  C   UNL     1       0.521  -0.159   0.965  0.00  0.00    +0.045 A 
ATOM     18  C   UNL     1       0.652  -1.563   0.866  0.00  0.00    +0.046 A 
ATOM     19  C   UNL     1       1.906  -1.808   0.445  0.00  0.00    +0.122 A 
ATOM     20  O   UNL     1       2.536  -0.634   0.280  0.00  0.00    -0.463 OA
ENDBRANCH  14  19
ENDBRANCH   1  14
BRANCH   1  21
ATOM     21  C   UNL     1       3.242  -3.213  -2.230  0.00  0.00    +0.170 C 
BRANCH  21  22
ATOM     22  C   UNL     1       3.859  -4.473  -2.781  0.00  0.00    +0.234 C 
ATOM     23  O   UNL     1       3.381  -5.553  -2.505  0.00  0.00    -0.274 OA
ATOM     24  N   UNL     1       4.943  -4.400  -3.579  0.00  0.00    -0.311 N 
ATOM     25  H   UNL     1       5.365  -3.543  -3.746  0.00  0.00    +0.149 HD
BRANCH  24  26
ATOM     26  C   UNL     1       5.482  -5.615  -4.195  0.00  0.00    +0.073 C 
ATOM     27  C   UNL     1       6.433  -6.305  -3.215  0.00  0.00    +0.022 C 
ATOM     28  C   UNL     1       6.996  -7.574  -3.858  0.00  0.00    +0.002 C 
ATOM     29  C   UNL     1       7.758  -7.204  -5.133  0.00  0.00    +0.000 C 
ATOM     30  C   UNL     1       6.807  -6.514  -6.113  0.00  0.00    +0.002 C 
ATOM     31  C   UNL     1       6.244  -5.245  -5.470  0.00  0.00    +0.022 C 
ENDBRANCH  24  26
ENDBRANCH  21  22
BRANCH  21  32
ATOM     32  C   UNL     1       2.543  -2.453  -3.359  0.00  0.00    +0.045 C 
ATOM     33  C   UNL     1       1.851  -1.214  -2.787  0.00  0.00    +0.015 C 
BRANCH  32  34
ATOM     34  C   UNL     1       3.562  -2.029  -4.386  0.00  0.00    -0.042 A 
ATOM     35  C   UNL     1       4.620  -1.221  -4.017  0.00  0.00    +0.004 A 
ATOM     36  C   UNL     1       5.554  -0.832  -4.959  0.00  0.00    +0.000 A 
ATOM     37  C   UNL     1       5.430  -1.253  -6.270  0.00  0.00    +0.000 A 
ATOM     38  C   UNL     1       4.372  -2.063  -6.638  0.00  0.00    +0.000 A 
ATOM     39  C   UNL     1       3.440  -2.455  -5.696  0.00  0.00    +0.004 A 
ENDBRANCH  32  34
ENDBRANCH  21  32
ENDBRANCH   1  21
TORSDOF 10
