REMARK  Name = ZINC02399198
REMARK  8 active torsions:
REMARK  status: ('A' for Active; 'I' for Inactive)
REMARK    1  A    between atoms: C_1  and  C_2
REMARK    2  A    between atoms: C_5  and  C_15
REMARK    3  A    between atoms: C_7  and  S_8
REMARK    4  A    between atoms: S_8  and  N_11
REMARK    5  A    between atoms: N_11  and  C_12
REMARK    6  A    between atoms: C_12  and  C_13
REMARK    7  A    between atoms: C_12  and  C_14
REMARK    8  A    between atoms: C_21  and  C_28
REMARK                            x       y       z     vdW  Elec       q    Type
REMARK                         _______ _______ _______ _____ _____    ______ ____
ROOT
ATOM      1  C   UNL     1      -8.250   1.314  -1.160  0.00  0.00    +0.046 C 
ATOM      2  C   UNL     1      -6.990   1.841  -0.523  0.00  0.00    -0.024 A 
ATOM      3  C   UNL     1      -5.756   1.447  -1.009  0.00  0.00    +0.006 A 
ATOM      4  C   UNL     1      -4.599   1.926  -0.431  0.00  0.00    +0.012 A 
ATOM      5  C   UNL     1      -4.675   2.810   0.647  0.00  0.00    +0.023 A 
ATOM      6  C   UNL     1      -5.923   3.200   1.135  0.00  0.00    +0.040 A 
ATOM      7  C   UNL     1      -7.073   2.718   0.544  0.00  0.00    +0.109 A 
ENDROOT
BRANCH   5   8
ATOM      8  C   UNL     1      -3.439   3.327   1.271  0.00  0.00    +0.185 A 
ATOM      9  N   UNL     1      -3.348   3.932   2.439  0.00  0.00    -0.127 NA
ATOM     10  N   UNL     1      -2.124   4.251   2.675  0.00  0.00    -0.127 NA
ATOM     11  C   UNL     1      -1.362   3.869   1.671  0.00  0.00    +0.186 A 
ATOM     12  N   UNL     1      -2.177   3.268   0.745  0.00  0.00    -0.192 N 
ATOM     13  N   UNL     1      -1.666   2.755  -0.447  0.00  0.00    -0.168 NA
ATOM     14  C   UNL     1      -0.402   2.805  -0.745  0.00  0.00    +0.067 A 
ATOM     15  C   UNL     1       0.552   3.425   0.174  0.00  0.00    +0.008 A 
ATOM     16  C   UNL     1       0.073   3.962   1.392  0.00  0.00    +0.030 A 
ATOM     17  C   UNL     1       0.963   4.558   2.284  0.00  0.00    +0.012 A 
ATOM     18  C   UNL     1       2.303   4.618   1.970  0.00  0.00    +0.001 A 
ATOM     19  C   UNL     1       2.775   4.091   0.775  0.00  0.00    +0.001 A 
ATOM     20  C   UNL     1       1.915   3.498  -0.122  0.00  0.00    +0.010 A 
ATOM     21  C   UNL     1       0.083   2.226  -2.049  0.00  0.00    +0.068 C 
ENDBRANCH   5   8
BRANCH   7  22
ATOM     22  S   UNL     1      -8.649   3.213   1.155  0.00  0.00    +0.059 S 
ATOM     23  O   UNL     1      -8.406   4.040   2.284  0.00  0.00    -0.153 OA
ATOM     24  O   UNL     1      -9.398   3.658   0.032  0.00  0.00    -0.153 OA
BRANCH  22  25
ATOM     25  N   UNL     1      -9.406   1.852   1.719  0.00  0.00    -0.187 NA
ATOM     26  H   UNL     1     -10.205   1.523   1.278  0.00  0.00    +0.148 HD
BRANCH  25  27
ATOM     27  C   UNL     1      -8.868   1.144   2.883  0.00  0.00    +0.070 C 
ATOM     28  C   UNL     1     -10.021   0.571   3.709  0.00  0.00    +0.025 C 
ATOM     29  C   UNL     1      -7.961   0.004   2.414  0.00  0.00    +0.025 C 
ENDBRANCH  25  27
ENDBRANCH  22  25
ENDBRANCH   7  22
TORSDOF 4
