REMARK  Name = ZINC59935711
REMARK  6 active torsions:
REMARK  status: ('A' for Active; 'I' for Inactive)
REMARK    1  A    between atoms: C_4  and  C_7
REMARK    2  A    between atoms: C_7  and  C_11
REMARK    3  A    between atoms: N_13  and  C_14
REMARK    4  A    between atoms: C_18  and  C_20
REMARK    5  A    between atoms: C_20  and  N_21
REMARK    6  A    between atoms: C_25  and  C_27
REMARK                            x       y       z     vdW  Elec       q    Type
REMARK                         _______ _______ _______ _____ _____    ______ ____
ROOT
ATOM      1  C   UNL     1       5.683   1.449  -2.410  0.00  0.00    +0.034 A 
ATOM      2  C   UNL     1       6.175   0.515  -3.313  0.00  0.00    +0.023 A 
ATOM      3  C   UNL     1       6.913   0.933  -4.403  0.00  0.00    +0.002 A 
ATOM      4  C   UNL     1       7.163   2.280  -4.596  0.00  0.00    +0.002 A 
ATOM      5  C   UNL     1       6.674   3.212  -3.699  0.00  0.00    -0.062 A 
ATOM      6  C   UNL     1       5.930   2.801  -2.610  0.00  0.00    +0.025 A 
ENDROOT
BRANCH   1   9
ATOM      7  C   UNL     1       4.051   0.020  -1.433  0.00  0.00    +0.228 C 
ATOM      8  O   UNL     1       3.982  -0.597  -2.476  0.00  0.00    -0.275 OA
ATOM      9  N   UNL     1       4.935   1.029  -1.305  0.00  0.00    -0.285 N 
ATOM     10  H   UNL     1       5.053   1.464  -0.446  0.00  0.00    +0.155 HD
BRANCH   7  11
ATOM     11  C   UNL     1       3.149  -0.343  -0.282  0.00  0.00    +0.072 C 
ATOM     12  C   UNL     1       3.879  -1.034   0.881  0.00  0.00    +0.021 C 
ATOM     13  C   UNL     1       3.591  -2.365   0.167  0.00  0.00    +0.003 C 
ATOM     14  C   UNL     1       2.389  -1.664  -0.487  0.00  0.00    +0.021 C 
BRANCH  11  18
ATOM     15  C   UNL     1       0.650   2.897   0.948  0.00  0.00    +0.000 A 
ATOM     16  C   UNL     1       1.714   2.505   1.739  0.00  0.00    +0.000 A 
ATOM     17  C   UNL     1       2.523   1.457   1.341  0.00  0.00    +0.004 A 
ATOM     18  C   UNL     1       2.267   0.800   0.152  0.00  0.00    -0.032 A 
ATOM     19  C   UNL     1       1.202   1.191  -0.638  0.00  0.00    +0.004 A 
ATOM     20  C   UNL     1       0.395   2.240  -0.241  0.00  0.00    +0.000 A 
ENDBRANCH  11  18
ENDBRANCH   7  11
ENDBRANCH   1   9
BRANCH   5  21
ATOM     21  C   UNL     1       6.949   4.678  -3.913  0.00  0.00    -0.042 C 
BRANCH  21  22
ATOM     22  N   UNL     1       5.876   5.263  -4.728  0.00  0.00    +0.390 N 
ATOM     23  C   UNL     1       4.607   5.296  -3.957  0.00  0.00    -0.077 C 
ATOM     24  C   UNL     1       3.784   6.395  -4.676  0.00  0.00    -0.020 C 
ATOM     25  C   UNL     1       4.857   7.444  -5.046  0.00  0.00    -0.008 C 
ATOM     26  C   UNL     1       6.190   6.673  -5.048  0.00  0.00    +0.019 C 
ATOM     27  H   UNL     1       5.755   4.732  -5.577  0.00  0.00    -0.080 HD
BRANCH  26  28
ATOM     28  C   UNL     1       6.831   6.759  -6.410  0.00  0.00    +0.197 C 
ATOM     29  O   UNL     1       7.013   5.751  -7.059  0.00  0.00    -0.278 OA
ATOM     30  N   UNL     1       7.201   7.957  -6.905  0.00  0.00    -0.331 N 
ATOM     31  H   UNL     1       7.055   8.763  -6.386  0.00  0.00    +0.145 HD
ATOM     32  H   UNL     1       7.613   8.012  -7.782  0.00  0.00    +0.145 HD
ENDBRANCH  26  28
ENDBRANCH  21  22
ENDBRANCH   5  21
TORSDOF 6
