REMARK  Name = ZINC63694337
REMARK  6 active torsions:
REMARK  status: ('A' for Active; 'I' for Inactive)
REMARK    1  A    between atoms: C_4  and  C_7
REMARK    2  A    between atoms: C_10  and  C_22
REMARK    3  A    between atoms: N_13  and  C_14
REMARK    4  A    between atoms: N_24  and  C_25
REMARK    5  A    between atoms: C_25  and  C_26
REMARK    6  A    between atoms: C_26  and  C_27
REMARK                            x       y       z     vdW  Elec       q    Type
REMARK                         _______ _______ _______ _____ _____    ______ ____
ROOT
ATOM      1  C   UNL     1       3.687  -0.742  -0.077  0.00  0.00    +0.105 C 
ATOM      2  C   UNL     1       3.940  -1.417  -1.444  0.00  0.00    +0.054 C 
ATOM      3  C   UNL     1       4.595  -2.763  -1.037  0.00  0.00    +0.157 C 
ATOM      4  N   UNL     1       3.871  -3.099   0.216  0.00  0.00    -0.241 NA
ATOM      5  N   UNL     1       3.679  -1.830   0.920  0.00  0.00    -0.230 NA
ATOM      6  H   UNL     1       4.403  -3.747   0.779  0.00  0.00    +0.142 HD
ENDROOT
BRANCH   5   7
ATOM      7  C   UNL     1       2.423  -1.836   1.683  0.00  0.00    +0.096 C 
ATOM      8  C   UNL     1       2.598  -1.023   2.977  0.00  0.00    +0.044 C 
ATOM      9  C   UNL     1       1.407  -1.284   3.929  0.00  0.00    +0.167 C 
ATOM     10  S   UNL     1       0.882  -2.984   3.462  0.00  0.00    -0.029 S 
ATOM     11  O   UNL     1      -0.443  -2.935   2.949  0.00  0.00    -0.174 OA
ATOM     12  O   UNL     1       1.185  -3.871   4.531  0.00  0.00    -0.174 OA
ATOM     13  C   UNL     1       2.052  -3.295   2.074  0.00  0.00    +0.186 C 
ENDBRANCH   5   7
BRANCH   1  17
ATOM     14  C   UNL     1      -0.084   1.264  -0.103  0.00  0.00    +0.000 A 
ATOM     15  C   UNL     1       1.004   1.845   0.521  0.00  0.00    +0.000 A 
ATOM     16  C   UNL     1       2.224   1.196   0.530  0.00  0.00    +0.005 A 
ATOM     17  C   UNL     1       2.357  -0.034  -0.085  0.00  0.00    -0.029 A 
ATOM     18  C   UNL     1       1.269  -0.616  -0.709  0.00  0.00    +0.005 A 
ATOM     19  C   UNL     1       0.049   0.034  -0.719  0.00  0.00    +0.000 A 
ENDBRANCH   1  17
BRANCH   3  20
ATOM     20  C   UNL     1       4.364  -3.812  -2.094  0.00  0.00    +0.231 C 
ATOM     21  O   UNL     1       3.489  -4.639  -1.946  0.00  0.00    -0.274 OA
ATOM     22  N   UNL     1       5.130  -3.832  -3.202  0.00  0.00    -0.314 N 
ATOM     23  H   UNL     1       5.830  -3.171  -3.320  0.00  0.00    +0.149 HD
BRANCH  22  24
ATOM     24  C   UNL     1       4.906  -4.853  -4.229  0.00  0.00    +0.108 C 
BRANCH  24  25
ATOM     25  C   UNL     1       5.902  -4.653  -5.373  0.00  0.00    +0.065 C 
BRANCH  25  26
ATOM     26  C   UNL     1       5.668  -5.718  -6.446  0.00  0.00    +0.175 C 
ATOM     27  N   UNL     1       5.923  -7.054  -5.893  0.00  0.00    -0.363 N 
ATOM     28  C   UNL     1       6.892  -7.583  -6.583  0.00  0.00    +0.060 A 
ATOM     29  C   UNL     1       7.580  -8.880  -6.508  0.00  0.00    +0.027 A 
ATOM     30  C   UNL     1       8.573  -9.157  -7.377  0.00  0.00    +0.002 A 
ATOM     31  C   UNL     1       8.988  -8.250  -8.368  0.00  0.00    +0.002 A 
ATOM     32  C   UNL     1       8.425  -7.035  -8.523  0.00  0.00    +0.027 A 
ATOM     33  C   UNL     1       7.332  -6.624  -7.633  0.00  0.00    +0.060 A 
ATOM     34  N   UNL     1       6.617  -5.538  -7.551  0.00  0.00    -0.363 N 
ATOM     35  H   UNL     1       5.456  -7.467  -5.150  0.00  0.00    +0.162 HD
ATOM     36  H   UNL     1       6.698  -4.755  -8.117  0.00  0.00    +0.162 HD
ENDBRANCH  25  26
ENDBRANCH  24  25
ENDBRANCH  22  24
ENDBRANCH   3  20
TORSDOF 6
