REMARK  Name = ZINC43218932
REMARK  5 active torsions:
REMARK  status: ('A' for Active; 'I' for Inactive)
REMARK    1  A    between atoms: C_4  and  C_7
REMARK    2  A    between atoms: C_7  and  C_34
REMARK    3  A    between atoms: C_12  and  C_15
REMARK    4  A    between atoms: C_20  and  O_21
REMARK    5  A    between atoms: N_25  and  C_28
REMARK                            x       y       z     vdW  Elec       q    Type
REMARK                         _______ _______ _______ _____ _____    ______ ____
ROOT
ATOM      1  C   UNL     1       3.707  -0.657  -0.027  0.00  0.00    +0.074 C 
ATOM      2  C   UNL     1       3.611  -1.996  -0.786  0.00  0.00    +0.090 C 
ATOM      3  C   UNL     1       4.089  -1.673  -2.227  0.00  0.00    +0.077 C 
ATOM      4  C   UNL     1       4.414  -0.164  -2.207  0.00  0.00    -0.023 C 
ATOM      5  N   UNL     1       4.719   0.130  -0.777  0.00  0.00    +0.398 N 
ATOM      6  C   UNL     1       5.367  -2.470  -2.358  0.00  0.00    +0.225 C 
ATOM      7  O   UNL     1       6.075  -2.503  -3.342  0.00  0.00    -0.275 OA
ATOM      8  N   UNL     1       5.596  -3.132  -1.219  0.00  0.00    -0.239 N 
ATOM      9  C   UNL     1       4.663  -2.945  -0.257  0.00  0.00    +0.225 C 
ATOM     10  O   UNL     1       4.662  -3.447   0.846  0.00  0.00    -0.275 OA
ATOM     11  H   UNL     1       4.607   1.116  -0.592  0.00  0.00    -0.083 HD
ATOM     12  H   UNL     1       5.651  -0.173  -0.535  0.00  0.00    -0.083 HD
ENDROOT
BRANCH   4  13
ATOM     13  C   UNL     1       5.623   0.124  -3.058  0.00  0.00    -0.018 A 
ATOM     14  C   UNL     1       6.867   0.251  -2.472  0.00  0.00    +0.020 A 
ATOM     15  C   UNL     1       7.978   0.516  -3.253  0.00  0.00    +0.018 A 
ATOM     16  C   UNL     1       7.845   0.653  -4.623  0.00  0.00    +0.019 A 
ATOM     17  C   UNL     1       6.603   0.526  -5.214  0.00  0.00    +0.047 A 
ATOM     18  C   UNL     1       5.489   0.256  -4.433  0.00  0.00    +0.119 A 
ATOM     19 BR   UNL     1       9.680   0.690  -2.447  0.00  0.00    -0.050 Br
BRANCH  18  20
ATOM     20  O   UNL     1       4.266   0.126  -5.013  0.00  0.00    -0.507 OA
ATOM     21  H   UNL     1       3.775   0.955  -5.084  0.00  0.00    +0.292 HD
ENDBRANCH  18  20
ENDBRANCH   4  13
BRANCH   1  25
ATOM     22  C   UNL     1      -0.065   1.349  -0.068  0.00  0.00    +0.000 A 
ATOM     23  C   UNL     1       1.108   2.081  -0.089  0.00  0.00    +0.000 A 
ATOM     24  C   UNL     1       2.328   1.432  -0.075  0.00  0.00    +0.003 A 
ATOM     25  C   UNL     1       2.376   0.051  -0.041  0.00  0.00    -0.047 A 
ATOM     26  C   UNL     1       1.204  -0.681  -0.019  0.00  0.00    +0.003 A 
ATOM     27  C   UNL     1      -0.017  -0.032  -0.034  0.00  0.00    +0.000 A 
ENDBRANCH   1  25
BRANCH   8  28
ATOM     28  C   UNL     1       6.762  -3.999  -1.026  0.00  0.00    +0.084 C 
ATOM     29  C   UNL     1       8.041  -3.177  -1.194  0.00  0.00    +0.023 C 
ATOM     30  C   UNL     1       9.259  -4.082  -0.993  0.00  0.00    +0.002 C 
ATOM     31  C   UNL     1       9.235  -5.207  -2.031  0.00  0.00    +0.000 C 
ATOM     32  C   UNL     1       7.955  -6.028  -1.863  0.00  0.00    +0.002 C 
ATOM     33  C   UNL     1       6.738  -5.123  -2.064  0.00  0.00    +0.023 C 
ENDBRANCH   8  28
BRANCH   1  34
ATOM     34  C   UNL     1       4.164  -0.886   1.391  0.00  0.00    +0.350 C 
ATOM     35  O   UNL     1       3.488  -1.562   2.147  0.00  0.00    -0.248 OA
ATOM     36  O   UNL     1       5.210  -0.395   1.780  0.00  0.00    -0.248 OA
ENDBRANCH   1  34
TORSDOF 5
