REMARK  Name = ZINC64208421
REMARK  6 active torsions:
REMARK  status: ('A' for Active; 'I' for Inactive)
REMARK    1  A    between atoms: C_1  and  O_2
REMARK    2  A    between atoms: O_2  and  C_3
REMARK    3  A    between atoms: C_4  and  S_11
REMARK    4  A    between atoms: S_11  and  N_14
REMARK    5  A    between atoms: N_14  and  N_15
REMARK    6  A    between atoms: C_16  and  C_18
REMARK                            x       y       z     vdW  Elec       q    Type
REMARK                         _______ _______ _______ _____ _____    ______ ____
ROOT
ATOM      1  N   UNL     1       2.285  -1.390  -1.727  0.00  0.00    -0.108 NA
ATOM      2  H   UNL     1       2.862  -2.005  -2.207  0.00  0.00    +0.172 HD
ENDROOT
BRANCH   1   3
ATOM      3  N   UNL     1       0.937  -1.269  -2.089  0.00  0.00    -0.228 N 
ATOM      4  C   UNL     1       0.604  -0.972  -3.361  0.00  0.00    +0.257 C 
ATOM      5  O   UNL     1       1.475  -0.809  -4.195  0.00  0.00    -0.269 OA
ATOM      6  H   UNL     1       0.243  -1.399  -1.424  0.00  0.00    +0.171 HD
BRANCH   4   7
ATOM      7  C   UNL     1      -0.807  -0.846  -3.739  0.00  0.00    +0.044 C 
ATOM      8  C   UNL     1      -1.311  -0.555  -4.988  0.00  0.00    +0.008 A 
ATOM      9  C   UNL     1      -0.696  -0.296  -6.239  0.00  0.00    +0.010 A 
ATOM     10  C   UNL     1      -1.452  -0.032  -7.326  0.00  0.00    +0.001 A 
ATOM     11  C   UNL     1      -2.855   0.000  -7.280  0.00  0.00    +0.002 A 
ATOM     12  C   UNL     1      -3.538  -0.232  -6.138  0.00  0.00    +0.026 A 
ATOM     13  C   UNL     1      -2.792  -0.528  -4.905  0.00  0.00    +0.043 A 
ATOM     14  N   UNL     1      -3.186  -0.785  -3.690  0.00  0.00    -0.380 N 
ATOM     15  C   UNL     1      -2.013  -1.014  -2.841  0.00  0.00    +0.154 C 
ATOM     16  H   UNL     1      -4.109  -0.822  -3.394  0.00  0.00    +0.160 HD
ENDBRANCH   4   7
ENDBRANCH   1   3
BRANCH   1  17
ATOM     17  S   UNL     1       2.893  -0.485  -0.481  0.00  0.00    +0.077 S 
ATOM     18  O   UNL     1       2.581   0.870  -0.774  0.00  0.00    -0.152 OA
ATOM     19  O   UNL     1       4.224  -0.931  -0.266  0.00  0.00    -0.152 OA
BRANCH  17  21
ATOM     20  C   UNL     1       0.626  -0.619   1.042  0.00  0.00    +0.160 A 
ATOM     21  C   UNL     1       1.980  -0.910   0.965  0.00  0.00    +0.151 A 
ATOM     22  C   UNL     1       2.612  -1.534   2.023  0.00  0.00    +0.052 A 
ATOM     23  C   UNL     1       1.896  -1.869   3.159  0.00  0.00    +0.044 A 
ATOM     24  C   UNL     1       0.546  -1.580   3.238  0.00  0.00    +0.039 A 
ATOM     25  C   UNL     1      -0.090  -0.950   2.184  0.00  0.00    +0.063 A 
ATOM     26 BR   UNL     1      -1.934  -0.548   2.295  0.00  0.00    -0.046 Br
ATOM     27 CL   UNL     1       2.694  -2.654   4.486  0.00  0.00    -0.083 Cl
BRANCH  20  29
ATOM     28  C   UNL     1      -0.017   1.425   0.010  0.00  0.00    +0.277 C 
ATOM     29  O   UNL     1       0.002  -0.004   0.002  0.00  0.00    -0.492 OA
ENDBRANCH  20  29
ENDBRANCH  17  21
ENDBRANCH   1  17
TORSDOF 5
