REMARK  Name = ZINC40588077
REMARK  7 active torsions:
REMARK  status: ('A' for Active; 'I' for Inactive)
REMARK    1  A    between atoms: C_3  and  N_30
REMARK    2  A    between atoms: C_6  and  C_7
REMARK    3  A    between atoms: C_7  and  C_8
REMARK    4  A    between atoms: N_10  and  N_11
REMARK    5  A    between atoms: C_13  and  N_27
REMARK    6  A    between atoms: C_14  and  N_18
REMARK    7  A    between atoms: N_18  and  C_19
REMARK                            x       y       z     vdW  Elec       q    Type
REMARK                         _______ _______ _______ _____ _____    ______ ____
ROOT
ATOM      1  N   UNL     1      -3.522  -1.614  -2.946  0.00  0.00    -0.246 N 
ATOM      2  C   UNL     1      -4.569  -2.487  -3.202  0.00  0.00    +0.171 A 
ATOM      3  C   UNL     1      -5.003  -2.704  -4.507  0.00  0.00    +0.207 A 
ATOM      4  C   UNL     1      -6.057  -3.589  -4.711  0.00  0.00    +0.159 A 
ATOM      5  N   UNL     1      -6.609  -4.192  -3.659  0.00  0.00    -0.218 NA
ATOM      6  C   UNL     1      -6.169  -3.959  -2.439  0.00  0.00    +0.225 A 
ATOM      7  N   UNL     1      -5.170  -3.133  -2.205  0.00  0.00    -0.217 NA
ATOM      8  H   UNL     1      -3.090  -1.147  -3.678  0.00  0.00    +0.172 HD
ENDROOT
BRANCH   1  11
ATOM      9  C   UNL     1      -2.072  -0.560  -1.380  0.00  0.00    +0.233 C 
ATOM     10  O   UNL     1      -1.531   0.024  -2.295  0.00  0.00    -0.274 OA
ATOM     11  N   UNL     1      -3.089  -1.408  -1.629  0.00  0.00    -0.235 N 
ATOM     12  H   UNL     1      -3.522  -1.875  -0.897  0.00  0.00    +0.173 HD
BRANCH   9  13
ATOM     13  C   UNL     1      -1.606  -0.337   0.036  0.00  0.00    +0.132 C 
BRANCH  13  19
ATOM     14  C   UNL     1      -0.722   2.001   0.158  0.00  0.00    +0.006 A 
ATOM     15  C   UNL     1       0.324   2.905   0.162  0.00  0.00    +0.033 A 
ATOM     16  C   UNL     1       1.626   2.455   0.050  0.00  0.00    +0.126 A 
ATOM     17  C   UNL     1       1.882   1.102  -0.067  0.00  0.00    +0.033 A 
ATOM     18  C   UNL     1       0.837   0.198  -0.070  0.00  0.00    +0.006 A 
ATOM     19  C   UNL     1      -0.466   0.648   0.041  0.00  0.00    -0.038 A 
BRANCH  16  20
ATOM     20  N   UNL     1       2.746   3.423   0.054  0.00  0.00    +0.056 N 
ATOM     21  O   UNL     1       2.522   4.607   0.155  0.00  0.00    -0.126 OA
ATOM     22  O   UNL     1       3.885   3.030  -0.045  0.00  0.00    -0.126 OA
ENDBRANCH  16  20
ENDBRANCH  13  19
ENDBRANCH   9  13
ENDBRANCH   1  11
BRANCH   3  23
ATOM     23  N   UNL     1      -4.361  -2.011  -5.646  0.00  0.00    +0.063 N 
ATOM     24  O   UNL     1      -3.417  -2.518  -6.207  0.00  0.00    -0.126 OA
ATOM     25  O   UNL     1      -4.780  -0.939  -6.016  0.00  0.00    -0.126 OA
ENDBRANCH   3  23
BRANCH   4  26
ATOM     26  N   UNL     1      -6.527  -3.839  -5.992  0.00  0.00    -0.297 N 
ATOM     27  H   UNL     1      -6.069  -3.462  -6.759  0.00  0.00    +0.154 HD
BRANCH  26  28
ATOM     28  C   UNL     1      -7.662  -4.635  -6.177  0.00  0.00    +0.035 A 
ATOM     29  C   UNL     1      -7.740  -5.491  -7.268  0.00  0.00    +0.043 A 
ATOM     30  C   UNL     1      -8.863  -6.277  -7.448  0.00  0.00    +0.044 A 
ATOM     31  C   UNL     1      -9.908  -6.212  -6.543  0.00  0.00    +0.040 A 
ATOM     32  C   UNL     1      -9.832  -5.360  -5.456  0.00  0.00    +0.044 A 
ATOM     33  C   UNL     1      -8.710  -4.575  -5.268  0.00  0.00    +0.043 A 
ATOM     34 CL   UNL     1     -11.145  -5.281  -4.323  0.00  0.00    -0.083 Cl
ATOM     35 CL   UNL     1      -8.962  -7.347  -8.812  0.00  0.00    -0.083 Cl
ENDBRANCH  26  28
ENDBRANCH   4  26
TORSDOF 7
