REMARK  Name = ZINC43764320
REMARK  15 active torsions:
REMARK  status: ('A' for Active; 'I' for Inactive)
REMARK    1  A    between atoms: C_1  and  C_2
REMARK    2  A    between atoms: C_2  and  C_3
REMARK    3  A    between atoms: C_2  and  C_4
REMARK    4  A    between atoms: C_8  and  C_40
REMARK    5  A    between atoms: C_17  and  C_39
REMARK    6  A    between atoms: C_20  and  O_35
REMARK    7  A    between atoms: C_22  and  C_33
REMARK    8  A    between atoms: C_22  and  C_34
REMARK    9  A    between atoms: C_27  and  C_32
REMARK   10  A    between atoms: C_28  and  C_31
REMARK   11  A    between atoms: O_35  and  C_36
REMARK   12  A    between atoms: C_36  and  C_38
REMARK   13  A    between atoms: C_40  and  C_41
REMARK   14  A    between atoms: C_41  and  O_42
REMARK   15  A    between atoms: O_42  and  N_43
REMARK                            x       y       z     vdW  Elec       q    Type
REMARK                         _______ _______ _______ _____ _____    ______ ____
ROOT
ATOM      1  C   UNL     1      -2.088  -0.287  -0.621  0.00  0.00    -0.004 C 
ATOM      2  C   UNL     1      -1.841  -1.808  -0.519  0.00  0.00    +0.004 C 
ATOM      3  C   UNL     1      -2.012  -2.329  -1.960  0.00  0.00    +0.007 C 
ATOM      4  C   UNL     1      -3.125  -1.423  -2.571  0.00  0.00    -0.023 C 
ATOM      5  C   UNL     1      -2.959  -0.081  -1.861  0.00  0.00    +0.002 C 
ATOM      6  C   UNL     1      -4.212   0.720  -1.627  0.00  0.00    -0.001 C 
ATOM      7  C   UNL     1      -3.977   1.888  -0.672  0.00  0.00    +0.005 C 
ATOM      8  C   UNL     1      -5.210   2.788  -0.685  0.00  0.00    +0.005 C 
ATOM      9  C   UNL     1      -6.471   2.045  -0.255  0.00  0.00    +0.002 C 
ATOM     10  C   UNL     1      -6.679   2.122   1.248  0.00  0.00    -0.025 C 
ATOM     11  C   UNL     1      -5.345   1.961   1.964  0.00  0.00    +0.011 C 
ATOM     12  C   UNL     1      -5.522   2.094   3.479  0.00  0.00    +0.046 C 
ATOM     13  C   UNL     1      -6.451   0.972   3.937  0.00  0.00    +0.182 C 
ATOM     14  C   UNL     1      -7.831   1.119   3.301  0.00  0.00    +0.005 C 
ATOM     15  C   UNL     1      -7.784   1.236   1.783  0.00  0.00    +0.004 C 
ATOM     16  C   UNL     1      -7.818  -0.140   1.136  0.00  0.00    +0.005 C 
ATOM     17  C   UNL     1      -7.789  -0.092  -0.379  0.00  0.00    +0.008 C 
ATOM     18  C   UNL     1      -6.650   0.730  -0.968  0.00  0.00    -0.023 C 
ATOM     19  C   UNL     1      -5.396  -0.112  -1.153  0.00  0.00    -0.023 C 
ATOM     20  C   UNL     1      -5.633  -1.179  -2.239  0.00  0.00    +0.008 C 
ATOM     21  C   UNL     1      -4.444  -2.130  -2.265  0.00  0.00    +0.008 C 
ATOM     22  C   UNL     1      -5.041  -0.849   0.141  0.00  0.00    +0.012 C 
ATOM     23  C   UNL     1      -7.154   1.117  -2.398  0.00  0.00    +0.012 C 
ATOM     24  C   UNL     1      -8.557   2.318   3.926  0.00  0.00    +0.015 C 
ATOM     25  C   UNL     1      -8.646  -0.127   3.717  0.00  0.00    +0.015 C 
ATOM     26  C   UNL     1      -7.128   3.599   1.485  0.00  0.00    +0.012 C 
ENDROOT
BRANCH   1  28
ATOM     27  C   UNL     1      -0.975   1.931  -0.950  0.00  0.00    +0.007 C 
ATOM     28  C   UNL     1      -0.741   0.425  -0.808  0.00  0.00    -0.014 C 
ATOM     29  C   UNL     1       0.149   0.160   0.408  0.00  0.00    +0.007 C 
ENDBRANCH   1  28
BRANCH  13  30
ATOM     30  O   UNL     1      -5.885  -0.292   3.572  0.00  0.00    -0.461 OA
BRANCH  30  31
ATOM     31  C   UNL     1      -5.071  -0.875   4.466  0.00  0.00    +0.304 C 
ATOM     32  O   UNL     1      -4.846  -0.334   5.522  0.00  0.00    -0.251 OA
ATOM     33  C   UNL     1      -4.438  -2.207   4.151  0.00  0.00    +0.136 C 
ENDBRANCH  30  31
ENDBRANCH  13  30
BRANCH   4  34
ATOM     34  C   UNL     1      -2.927  -1.278  -4.094  0.00  0.00    +0.051 C 
BRANCH  34  35
ATOM     35  C   UNL     1      -2.930  -2.663  -4.743  0.00  0.00    +0.268 C 
BRANCH  35  36
ATOM     36  O   UNL     1      -2.642  -2.536  -6.137  0.00  0.00    -0.352 OA
BRANCH  36  37
ATOM     37  N   UNL     1      -2.621  -3.768  -6.835  0.00  0.00    +0.217 N 
ATOM     38  O   UNL     1      -2.835  -4.801  -6.245  0.00  0.00    -0.090 OA
ATOM     39  O   UNL     1      -2.388  -3.786  -8.021  0.00  0.00    -0.090 OA
ENDBRANCH  36  37
ENDBRANCH  35  36
ENDBRANCH  34  35
ENDBRANCH   4  34
TORSDOF 7
