REMARK  Name = ZINC58508434
REMARK  4 active torsions:
REMARK  status: ('A' for Active; 'I' for Inactive)
REMARK    1  A    between atoms: C_1  and  N_2
REMARK    2  A    between atoms: C_10  and  C_11
REMARK    3  A    between atoms: N_13  and  C_14
REMARK    4  A    between atoms: C_16  and  C_22
REMARK                            x       y       z     vdW  Elec       q    Type
REMARK                         _______ _______ _______ _____ _____    ______ ____
ROOT
ATOM      1  C   UNL     1       0.875   0.393   2.120  0.00  0.00    +0.266 C 
ATOM      2  O   UNL     1       1.822   0.103   2.827  0.00  0.00    -0.268 OA
ATOM      3  N   UNL     1      -0.103   1.188   2.597  0.00  0.00    -0.276 N 
ATOM      4  H   UNL     1      -0.889   1.366   2.057  0.00  0.00    +0.155 HD
ENDROOT
BRANCH   1  14
ATOM      5  C   UNL     1      -0.598  -2.175   1.244  0.00  0.00    +0.149 C 
ATOM      6  N   UNL     1       0.139  -1.272   0.356  0.00  0.00    -0.338 N 
ATOM      7  C   UNL     1       0.282  -1.427  -1.003  0.00  0.00    +0.051 A 
ATOM      8  C   UNL     1      -0.171  -2.385  -1.905  0.00  0.00    +0.026 A 
ATOM      9  C   UNL     1       0.140  -2.269  -3.241  0.00  0.00    +0.002 A 
ATOM     10  C   UNL     1       0.904  -1.203  -3.700  0.00  0.00    +0.001 A 
ATOM     11  C   UNL     1       1.360  -0.251  -2.834  0.00  0.00    +0.011 A 
ATOM     12  C   UNL     1       1.056  -0.347  -1.470  0.00  0.00    +0.019 A 
ATOM     13  C   UNL     1       1.369   0.456  -0.345  0.00  0.00    +0.079 A 
ATOM     14  C   UNL     1       0.799  -0.121   0.747  0.00  0.00    +0.124 A 
ATOM     15 CL   UNL     1       2.307   1.917  -0.359  0.00  0.00    -0.081 Cl
ENDBRANCH   1  14
BRANCH   3  16
ATOM     16  C   UNL     1       0.015   1.756   3.872  0.00  0.00    +0.099 A 
ATOM     17  C   UNL     1      -0.037   3.114   4.032  0.00  0.00    +0.042 A 
ATOM     18  C   UNL     1       0.083   3.656   5.319  0.00  0.00    +0.073 A 
ATOM     19  C   UNL     1       0.249   2.840   6.385  0.00  0.00    +0.098 A 
ATOM     20  N   UNL     1       0.301   1.490   6.228  0.00  0.00    -0.327 N 
ATOM     21  H   UNL     1       0.421   0.921   7.005  0.00  0.00    +0.168 HD
ATOM     22  C   UNL     1       0.183   0.934   5.007  0.00  0.00    +0.270 A 
ATOM     23  O   UNL     1       0.227  -0.280   4.882  0.00  0.00    -0.266 OA
BRANCH  18  24
ATOM     24  C   UNL     1       0.028   5.149   5.516  0.00  0.00    +0.419 C 
ATOM     25  F   UNL     1       0.169   5.446   6.876  0.00  0.00    -0.166 F 
ATOM     26  F   UNL     1       1.065   5.753   4.796  0.00  0.00    -0.166 F 
ATOM     27  F   UNL     1      -1.202   5.635   5.058  0.00  0.00    -0.166 F 
ENDBRANCH  18  24
ENDBRANCH   3  16
TORSDOF 3
