REMARK  Name = ZINC39491711
REMARK  14 active torsions:
REMARK  status: ('A' for Active; 'I' for Inactive)
REMARK    1  A    between atoms: C_1  and  C_2
REMARK    2  A    between atoms: C_2  and  C_3
REMARK    3  A    between atoms: C_3  and  N_4
REMARK    4  A    between atoms: N_4  and  C_5
REMARK    5  A    between atoms: C_5  and  C_6
REMARK    6  A    between atoms: N_8  and  C_19
REMARK    7  A    between atoms: C_12  and  C_15
REMARK    8  A    between atoms: C_15  and  O_17
REMARK    9  A    between atoms: O_17  and  C_18
REMARK   10  A    between atoms: C_19  and  C_20
REMARK   11  A    between atoms: C_20  and  C_22
REMARK   12  A    between atoms: C_20  and  S_28
REMARK   13  A    between atoms: S_28  and  O_31
REMARK   14  A    between atoms: O_31  and  C_32
REMARK                            x       y       z     vdW  Elec       q    Type
REMARK                         _______ _______ _______ _____ _____    ______ ____
ROOT
ATOM      1  C   UNL     1      -3.169  -3.728  -0.330  0.00  0.00    -0.039 A 
ATOM      2  C   UNL     1      -3.190  -4.620  -1.332  0.00  0.00    +0.088 A 
ATOM      3  N   UNL     1      -2.916  -5.871  -0.851  0.00  0.00    -0.344 N 
ATOM      4  C   UNL     1      -2.707  -5.817   0.506  0.00  0.00    +0.049 A 
ATOM      5  C   UNL     1      -2.850  -4.470   0.894  0.00  0.00    +0.002 A 
ATOM      6  C   UNL     1      -2.685  -4.109   2.228  0.00  0.00    +0.025 A 
ATOM      7  C   UNL     1      -2.376  -5.088   3.168  0.00  0.00    +0.060 A 
ATOM      8  C   UNL     1      -2.232  -6.424   2.768  0.00  0.00    +0.017 A 
ATOM      9  C   UNL     1      -2.402  -6.782   1.464  0.00  0.00    +0.027 A 
ENDROOT
BRANCH   7  10
ATOM     10  C   UNL     1      -2.198  -4.719   4.585  0.00  0.00    +0.339 C 
ATOM     11  O   UNL     1      -2.321  -3.561   4.932  0.00  0.00    -0.245 OA
BRANCH  10  12
ATOM     12  O   UNL     1      -1.898  -5.667   5.496  0.00  0.00    -0.464 OA
ATOM     13  C   UNL     1      -1.740  -5.239   6.850  0.00  0.00    +0.280 C 
ENDBRANCH  10  12
ENDBRANCH   7  10
BRANCH   1  14
ATOM     14  C   UNL     1      -3.420  -2.247  -0.441  0.00  0.00    -0.045 C 
BRANCH  14  15
ATOM     15  N   UNL     1      -2.136  -1.533  -0.461  0.00  0.00    +0.382 N 
ATOM     16  H   UNL     1      -1.592  -1.842  -1.252  0.00  0.00    -0.085 HD
ATOM     17  H   UNL     1      -1.631  -1.725   0.391  0.00  0.00    -0.085 HD
BRANCH  15  18
ATOM     18  C   UNL     1      -2.381  -0.088  -0.570  0.00  0.00    -0.082 C 
BRANCH  18  20
ATOM     19  C   UNL     1      -1.299   2.160  -0.704  0.00  0.00    +0.002 C 
ATOM     20  C   UNL     1      -1.044   0.655  -0.591  0.00  0.00    -0.022 C 
ENDBRANCH  18  20
ENDBRANCH  15  18
ENDBRANCH  14  15
ENDBRANCH   1  14
BRANCH   3  21
ATOM     21  C   UNL     1      -2.856  -7.089  -1.663  0.00  0.00    +0.156 C 
BRANCH  21  22
ATOM     22  C   UNL     1      -4.210  -7.800  -1.617  0.00  0.00    +0.221 C 
BRANCH  22  23
ATOM     23  C   UNL     1      -4.187  -8.985  -2.548  0.00  0.00    -0.018 A 
ATOM     24  C   UNL     1      -3.283 -10.010  -2.340  0.00  0.00    +0.006 A 
ATOM     25  C   UNL     1      -3.262 -11.097  -3.194  0.00  0.00    +0.000 A 
ATOM     26  C   UNL     1      -4.144 -11.159  -4.256  0.00  0.00    +0.000 A 
ATOM     27  C   UNL     1      -5.049 -10.134  -4.464  0.00  0.00    +0.000 A 
ATOM     28  C   UNL     1      -5.073  -9.049  -3.607  0.00  0.00    +0.006 A 
ENDBRANCH  22  23
BRANCH  22  29
ATOM     29  S   UNL     1      -4.538  -8.367   0.074  0.00  0.00    +0.129 S 
ATOM     30  O   UNL     1      -3.549  -9.303   0.478  0.00  0.00    -0.136 OA
ATOM     31  O   UNL     1      -4.872  -7.263   0.904  0.00  0.00    -0.136 OA
BRANCH  29  32
ATOM     32  O   UNL     1      -5.822  -9.178  -0.027  0.00  0.00    -0.346 OA
BRANCH  32  33
ATOM     33  C   UNL     1      -6.947  -8.422  -0.130  0.00  0.00    +0.156 A 
ATOM     34  C   UNL     1      -7.654  -8.069   1.011  0.00  0.00    +0.048 A 
ATOM     35  C   UNL     1      -8.796  -7.301   0.904  0.00  0.00    +0.004 A 
ATOM     36  C   UNL     1      -9.236  -6.882  -0.338  0.00  0.00    +0.000 A 
ATOM     37  C   UNL     1      -8.534  -7.232  -1.477  0.00  0.00    +0.004 A 
ATOM     38  C   UNL     1      -7.387  -7.996  -1.375  0.00  0.00    +0.048 A 
ENDBRANCH  32  33
ENDBRANCH  29  32
ENDBRANCH  22  29
ENDBRANCH  21  22
ENDBRANCH   3  21
TORSDOF 12
