REMARK  Name = ZINC36316018
REMARK  16 active torsions:
REMARK  status: ('A' for Active; 'I' for Inactive)
REMARK    1  A    between atoms: C_1  and  C_2
REMARK    2  A    between atoms: C_5  and  O_8
REMARK    3  A    between atoms: O_8  and  C_9
REMARK    4  A    between atoms: C_10  and  C_21
REMARK    5  A    between atoms: C_11  and  C_15
REMARK    6  A    between atoms: N_13  and  C_14
REMARK    7  A    between atoms: C_21  and  N_22
REMARK    8  A    between atoms: N_22  and  C_23
REMARK    9  A    between atoms: N_22  and  C_29
REMARK   10  A    between atoms: C_23  and  C_24
REMARK   11  A    between atoms: C_29  and  C_30
REMARK   12  A    between atoms: C_30  and  C_32
REMARK   13  A    between atoms: C_30  and  O_37
REMARK   14  A    between atoms: C_32  and  O_33
REMARK   15  A    between atoms: O_33  and  C_34
REMARK   16  A    between atoms: C_34  and  C_35
REMARK                            x       y       z     vdW  Elec       q    Type
REMARK                         _______ _______ _______ _____ _____    ______ ____
ROOT
ATOM      1  C   UNL     1       0.309  -4.569   1.982  0.00  0.00    +0.221 A 
ATOM      2  C   UNL     1       0.072  -5.895   1.814  0.00  0.00    +0.025 A 
ATOM      3  C   UNL     1      -0.512  -6.382   2.999  0.00  0.00    +0.098 A 
ATOM      4  N   UNL     1      -0.619  -5.379   3.845  0.00  0.00    -0.168 NA
ATOM      5  N   UNL     1      -0.104  -4.230   3.231  0.00  0.00    -0.235 N 
ATOM      6  C   UNL     1      -0.028  -2.895   3.830  0.00  0.00    +0.176 C 
ENDROOT
BRANCH   3   7
ATOM      7  C   UNL     1      -0.934  -7.782   3.251  0.00  0.00    +0.002 A 
ATOM      8  C   UNL     1      -1.618  -8.494   2.268  0.00  0.00    +0.010 A 
ATOM      9  C   UNL     1      -2.008  -9.796   2.507  0.00  0.00    +0.001 A 
ATOM     10  C   UNL     1      -1.720 -10.395   3.720  0.00  0.00    +0.000 A 
ATOM     11  C   UNL     1      -1.041  -9.694   4.699  0.00  0.00    +0.001 A 
ATOM     12  C   UNL     1      -0.642  -8.393   4.469  0.00  0.00    +0.010 A 
ENDBRANCH   3   7
BRANCH   1  13
ATOM     13  O   UNL     1       0.865  -3.733   1.069  0.00  0.00    -0.438 OA
BRANCH  13  18
ATOM     14  C   UNL     1      -2.590  -0.746  -2.228  0.00  0.00    +0.044 C 
ATOM     15  C   UNL     1      -1.665  -1.545  -1.346  0.00  0.00    -0.050 A 
ATOM     16  C   UNL     1      -0.300  -1.335  -1.407  0.00  0.00    +0.007 A 
ATOM     17  C   UNL     1       0.549  -2.067  -0.600  0.00  0.00    +0.046 A 
ATOM     18  C   UNL     1       0.031  -3.012   0.274  0.00  0.00    +0.130 A 
ATOM     19  C   UNL     1      -1.339  -3.221   0.334  0.00  0.00    +0.046 A 
ATOM     20  C   UNL     1      -2.185  -2.483  -0.472  0.00  0.00    +0.007 A 
ENDBRANCH  13  18
ENDBRANCH   1  13
BRANCH   2  21
ATOM     21  C   UNL     1       0.379  -6.702   0.579  0.00  0.00    -0.035 C 
BRANCH  21  22
ATOM     22  N   UNL     1       1.790  -7.112   0.600  0.00  0.00    +0.389 N 
ATOM     23  H   UNL     1       2.376  -6.294   0.671  0.00  0.00    -0.081 HD
BRANCH  22  24
ATOM     24  C   UNL     1       2.108  -7.836  -0.638  0.00  0.00    -0.003 C 
BRANCH  24  25
ATOM     25  C   UNL     1       1.863  -6.937  -1.823  0.00  0.00    +0.089 A 
ATOM     26  C   UNL     1       2.785  -6.171  -2.433  0.00  0.00    +0.042 A 
ATOM     27  C   UNL     1       2.126  -5.499  -3.488  0.00  0.00    +0.041 A 
ATOM     28  C   UNL     1       0.841  -5.894  -3.459  0.00  0.00    +0.195 A 
ATOM     29  O   UNL     1       0.688  -6.770  -2.452  0.00  0.00    -0.470 OA
ENDBRANCH  24  25
ENDBRANCH  22  24
BRANCH  22  30
ATOM     30  C   UNL     1       2.029  -7.987   1.755  0.00  0.00    -0.044 C 
BRANCH  30  31
ATOM     31  C   UNL     1       3.531  -8.240   1.901  0.00  0.00    +0.124 C 
BRANCH  31  32
ATOM     32  O   UNL     1       3.985  -9.054   0.818  0.00  0.00    -0.391 OA
ATOM     33  H   UNL     1       3.554  -9.918   0.768  0.00  0.00    +0.210 HD
ENDBRANCH  31  32
BRANCH  31  34
ATOM     34  C   UNL     1       3.800  -8.957   3.226  0.00  0.00    +0.190 C 
BRANCH  34  35
ATOM     35  O   UNL     1       5.210  -9.089   3.417  0.00  0.00    -0.365 OA
BRANCH  35  36
ATOM     36  C   UNL     1       5.572  -9.749   4.632  0.00  0.00    +0.248 C 
BRANCH  36  37
ATOM     37  C   UNL     1       7.039  -9.831   4.727  0.00  0.00    -0.077 C 
ATOM     38  C   UNL     1       8.209  -9.896   4.804  0.00  0.00    +0.006 C 
ENDBRANCH  36  37
ENDBRANCH  35  36
ENDBRANCH  34  35
ENDBRANCH  31  34
ENDBRANCH  30  31
ENDBRANCH  22  30
ENDBRANCH  21  22
ENDBRANCH   2  21
TORSDOF 14
