REMARK  Name = ZINC32229626
REMARK  8 active torsions:
REMARK  status: ('A' for Active; 'I' for Inactive)
REMARK    1  A    between atoms: C_1  and  C_2
REMARK    2  A    between atoms: C_4  and  C_24
REMARK    3  A    between atoms: C_5  and  O_9
REMARK    4  A    between atoms: C_7  and  C_8
REMARK    5  A    between atoms: O_9  and  C_10
REMARK    6  A    between atoms: C_10  and  C_12
REMARK    7  A    between atoms: C_10  and  C_14
REMARK    8  A    between atoms: C_12  and  N_13
REMARK                            x       y       z     vdW  Elec       q    Type
REMARK                         _______ _______ _______ _____ _____    ______ ____
ROOT
ATOM      1  C   UNL     1      -3.567  -0.820   0.225  0.00  0.00    +0.186 C 
ENDROOT
BRANCH   1   2
ATOM      2  C   UNL     1      -2.292  -0.046   0.437  0.00  0.00    -0.006 A 
ATOM      3  C   UNL     1      -2.310   1.336   0.407  0.00  0.00    +0.011 A 
ATOM      4  C   UNL     1      -1.141   2.049   0.597  0.00  0.00    +0.050 A 
ATOM      5  C   UNL     1       0.052   1.379   0.825  0.00  0.00    +0.162 A 
ATOM      6  C   UNL     1       0.070  -0.010   0.858  0.00  0.00    +0.162 A 
ATOM      7  C   UNL     1      -1.106  -0.719   0.662  0.00  0.00    +0.056 A 
ATOM      8  O   UNL     1       1.229  -0.686   1.081  0.00  0.00    -0.485 OA
ATOM      9  C   UNL     1       2.446   0.045   0.898  0.00  0.00    +0.270 C 
ATOM     10  C   UNL     1       2.300   1.403   1.600  0.00  0.00    +0.270 C 
ATOM     11  O   UNL     1       1.195   2.095   1.009  0.00  0.00    -0.485 OA
ENDBRANCH   1   2
BRANCH   1  12
ATOM     12  O   UNL     1      -4.661  -0.103   0.801  0.00  0.00    -0.486 OA
BRANCH  12  17
ATOM     13  C   UNL     1      -8.820  -3.161   3.053  0.00  0.00    +0.044 C 
ATOM     14  C   UNL     1      -7.707  -2.343   2.451  0.00  0.00    -0.047 A 
ATOM     15  C   UNL     1      -7.715  -0.966   2.580  0.00  0.00    +0.010 A 
ATOM     16  C   UNL     1      -6.693  -0.214   2.034  0.00  0.00    -0.008 A 
ATOM     17  C   UNL     1      -5.665  -0.841   1.344  0.00  0.00    +0.124 A 
ATOM     18  C   UNL     1      -5.659  -2.222   1.216  0.00  0.00    +0.049 A 
ATOM     19  C   UNL     1      -6.681  -2.970   1.770  0.00  0.00    -0.044 A 
ATOM     20  C   UNL     1      -6.676  -4.470   1.630  0.00  0.00    +0.044 C 
ATOM     21  C   UNL     1      -6.698   1.286   2.181  0.00  0.00    +0.047 C 
ENDBRANCH  12  17
ENDBRANCH   1  12
BRANCH   1  22
ATOM     22  C   UNL     1      -3.810  -1.002  -1.275  0.00  0.00    -0.036 C 
BRANCH  22  23
ATOM     23  N   UNL     1      -5.053  -1.756  -1.482  0.00  0.00    +0.381 N 
ATOM     24  H   UNL     1      -5.228  -1.887  -2.560  0.00  0.00    -0.090 HD
ATOM     25  H   UNL     1      -5.895  -1.204  -1.039  0.00  0.00    -0.090 HD
ATOM     26  H   UNL     1      -4.968  -2.742  -1.002  0.00  0.00    -0.090 HD
ENDBRANCH  22  23
ENDBRANCH   1  22
TORSDOF 5
