REMARK  Name = ZINC34750127
REMARK  11 active torsions:
REMARK  status: ('A' for Active; 'I' for Inactive)
REMARK    1  A    between atoms: C_1  and  C_2
REMARK    2  A    between atoms: C_5  and  C_9
REMARK    3  A    between atoms: C_6  and  C_8
REMARK    4  A    between atoms: C_9  and  S_10
REMARK    5  A    between atoms: S_10  and  C_11
REMARK    6  A    between atoms: C_22  and  C_24
REMARK    7  A    between atoms: C_22  and  C_25
REMARK    8  A    between atoms: N_29  and  C_32
REMARK    9  A    between atoms: C_32  and  C_33
REMARK   10  A    between atoms: C_33  and  C_34
REMARK   11  A    between atoms: C_33  and  C_35
REMARK                            x       y       z     vdW  Elec       q    Type
REMARK                         _______ _______ _______ _____ _____    ______ ____
ROOT
ATOM      1  C   UNL     1       1.935  -6.162   0.425  0.00  0.00    +0.191 A 
ATOM      2  N   UNL     1       2.970  -6.986   0.316  0.00  0.00    -0.206 NA
ATOM      3  C   UNL     1       2.817  -8.284   0.112  0.00  0.00    +0.134 A 
ATOM      4  C   UNL     1       1.504  -8.821   0.005  0.00  0.00    +0.051 A 
ATOM      5  C   UNL     1       1.096 -10.207  -0.218  0.00  0.00    -0.020 A 
ATOM      6  C   UNL     1      -0.230 -10.456  -0.281  0.00  0.00    +0.021 A 
ATOM      7  S   UNL     1      -1.006  -8.882  -0.048  0.00  0.00    -0.071 S 
ATOM      8  C   UNL     1       0.454  -7.888   0.131  0.00  0.00    +0.115 A 
ATOM      9  N   UNL     1       0.689  -6.607   0.339  0.00  0.00    -0.215 NA
ATOM     10  C   UNL     1      -0.872 -11.790  -0.502  0.00  0.00    +0.203 C 
ATOM     11  O   UNL     1       0.144 -12.700  -0.952  0.00  0.00    -0.368 OA
ATOM     12  C   UNL     1       1.330 -12.671  -0.153  0.00  0.00    +0.068 C 
ATOM     13  C   UNL     1       2.086 -11.358  -0.380  0.00  0.00    +0.071 C 
ATOM     14  C   UNL     1       0.949 -12.788   1.324  0.00  0.00    +0.041 C 
ATOM     15  C   UNL     1       2.230 -13.847  -0.537  0.00  0.00    +0.041 C 
ATOM     16  N   UNL     1       3.921  -9.109   0.004  0.00  0.00    -0.318 N 
ATOM     17  C   UNL     1       4.475  -9.463  -1.312  0.00  0.00    +0.088 C 
ATOM     18  C   UNL     1       5.984  -9.196  -1.292  0.00  0.00    -0.060 C 
ATOM     19  N   UNL     1       6.592  -9.915  -0.165  0.00  0.00    +0.382 N 
ATOM     20  C   UNL     1       6.080  -9.381   1.103  0.00  0.00    -0.060 C 
ATOM     21  C   UNL     1       4.579  -9.653   1.202  0.00  0.00    +0.088 C 
ATOM     22  H   UNL     1       6.366 -10.896  -0.232  0.00  0.00    -0.082 HD
ENDROOT
BRANCH   1  23
ATOM     23  S   UNL     1       2.223  -4.444   0.695  0.00  0.00    -0.081 S 
BRANCH  23  24
ATOM     24  C   UNL     1       0.558  -3.729   0.784  0.00  0.00    +0.112 C 
BRANCH  24  29
ATOM     25  C   UNL     1       0.948   1.967   1.675  0.00  0.00    +0.044 C 
ATOM     26  C   UNL     1       0.847   0.481   1.443  0.00  0.00    -0.050 A 
ATOM     27  C   UNL     1       0.817  -0.016   0.153  0.00  0.00    +0.003 A 
ATOM     28  C   UNL     1       0.723  -1.379  -0.060  0.00  0.00    +0.005 A 
ATOM     29  C   UNL     1       0.660  -2.244   1.017  0.00  0.00    -0.034 A 
ATOM     30  C   UNL     1       0.691  -1.747   2.306  0.00  0.00    -0.046 A 
ATOM     31  C   UNL     1       0.789  -0.384   2.519  0.00  0.00    +0.007 A 
ATOM     32  C   UNL     1       0.622  -2.690   3.479  0.00  0.00    +0.044 C 
ENDBRANCH  24  29
ENDBRANCH  23  24
ENDBRANCH   1  23
BRANCH  19  33
ATOM     33  C   UNL     1       8.051  -9.748  -0.211  0.00  0.00    -0.076 C 
BRANCH  33  34
ATOM     34  C   UNL     1       8.605 -10.440  -1.458  0.00  0.00    -0.034 C 
ATOM     35  C   UNL     1      10.103 -10.154  -1.577  0.00  0.00    +0.005 C 
ATOM     36  C   UNL     1       8.381 -11.950  -1.345  0.00  0.00    +0.005 C 
ENDBRANCH  33  34
ENDBRANCH  19  33
TORSDOF 5
