REMARK  Name = ZINC06459127
REMARK  7 active torsions:
REMARK  status: ('A' for Active; 'I' for Inactive)
REMARK    1  A    between atoms: C_1  and  C_2
REMARK    2  A    between atoms: C_9  and  N_30
REMARK    3  A    between atoms: C_10  and  C_28
REMARK    4  A    between atoms: C_11  and  C_13
REMARK    5  A    between atoms: C_15  and  C_18
REMARK    6  A    between atoms: C_18  and  O_19
REMARK    7  A    between atoms: O_19  and  C_20
REMARK                            x       y       z     vdW  Elec       q    Type
REMARK                         _______ _______ _______ _____ _____    ______ ____
ROOT
ATOM      1  C   UNL     1      -0.150   5.408   3.088  0.00  0.00    +0.065 C 
ATOM      2  C   UNL     1      -1.556   5.457   2.546  0.00  0.00    +0.041 A 
ATOM      3  C   UNL     1      -1.913   5.341   1.258  0.00  0.00    +0.049 A 
ATOM      4  C   UNL     1      -3.319   5.445   1.182  0.00  0.00    +0.245 A 
ATOM      5  N   UNL     1      -3.776   5.616   2.388  0.00  0.00    -0.135 NA
ATOM      6  N   UNL     1      -2.685   5.628   3.271  0.00  0.00    -0.278 N 
ATOM      7  H   UNL     1      -2.735   5.743   4.263  0.00  0.00    +0.189 HD
ATOM      8  O   UNL     1      -3.984   5.367  -0.002  0.00  0.00    -0.421 OA
ATOM      9  C   UNL     1      -3.254   5.459  -1.131  0.00  0.00    +0.201 C 
ATOM     10  C   UNL     1      -1.909   5.363  -1.183  0.00  0.00    +0.099 C 
ATOM     11  C   UNL     1      -1.054   5.133   0.037  0.00  0.00    +0.108 C 
ENDROOT
BRANCH  11  12
ATOM     12  C   UNL     1      -0.518   3.725   0.025  0.00  0.00    +0.003 A 
ATOM     13  C   UNL     1       0.770   3.301   0.012  0.00  0.00    +0.019 A 
ATOM     14  C   UNL     1       1.029   1.944   0.003  0.00  0.00    -0.003 A 
ATOM     15  C   UNL     1      -0.013   1.076   0.008  0.00  0.00    +0.052 A 
ATOM     16  S   UNL     1      -1.415   2.181   0.019  0.00  0.00    -0.100 S 
BRANCH  14  17
ATOM     17  C   UNL     1       2.447   1.436  -0.012  0.00  0.00    +0.265 C 
BRANCH  17  18
ATOM     18  O   UNL     1       2.884   1.282  -1.364  0.00  0.00    -0.486 OA
BRANCH  18  19
ATOM     19  C   UNL     1       4.152   0.829  -1.556  0.00  0.00    +0.139 A 
ATOM     20  C   UNL     1       4.959   0.544  -0.465  0.00  0.00    +0.050 A 
ATOM     21  C   UNL     1       6.245   0.078  -0.661  0.00  0.00    +0.042 A 
ATOM     22  C   UNL     1       6.732  -0.093  -1.946  0.00  0.00    +0.125 A 
ATOM     23  C   UNL     1       5.930   0.195  -3.036  0.00  0.00    +0.062 A 
ATOM     24  C   UNL     1       4.641   0.656  -2.843  0.00  0.00    +0.085 A 
ATOM     25 CL   UNL     1       3.634   1.019  -4.210  0.00  0.00    -0.080 Cl
ATOM     26  F   UNL     1       7.992  -0.543  -2.135  0.00  0.00    -0.205 F 
ENDBRANCH  18  19
ENDBRANCH  17  18
ENDBRANCH  14  17
ENDBRANCH  11  12
BRANCH   9  27
ATOM     27  N   UNL     1      -3.925   5.665  -2.311  0.00  0.00    -0.328 N 
ATOM     28  H   UNL     1      -3.433   5.736  -3.143  0.00  0.00    +0.145 HD
ATOM     29  H   UNL     1      -4.892   5.739  -2.312  0.00  0.00    +0.145 HD
ENDBRANCH   9  27
BRANCH  10  30
ATOM     30  C   UNL     1      -1.264   5.485  -2.456  0.00  0.00    +0.101 C 
ATOM     31  N   UNL     1      -0.753   5.582  -3.465  0.00  0.00    -0.191 NA
ENDBRANCH  10  30
TORSDOF 6
