REMARK  Name = ZINC06532903
REMARK  6 active torsions:
REMARK  status: ('A' for Active; 'I' for Inactive)
REMARK    1  A    between atoms: C_5  and  C_7
REMARK    2  A    between atoms: C_10  and  S_13
REMARK    3  A    between atoms: N_11  and  N_12
REMARK    4  A    between atoms: S_13  and  C_14
REMARK    5  A    between atoms: C_14  and  C_15
REMARK    6  A    between atoms: N_17  and  C_18
REMARK                            x       y       z     vdW  Elec       q    Type
REMARK                         _______ _______ _______ _____ _____    ______ ____
ROOT
ATOM      1  S   UNL     1       0.141  -0.321  -2.777  0.00  0.00    -0.075 S 
ENDROOT
BRANCH   1   5
ATOM      2  C   UNL     1       0.024  -0.841   1.094  0.00  0.00    +0.184 A 
ATOM      3  N   UNL     1      -0.082  -2.067   0.635  0.00  0.00    -0.127 NA
ATOM      4  N   UNL     1      -0.053  -2.058  -0.650  0.00  0.00    -0.121 NA
ATOM      5  C   UNL     1       0.066  -0.826  -1.091  0.00  0.00    +0.209 A 
ATOM      6  N   UNL     1       0.126  -0.009   0.003  0.00  0.00    -0.224 N 
BRANCH   2  11
ATOM      7  C   UNL     1      -0.744   1.015   4.267  0.00  0.00    +0.001 A 
ATOM      8  C   UNL     1       0.045   0.334   5.177  0.00  0.00    +0.003 A 
ATOM      9  C   UNL     1       0.827  -0.729   4.764  0.00  0.00    +0.039 A 
ATOM     10  C   UNL     1       0.822  -1.121   3.439  0.00  0.00    +0.134 A 
ATOM     11  C   UNL     1       0.031  -0.433   2.514  0.00  0.00    +0.056 A 
ATOM     12  C   UNL     1      -0.755   0.639   2.940  0.00  0.00    +0.014 A 
ATOM     13  F   UNL     1       1.582  -2.163   3.037  0.00  0.00    -0.205 F 
ENDBRANCH   2  11
BRANCH   6  14
ATOM     14  N   UNL     1       0.254   1.351   0.011  0.00  0.00    -0.295 N 
ATOM     15  H   UNL     1       1.226   1.623   0.034  0.00  0.00    +0.163 HD
ATOM     16  H   UNL     1      -0.219   1.764  -0.779  0.00  0.00    +0.163 HD
ENDBRANCH   6  14
ENDBRANCH   1   5
BRANCH   1  17
ATOM     17  C   UNL     1       0.002  -1.931  -3.593  0.00  0.00    +0.173 C 
BRANCH  17  18
ATOM     18  C   UNL     1       0.044  -1.742  -5.088  0.00  0.00    +0.224 C 
ATOM     19  O   UNL     1       0.157  -0.629  -5.555  0.00  0.00    -0.275 OA
ATOM     20  N   UNL     1      -0.044  -2.810  -5.905  0.00  0.00    -0.309 N 
ATOM     21  H   UNL     1      -0.134  -3.701  -5.531  0.00  0.00    +0.149 HD
BRANCH  20  22
ATOM     22  C   UNL     1      -0.003  -2.627  -7.357  0.00  0.00    +0.035 C 
ATOM     23  C   UNL     1      -1.167  -1.733  -7.791  0.00  0.00    +0.029 C 
ATOM     24  C   UNL     1      -1.124  -1.541  -9.309  0.00  0.00    -0.008 C 
ATOM     25  C   UNL     1      -1.242  -2.902  -9.998  0.00  0.00    +0.007 C 
ATOM     26  C   UNL     1      -0.078  -3.795  -9.565  0.00  0.00    -0.008 C 
ATOM     27  C   UNL     1      -0.120  -3.987  -8.047  0.00  0.00    +0.029 C 
ATOM     28  C   UNL     1       1.246  -3.136  -9.958  0.00  0.00    +0.007 C 
ATOM     29  C   UNL     1       1.363  -1.776  -9.269  0.00  0.00    -0.008 C 
ATOM     30  C   UNL     1       0.199  -0.882  -9.703  0.00  0.00    +0.007 C 
ATOM     31  C   UNL     1       1.320  -1.967  -7.751  0.00  0.00    +0.029 C 
ENDBRANCH  20  22
ENDBRANCH  17  18
ENDBRANCH   1  17
TORSDOF 6
