REMARK  Name = ZINC00718187
REMARK  8 active torsions:
REMARK  status: ('A' for Active; 'I' for Inactive)
REMARK    1  A    between atoms: C_1  and  C_2
REMARK    2  A    between atoms: C_2  and  C_3
REMARK    3  A    between atoms: C_6  and  C_8
REMARK    4  A    between atoms: C_13  and  C_18
REMARK    5  A    between atoms: C_21  and  O_26
REMARK    6  A    between atoms: C_22  and  O_24
REMARK    7  A    between atoms: O_24  and  C_25
REMARK    8  A    between atoms: O_26  and  C_27
REMARK                            x       y       z     vdW  Elec       q    Type
REMARK                         _______ _______ _______ _____ _____    ______ ____
ROOT
ATOM      1  C   UNL     1       3.815   1.937   0.388  0.00  0.00    +0.143 C 
ATOM      2  C   UNL     1       2.466   1.276   0.541  0.00  0.00    +0.037 C 
ATOM      3  C   UNL     1       2.233   0.083   1.116  0.00  0.00    +0.017 C 
ATOM      4  C   UNL     1       0.819  -0.465   1.208  0.00  0.00    +0.059 C 
ATOM      5  C   UNL     1       0.002  -0.004   0.002  0.00  0.00    +0.032 C 
ATOM      6  C   UNL     1      -0.019   1.529   0.010  0.00  0.00    +0.088 C 
ATOM      7  C   UNL     1       1.396   2.026  -0.000  0.00  0.00    +0.163 C 
ATOM      8  O   UNL     1       1.632   3.112  -0.492  0.00  0.00    -0.292 OA
ATOM      9  N   UNL     1       3.188  -0.713   1.660  0.00  0.00    -0.316 N 
ATOM     10  C   UNL     1       4.402  -1.024   1.058  0.00  0.00    +0.052 A 
ATOM     11  C   UNL     1       4.750  -2.321   0.726  0.00  0.00    +0.025 A 
ATOM     12  C   UNL     1       6.019  -2.578   0.235  0.00  0.00    +0.002 A 
ATOM     13  C   UNL     1       6.928  -1.548   0.079  0.00  0.00    +0.002 A 
ATOM     14  C   UNL     1       6.573  -0.247   0.390  0.00  0.00    +0.025 A 
ATOM     15  C   UNL     1       5.298   0.016   0.864  0.00  0.00    +0.049 A 
ATOM     16  N   UNL     1       4.879   1.315   1.147  0.00  0.00    -0.331 N 
ATOM     17  H   UNL     1       3.011  -1.093   2.535  0.00  0.00    +0.152 HD
ATOM     18  H   UNL     1       5.306   1.810   1.863  0.00  0.00    +0.147 HD
ENDROOT
BRANCH   5  19
ATOM     19  C   UNL     1      -1.405  -0.534   0.103  0.00  0.00    -0.040 A 
ATOM     20  C   UNL     1      -2.183  -0.221   1.203  0.00  0.00    +0.008 A 
ATOM     21  C   UNL     1      -3.474  -0.705   1.300  0.00  0.00    +0.049 A 
ATOM     22  C   UNL     1      -3.991  -1.506   0.295  0.00  0.00    +0.161 A 
ATOM     23  C   UNL     1      -3.209  -1.821  -0.812  0.00  0.00    +0.162 A 
ATOM     24  C   UNL     1      -1.917  -1.329  -0.906  0.00  0.00    +0.053 A 
BRANCH  23  25
ATOM     25  O   UNL     1      -3.712  -2.607  -1.801  0.00  0.00    -0.491 OA
ATOM     26  C   UNL     1      -2.852  -2.889  -2.907  0.00  0.00    +0.277 C 
ENDBRANCH  23  25
BRANCH  22  27
ATOM     27  O   UNL     1      -5.261  -1.983   0.389  0.00  0.00    -0.491 OA
ATOM     28  C   UNL     1      -6.006  -1.618   1.553  0.00  0.00    +0.277 C 
ENDBRANCH  22  27
ENDBRANCH   5  19
BRANCH   1  32
ATOM     29  C   UNL     1       4.999   1.432  -3.599  0.00  0.00    -0.010 A 
ATOM     30  C   UNL     1       4.513   2.659  -3.287  0.00  0.00    +0.011 A 
ATOM     31  C   UNL     1       4.100   2.906  -1.991  0.00  0.00    +0.013 A 
ATOM     32  C   UNL     1       4.193   1.916  -1.071  0.00  0.00    +0.015 A 
ATOM     33  S   UNL     1       4.889   0.582  -2.033  0.00  0.00    -0.096 S 
BRANCH  29  35
ATOM     34  C   UNL     1       7.009   1.189  -5.030  0.00  0.00    +0.009 C 
ATOM     35  C   UNL     1       5.507   0.921  -4.922  0.00  0.00    +0.039 C 
ENDBRANCH  29  35
ENDBRANCH   1  32
TORSDOF 5
