REMARK  Name = ZINC08870702
REMARK  6 active torsions:
REMARK  status: ('A' for Active; 'I' for Inactive)
REMARK    1  A    between atoms: C_7  and  N_23
REMARK    2  A    between atoms: C_9  and  S_12
REMARK    3  A    between atoms: C_10  and  O_11
REMARK    4  A    between atoms: S_12  and  C_13
REMARK    5  A    between atoms: N_23  and  S_24
REMARK    6  A    between atoms: S_24  and  C_27
REMARK                            x       y       z     vdW  Elec       q    Type
REMARK                         _______ _______ _______ _____ _____    ______ ____
ROOT
ATOM      1  C   UNL     1       0.082  -2.747   0.534  0.00  0.00    +0.001 A 
ATOM      2  C   UNL     1      -1.117  -2.051   0.668  0.00  0.00    +0.001 A 
ATOM      3  C   UNL     1      -1.159  -0.697   0.539  0.00  0.00    +0.012 A 
ATOM      4  C   UNL     1       0.024   0.013   0.265  0.00  0.00    +0.026 A 
ATOM      5  C   UNL     1       1.243  -0.696   0.128  0.00  0.00    +0.008 A 
ATOM      6  C   UNL     1       1.247  -2.093   0.269  0.00  0.00    +0.010 A 
ATOM      7  C   UNL     1       2.433   0.011  -0.147  0.00  0.00    +0.057 A 
ATOM      8  C   UNL     1       2.397   1.381  -0.280  0.00  0.00    +0.044 A 
ATOM      9  C   UNL     1       1.195   2.081  -0.145  0.00  0.00    +0.059 A 
ATOM     10  C   UNL     1       0.015   1.413   0.125  0.00  0.00    +0.138 A 
ENDROOT
BRANCH  10  11
ATOM     11  O   UNL     1      -1.150   2.105   0.248  0.00  0.00    -0.505 OA
ATOM     12  H   UNL     1      -1.342   2.393   1.151  0.00  0.00    +0.292 HD
ENDBRANCH  10  11
BRANCH   7  13
ATOM     13  N   UNL     1       3.641  -0.675  -0.283  0.00  0.00    -0.216 N 
ATOM     14  H   UNL     1       3.656  -1.553  -0.695  0.00  0.00    +0.174 HD
BRANCH  13  15
ATOM     15  S   UNL     1       5.048   0.010   0.258  0.00  0.00    +0.072 S 
ATOM     16  O   UNL     1       6.064  -0.972   0.103  0.00  0.00    -0.150 OA
ATOM     17  O   UNL     1       5.132   1.295  -0.345  0.00  0.00    -0.150 OA
BRANCH  15  18
ATOM     18  C   UNL     1       4.866   0.277   1.990  0.00  0.00    +0.109 A 
ATOM     19  C   UNL     1       4.351   1.473   2.454  0.00  0.00    +0.031 A 
ATOM     20  C   UNL     1       4.203   1.682   3.812  0.00  0.00    +0.040 A 
ATOM     21  C   UNL     1       4.580   0.696   4.708  0.00  0.00    +0.124 A 
ATOM     22  C   UNL     1       5.099  -0.500   4.242  0.00  0.00    +0.040 A 
ATOM     23  C   UNL     1       5.242  -0.708   2.884  0.00  0.00    +0.031 A 
ATOM     24  F   UNL     1       4.440   0.901   6.036  0.00  0.00    -0.205 F 
ENDBRANCH  15  18
ENDBRANCH  13  15
ENDBRANCH   7  13
BRANCH   9  25
ATOM     25  S   UNL     1       1.183   3.834  -0.320  0.00  0.00    -0.048 S 
BRANCH  25  26
ATOM     26  C   UNL     1       0.502   3.975  -1.939  0.00  0.00    +0.172 A 
ATOM     27  N   UNL     1       0.348   5.145  -2.628  0.00  0.00    -0.333 N 
ATOM     28  H   UNL     1       0.597   6.059  -2.307  0.00  0.00    +0.168 HD
ATOM     29  C   UNL     1      -0.216   4.830  -3.853  0.00  0.00    +0.067 A 
ATOM     30  C   UNL     1      -0.598   5.577  -4.956  0.00  0.00    +0.028 A 
ATOM     31  C   UNL     1      -1.153   4.949  -6.053  0.00  0.00    +0.002 A 
ATOM     32  C   UNL     1      -1.332   3.574  -6.059  0.00  0.00    +0.002 A 
ATOM     33  C   UNL     1      -0.959   2.816  -4.971  0.00  0.00    +0.030 A 
ATOM     34  C   UNL     1      -0.395   3.436  -3.853  0.00  0.00    +0.090 A 
ATOM     35  N   UNL     1       0.061   2.973  -2.661  0.00  0.00    -0.222 NA
ENDBRANCH  25  26
ENDBRANCH   9  25
TORSDOF 6
