REMARK  Name = ZINC09375678
REMARK  13 active torsions:
REMARK  status: ('A' for Active; 'I' for Inactive)
REMARK    1  A    between atoms: C_1  and  C_2
REMARK    2  A    between atoms: C_2  and  C_3
REMARK    3  A    between atoms: C_3  and  C_5
REMARK    4  A    between atoms: C_3  and  N_59
REMARK    5  A    between atoms: C_8  and  S_17
REMARK    6  A    between atoms: N_9  and  C_10
REMARK    7  A    between atoms: C_10  and  C_11
REMARK    8  A    between atoms: S_17  and  C_18
REMARK    9  A    between atoms: C_18  and  C_20
REMARK   10  A    between atoms: C_18  and  C_21
REMARK   11  A    between atoms: N_23  and  C_24
REMARK   12  A    between atoms: C_33  and  N_59
REMARK   13  A    between atoms: C_34  and  N_59
REMARK                            x       y       z     vdW  Elec       q    Type
REMARK                         _______ _______ _______ _____ _____    ______ ____
ROOT
ATOM      1  C   UNL     1      -0.451  -3.423   1.330  0.00  0.00    +0.121 A 
ATOM      2  N   UNL     1       0.534  -2.723   0.843  0.00  0.00    -0.135 NA
ATOM      3  N   UNL     1       0.296  -1.468   0.984  0.00  0.00    -0.123 NA
ATOM      4  C   UNL     1      -0.864  -1.298   1.575  0.00  0.00    +0.193 A 
ATOM      5  N   UNL     1      -1.374  -2.541   1.820  0.00  0.00    -0.303 N 
ENDROOT
BRANCH   1   6
ATOM      6  C   UNL     1      -0.551  -4.927   1.356  0.00  0.00    +0.000 C 
BRANCH   6   9
ATOM      7  C   UNL     1       1.122  -4.962   3.106  0.00  0.00    -0.096 C 
ATOM      8  C   UNL     1       0.674  -6.963   1.819  0.00  0.00    -0.096 C 
ATOM      9  N   UNL     1       0.750  -5.488   1.776  0.00  0.00    +0.383 N 
ATOM     10  H   UNL     1       1.468  -5.211   1.095  0.00  0.00    -0.082 HD
ENDBRANCH   6   9
BRANCH   6  12
ATOM     11  C   UNL     1       0.249  -5.070  -1.006  0.00  0.00    +0.002 C 
ATOM     12  C   UNL     1      -0.884  -5.440  -0.047  0.00  0.00    -0.011 C 
ENDBRANCH   6  12
ENDBRANCH   1   6
BRANCH   5  13
ATOM     13  C   UNL     1      -2.648  -2.862   2.469  0.00  0.00    +0.160 C 
BRANCH  13  14
ATOM     14  C   UNL     1      -3.732  -2.955   1.427  0.00  0.00    -0.028 A 
ATOM     15  C   UNL     1      -4.461  -1.831   1.085  0.00  0.00    +0.005 A 
ATOM     16  C   UNL     1      -5.453  -1.916   0.126  0.00  0.00    +0.000 A 
ATOM     17  C   UNL     1      -5.723  -3.127  -0.484  0.00  0.00    +0.000 A 
ATOM     18  C   UNL     1      -4.998  -4.252  -0.139  0.00  0.00    +0.000 A 
ATOM     19  C   UNL     1      -4.003  -4.166   0.817  0.00  0.00    +0.005 A 
ENDBRANCH  13  14
ENDBRANCH   5  13
BRANCH   4  20
ATOM     20  S   UNL     1      -1.616   0.242   1.982  0.00  0.00    -0.074 S 
BRANCH  20  21
ATOM     21  C   UNL     1      -0.355   1.382   1.361  0.00  0.00    +0.137 C 
ATOM     22  C   UNL     1      -0.252   1.249  -0.159  0.00  0.00    +0.029 C 
BRANCH  21  23
ATOM     23  C   UNL     1      -0.737   2.796   1.717  0.00  0.00    +0.230 C 
ATOM     24  O   UNL     1      -1.887   3.062   1.992  0.00  0.00    -0.274 OA
ATOM     25  N   UNL     1       0.201   3.764   1.730  0.00  0.00    -0.282 N 
ATOM     26  H   UNL     1       1.103   3.570   1.430  0.00  0.00    +0.155 HD
BRANCH  25  27
ATOM     27  C   UNL     1      -0.127   5.051   2.176  0.00  0.00    +0.072 A 
ATOM     28  C   UNL     1      -1.248   5.247   2.971  0.00  0.00    +0.029 A 
ATOM     29  C   UNL     1      -1.571   6.516   3.411  0.00  0.00    +0.043 A 
ATOM     30  C   UNL     1      -0.778   7.595   3.060  0.00  0.00    +0.161 A 
ATOM     31  C   UNL     1       0.342   7.405   2.265  0.00  0.00    +0.195 A 
ATOM     32  C   UNL     1       0.672   6.133   1.827  0.00  0.00    +0.182 A 
ATOM     33  F   UNL     1       1.767   5.946   1.058  0.00  0.00    -0.200 F 
ATOM     34  F   UNL     1       1.115   8.459   1.923  0.00  0.00    -0.199 F 
ATOM     35  F   UNL     1      -1.095   8.835   3.493  0.00  0.00    -0.202 F 
ENDBRANCH  25  27
ENDBRANCH  21  23
ENDBRANCH  20  21
ENDBRANCH   4  20
TORSDOF 9
