REMARK  Name = ZINC12749590
REMARK  8 active torsions:
REMARK  status: ('A' for Active; 'I' for Inactive)
REMARK    1  A    between atoms: C_1  and  C_2
REMARK    2  A    between atoms: C_2  and  C_4
REMARK    3  A    between atoms: C_2  and  N_12
REMARK    4  A    between atoms: N_15  and  C_16
REMARK    5  A    between atoms: C_16  and  C_18
REMARK    6  A    between atoms: C_16  and  C_29
REMARK    7  A    between atoms: C_29  and  C_30
REMARK    8  A    between atoms: C_29  and  C_31
REMARK                            x       y       z     vdW  Elec       q    Type
REMARK                         _______ _______ _______ _____ _____    ______ ____
ROOT
ATOM      1  N   UNL     1      -1.372  -0.511   0.012  0.00  0.00    -0.293 N 
ATOM      2  C   UNL     1      -2.051  -0.643  -1.145  0.00  0.00    +0.301 C 
ATOM      3  O   UNL     1      -1.522  -0.341  -2.197  0.00  0.00    -0.253 OA
ATOM      4  N   UNL     1      -3.315  -1.109  -1.135  0.00  0.00    -0.292 N 
ATOM      5  H   UNL     1      -1.794  -0.752   0.852  0.00  0.00    +0.151 HD
ATOM      6  H   UNL     1      -3.737  -1.350  -0.295  0.00  0.00    +0.151 HD
ENDROOT
BRANCH   1   8
ATOM      7  C   UNL     1      -0.019   1.526   0.010  0.00  0.00    +0.033 C 
ATOM      8  C   UNL     1       0.002  -0.004   0.002  0.00  0.00    +0.102 C 
BRANCH   8   9
ATOM      9  C   UNL     1       0.731  -0.503   1.223  0.00  0.00    -0.025 A 
ATOM     10  C   UNL     1       0.080  -0.558   2.441  0.00  0.00    +0.008 A 
ATOM     11  C   UNL     1       0.746  -1.016   3.562  0.00  0.00    +0.041 A 
ATOM     12  C   UNL     1       2.067  -1.420   3.466  0.00  0.00    +0.158 A 
ATOM     13  C   UNL     1       2.719  -1.365   2.244  0.00  0.00    +0.159 A 
ATOM     14  C   UNL     1       2.048  -0.911   1.122  0.00  0.00    +0.046 A 
ATOM     15  F   UNL     1       4.008  -1.759   2.147  0.00  0.00    -0.202 F 
ATOM     16  F   UNL     1       2.719  -1.867   4.562  0.00  0.00    -0.202 F 
ENDBRANCH   8   9
ENDBRANCH   1   8
BRANCH   4  17
ATOM     17  C   UNL     1      -4.053  -1.252  -2.393  0.00  0.00    +0.107 C 
BRANCH  17  18
ATOM     18  C   UNL     1      -5.120  -2.304  -2.232  0.00  0.00    -0.023 A 
ATOM     19  C   UNL     1      -5.849  -2.373  -1.060  0.00  0.00    +0.009 A 
ATOM     20  C   UNL     1      -6.831  -3.336  -0.906  0.00  0.00    +0.050 A 
ATOM     21  C   UNL     1      -7.080  -4.231  -1.932  0.00  0.00    +0.162 A 
ATOM     22  C   UNL     1      -6.348  -4.162  -3.108  0.00  0.00    +0.162 A 
ATOM     23  C   UNL     1      -5.370  -3.195  -3.261  0.00  0.00    +0.055 A 
ATOM     24  O   UNL     1      -6.603  -5.050  -4.114  0.00  0.00    -0.488 OA
ATOM     25  C   UNL     1      -6.252  -6.410  -3.851  0.00  0.00    +0.232 C 
ATOM     26  C   UNL     1      -7.364  -7.118  -3.095  0.00  0.00    +0.082 C 
ATOM     27  C   UNL     1      -7.585  -6.535  -1.708  0.00  0.00    +0.232 C 
ATOM     28  O   UNL     1      -8.047  -5.185  -1.793  0.00  0.00    -0.488 OA
ENDBRANCH  17  18
BRANCH  17  29
ATOM     29  C   UNL     1      -4.704   0.084  -2.757  0.00  0.00    +0.008 C 
ATOM     30  C   UNL     1      -3.621   1.152  -2.919  0.00  0.00    +0.009 C 
ATOM     31  C   UNL     1      -5.474  -0.066  -4.070  0.00  0.00    +0.009 C 
ENDBRANCH  17  29
ENDBRANCH   4  17
TORSDOF 5
