REMARK  Name = ZINC39709977
REMARK  7 active torsions:
REMARK  status: ('A' for Active; 'I' for Inactive)
REMARK    1  A    between atoms: C_4  and  C_7
REMARK    2  A    between atoms: C_8  and  C_9
REMARK    3  A    between atoms: N_10  and  C_11
REMARK    4  A    between atoms: C_14  and  C_17
REMARK    5  A    between atoms: C_23  and  N_27
REMARK    6  A    between atoms: C_28  and  C_29
REMARK    7  A    between atoms: C_30  and  C_31
REMARK                            x       y       z     vdW  Elec       q    Type
REMARK                         _______ _______ _______ _____ _____    ______ ____
ROOT
ATOM      1  C   UNL     1      12.062  -6.497  -1.243  0.00  0.00    +0.206 C 
ATOM      2  N   UNL     1      12.622  -6.812  -2.562  0.00  0.00    -0.360 N 
ATOM      3  C   UNL     1      12.395  -8.073  -2.796  0.00  0.00    +0.061 A 
ATOM      4  C   UNL     1      12.723  -8.935  -3.943  0.00  0.00    +0.029 A 
ATOM      5  C   UNL     1      12.362 -10.230  -3.925  0.00  0.00    +0.030 A 
ATOM      6  C   UNL     1      11.647 -10.802  -2.781  0.00  0.00    +0.066 A 
ATOM      7  C   UNL     1      11.316 -10.037  -1.685  0.00  0.00    +0.055 A 
ATOM      8  C   UNL     1      11.668  -8.666  -1.642  0.00  0.00    +0.062 A 
ATOM      9  N   UNL     1      11.475  -7.742  -0.733  0.00  0.00    -0.360 N 
ATOM     10  H   UNL     1      13.079  -6.194  -3.153  0.00  0.00    +0.162 HD
ATOM     11  H   UNL     1      11.027  -7.859   0.120  0.00  0.00    +0.162 HD
ENDROOT
BRANCH   1  15
ATOM     12  C   UNL     1       9.039  -3.494  -1.613  0.00  0.00    +0.064 A 
ATOM     13  C   UNL     1      10.133  -3.501  -2.483  0.00  0.00    +0.028 A 
ATOM     14  C   UNL     1      11.104  -4.472  -2.358  0.00  0.00    +0.009 A 
ATOM     15  C   UNL     1      10.997  -5.439  -1.373  0.00  0.00    -0.005 A 
ATOM     16  C   UNL     1       9.917  -5.439  -0.508  0.00  0.00    +0.009 A 
ATOM     17  C   UNL     1       8.941  -4.470  -0.618  0.00  0.00    +0.028 A 
BRANCH  12  19
ATOM     18  C   UNL     1       8.413  -1.283  -1.904  0.00  0.00    +0.111 C 
ATOM     19  N   UNL     1       8.074  -2.535  -1.731  0.00  0.00    -0.256 NA
BRANCH  18  21
ATOM     20  C   UNL     1       7.765   1.002  -2.205  0.00  0.00    +0.009 C 
ATOM     21  C   UNL     1       7.414  -0.290  -2.027  0.00  0.00    +0.020 C 
BRANCH  20  25
ATOM     22  C   UNL     1       4.767   3.981  -2.573  0.00  0.00    +0.000 A 
ATOM     23  C   UNL     1       6.103   4.337  -2.637  0.00  0.00    +0.001 A 
ATOM     24  C   UNL     1       7.084   3.375  -2.518  0.00  0.00    +0.008 A 
ATOM     25  C   UNL     1       6.725   2.035  -2.333  0.00  0.00    -0.025 A 
ATOM     26  C   UNL     1       5.373   1.683  -2.270  0.00  0.00    +0.008 A 
ATOM     27  C   UNL     1       4.404   2.658  -2.390  0.00  0.00    +0.001 A 
ENDBRANCH  20  25
ENDBRANCH  18  21
ENDBRANCH  12  19
ENDBRANCH   1  15
BRANCH   6  28
ATOM     28  N   UNL     1      11.300 -12.116  -2.804  0.00  0.00    -0.255 NA
ATOM     29  C   UNL     1      10.768 -12.636  -3.884  0.00  0.00    +0.111 C 
BRANCH  29  30
ATOM     30  C   UNL     1      10.409 -13.999  -3.908  0.00  0.00    +0.020 C 
ATOM     31  C   UNL     1       9.754 -14.508  -4.978  0.00  0.00    +0.009 C 
BRANCH  31  32
ATOM     32  C   UNL     1       9.268 -13.613  -6.037  0.00  0.00    -0.025 A 
ATOM     33  C   UNL     1       9.223 -14.053  -7.365  0.00  0.00    +0.008 A 
ATOM     34  C   UNL     1       8.766 -13.206  -8.352  0.00  0.00    +0.001 A 
ATOM     35  C   UNL     1       8.352 -11.924  -8.034  0.00  0.00    +0.000 A 
ATOM     36  C   UNL     1       8.393 -11.481  -6.723  0.00  0.00    +0.001 A 
ATOM     37  C   UNL     1       8.842 -12.317  -5.722  0.00  0.00    +0.008 A 
ENDBRANCH  31  32
ENDBRANCH  29  30
ENDBRANCH   6  28
TORSDOF 7
