REMARK  Name = ZINC11898352
REMARK  8 active torsions:
REMARK  status: ('A' for Active; 'I' for Inactive)
REMARK    1  A    between atoms: C_1  and  N_2
REMARK    2  A    between atoms: C_6  and  C_7
REMARK    3  A    between atoms: C_7  and  C_9
REMARK    4  A    between atoms: C_7  and  N_58
REMARK    5  A    between atoms: C_9  and  N_10
REMARK    6  A    between atoms: C_11  and  C_13
REMARK    7  A    between atoms: N_15  and  C_16
REMARK    8  A    between atoms: C_19  and  N_22
REMARK                            x       y       z     vdW  Elec       q    Type
REMARK                         _______ _______ _______ _____ _____    ______ ____
ROOT
ATOM      1  C   UNL     1       5.061  -6.832  -0.484  0.00  0.00    -0.003 C 
ENDROOT
BRANCH   1  11
ATOM      2  C   UNL     1       6.084  -4.822  -1.369  0.00  0.00    -0.073 C 
ATOM      3  C   UNL     1       7.135  -4.363  -2.380  0.00  0.00    +0.017 C 
ATOM      4  C   UNL     1       6.712  -4.750  -3.774  0.00  0.00    -0.048 A 
ATOM      5  C   UNL     1       7.331  -4.131  -4.849  0.00  0.00    +0.004 A 
ATOM      6  C   UNL     1       6.980  -4.463  -6.142  0.00  0.00    +0.000 A 
ATOM      7  C   UNL     1       6.004  -5.417  -6.366  0.00  0.00    +0.000 A 
ATOM      8  C   UNL     1       5.386  -6.032  -5.297  0.00  0.00    +0.002 A 
ATOM      9  C   UNL     1       5.737  -5.699  -3.997  0.00  0.00    -0.061 A 
ATOM     10  C   UNL     1       5.031  -6.394  -2.863  0.00  0.00    -0.042 C 
ATOM     11  N   UNL     1       5.810  -6.251  -1.621  0.00  0.00    +0.389 N 
ATOM     12  H   UNL     1       6.701  -6.750  -1.725  0.00  0.00    -0.080 HD
ENDBRANCH   1  11
BRANCH   1  18
ATOM     13  C   UNL     1       3.620  -8.852   1.376  0.00  0.00    +0.148 C 
ATOM     14  N   UNL     1       4.477  -9.213   0.244  0.00  0.00    -0.355 N 
ATOM     15  C   UNL     1       4.766 -10.483  -0.160  0.00  0.00    +0.085 A 
ATOM     16  C   UNL     1       5.588 -10.409  -1.227  0.00  0.00    +0.019 A 
ATOM     17  C   UNL     1       5.811  -9.044  -1.494  0.00  0.00    +0.021 A 
ATOM     18  C   UNL     1       5.116  -8.335  -0.580  0.00  0.00    +0.006 A 
ENDBRANCH   1  18
BRANCH   1  19
ATOM     19  C   UNL     1       3.602  -6.372  -0.518  0.00  0.00    +0.095 C 
BRANCH  19  20
ATOM     20  N   UNL     1       3.544  -4.920  -0.331  0.00  0.00    -0.309 N 
ATOM     21  C   UNL     1       2.370  -4.271  -0.464  0.00  0.00    +0.299 C 
ATOM     22  O   UNL     1       1.362  -4.888  -0.739  0.00  0.00    -0.265 OA
ATOM     23  H   UNL     1       4.349  -4.427  -0.112  0.00  0.00    +0.149 HD
BRANCH  21  24
ATOM     24  C   UNL     1       2.310  -2.791  -0.273  0.00  0.00    +0.303 C 
ATOM     25  O   UNL     1       3.318  -2.173   0.002  0.00  0.00    -0.265 OA
ATOM     26  N   UNL     1       1.137  -2.141  -0.406  0.00  0.00    -0.278 N 
ATOM     27  H   UNL     1       0.318  -2.642  -0.540  0.00  0.00    +0.155 HD
BRANCH  26  28
ATOM     28  C   UNL     1       1.101  -0.745  -0.351  0.00  0.00    +0.034 A 
ATOM     29  C   UNL     1       2.146  -0.000  -0.884  0.00  0.00    +0.025 A 
ATOM     30  C   UNL     1       2.107   1.379  -0.828  0.00  0.00    +0.034 A 
ATOM     31  C   UNL     1       1.029   2.019  -0.242  0.00  0.00    +0.126 A 
ATOM     32  C   UNL     1      -0.012   1.280   0.289  0.00  0.00    +0.034 A 
ATOM     33  C   UNL     1       0.020  -0.099   0.237  0.00  0.00    +0.025 A 
BRANCH  31  34
ATOM     34  N   UNL     1       0.991   3.497  -0.184  0.00  0.00    +0.056 N 
ATOM     35  O   UNL     1       1.907   4.149  -0.652  0.00  0.00    -0.126 OA
ATOM     36  O   UNL     1       0.043   4.062   0.332  0.00  0.00    -0.126 OA
ENDBRANCH  31  34
ENDBRANCH  26  28
ENDBRANCH  21  24
ENDBRANCH  19  20
ENDBRANCH   1  19
TORSDOF 7
