REMARK  Name = ZINC01461539
REMARK  8 active torsions:
REMARK  status: ('A' for Active; 'I' for Inactive)
REMARK    1  A    between atoms: C_1  and  C_2
REMARK    2  A    between atoms: C_2  and  C_3
REMARK    3  A    between atoms: C_13  and  O_22
REMARK    4  A    between atoms: C_17  and  N_21
REMARK    5  A    between atoms: C_18  and  C_19
REMARK    6  A    between atoms: C_26  and  C_31
REMARK    7  A    between atoms: C_26  and  C_32
REMARK    8  A    between atoms: C_28  and  C_30
REMARK                            x       y       z     vdW  Elec       q    Type
REMARK                         _______ _______ _______ _____ _____    ______ ____
ROOT
ATOM      1  C   UNL     1       0.544  -3.269  -3.639  0.00  0.00    -0.047 A 
ATOM      2  C   UNL     1      -0.614  -3.987  -3.378  0.00  0.00    +0.009 A 
ATOM      3  C   UNL     1      -1.105  -4.086  -2.099  0.00  0.00    -0.022 A 
ATOM      4  C   UNL     1      -0.385  -3.436  -1.097  0.00  0.00    +0.045 A 
ATOM      5  C   UNL     1       0.773  -2.714  -1.353  0.00  0.00    -0.001 A 
ATOM      6  C   UNL     1       1.262  -2.619  -2.638  0.00  0.00    +0.010 A 
ATOM      7  C   UNL     1       1.211  -2.189  -0.024  0.00  0.00    +0.142 C 
ATOM      8  C   UNL     1       1.206  -0.685  -0.015  0.00  0.00    +0.020 A 
ATOM      9  C   UNL     1       0.002  -0.004   0.002  0.00  0.00    +0.012 A 
ATOM     10  C   UNL     1      -0.017   1.377   0.010  0.00  0.00    +0.046 A 
ATOM     11  C   UNL     1       1.176   2.087   0.002  0.00  0.00    +0.120 A 
ATOM     12  C   UNL     1       2.383   1.408  -0.014  0.00  0.00    +0.092 A 
ATOM     13  C   UNL     1       2.401   0.019  -0.023  0.00  0.00    +0.138 A 
ATOM     14  O   UNL     1       3.591  -0.631  -0.042  0.00  0.00    -0.441 OA
ATOM     15  C   UNL     1       3.660  -1.922   0.321  0.00  0.00    +0.199 C 
ATOM     16  C   UNL     1       2.564  -2.719   0.349  0.00  0.00    +0.110 C 
ATOM     17  C   UNL     1       0.169  -2.708   0.955  0.00  0.00    +0.241 C 
ATOM     18  O   UNL     1       0.148  -2.508   2.151  0.00  0.00    -0.274 OA
ATOM     19  N   UNL     1      -0.721  -3.426   0.254  0.00  0.00    -0.264 N 
ATOM     20  C   UNL     1      -1.917  -4.147   0.726  0.00  0.00    +0.037 C 
ATOM     21  C   UNL     1      -2.194  -5.307  -0.237  0.00  0.00    +0.033 C 
ATOM     22  C   UNL     1      -2.343  -4.824  -1.683  0.00  0.00    +0.020 C 
ATOM     23  C   UNL     1      -2.550  -6.029  -2.603  0.00  0.00    +0.012 C 
ATOM     24  C   UNL     1      -1.667  -4.694   2.133  0.00  0.00    +0.032 C 
ATOM     25  C   UNL     1      -3.116  -3.197   0.749  0.00  0.00    +0.032 C 
ENDROOT
BRANCH  15  26
ATOM     26  N   UNL     1       4.877  -2.451   0.673  0.00  0.00    -0.328 N 
ATOM     27  H   UNL     1       5.671  -1.893   0.658  0.00  0.00    +0.145 HD
ATOM     28  H   UNL     1       4.944  -3.382   0.937  0.00  0.00    +0.145 HD
ENDBRANCH  15  26
BRANCH   1  30
ATOM     29  C   UNL     1       1.999  -4.355  -5.328  0.00  0.00    +0.009 C 
ATOM     30  C   UNL     1       1.044  -3.191  -5.059  0.00  0.00    +0.032 C 
ENDBRANCH   1  30
BRANCH  16  31
ATOM     31  C   UNL     1       2.699  -4.089   0.742  0.00  0.00    +0.102 C 
ATOM     32  N   UNL     1       2.807  -5.176   1.054  0.00  0.00    -0.191 NA
ENDBRANCH  16  31
BRANCH  11  33
ATOM     33  O   UNL     1       1.159   3.445   0.010  0.00  0.00    -0.507 OA
ATOM     34  H   UNL     1       1.163   3.833   0.896  0.00  0.00    +0.292 HD
ENDBRANCH  11  33
TORSDOF 4
