REMARK  Name = ZINC40046085
REMARK  11 active torsions:
REMARK  status: ('A' for Active; 'I' for Inactive)
REMARK    1  A    between atoms: C_1  and  C_2
REMARK    2  A    between atoms: C_2  and  C_3
REMARK    3  A    between atoms: C_17  and  C_19
REMARK    4  A    between atoms: C_22  and  O_27
REMARK    5  A    between atoms: C_23  and  O_25
REMARK    6  A    between atoms: O_25  and  C_26
REMARK    7  A    between atoms: O_27  and  C_28
REMARK    8  A    between atoms: C_28  and  C_29
REMARK    9  A    between atoms: C_29  and  C_30
REMARK   10  A    between atoms: C_30  and  C_31
REMARK   11  A    between atoms: C_30  and  C_32
REMARK                            x       y       z     vdW  Elec       q    Type
REMARK                         _______ _______ _______ _____ _____    ______ ____
ROOT
ATOM      1  C   UNL     1      -1.412  -0.526   0.013  0.00  0.00    -0.047 A 
ATOM      2  C   UNL     1      -2.051  -0.766   1.221  0.00  0.00    +0.007 A 
ATOM      3  C   UNL     1      -3.341  -1.245   1.253  0.00  0.00    +0.047 A 
ATOM      4  C   UNL     1      -4.024  -1.494   0.062  0.00  0.00    +0.139 A 
ATOM      5  C   UNL     1      -3.369  -1.242  -1.154  0.00  0.00    +0.065 A 
ATOM      6  C   UNL     1      -2.062  -0.755  -1.168  0.00  0.00    +0.019 A 
ATOM      7  C   UNL     1      -4.093  -1.490  -2.427  0.00  0.00    +0.199 A 
ATOM      8  O   UNL     1      -3.552  -1.460  -3.518  0.00  0.00    -0.287 OA
ATOM      9  C   UNL     1      -5.520  -1.774  -2.244  0.00  0.00    +0.072 A 
ATOM     10  C   UNL     1      -6.041  -1.993  -1.000  0.00  0.00    +0.199 A 
ATOM     11  O   UNL     1      -5.288  -1.971   0.117  0.00  0.00    -0.450 OA
ATOM     12  C   UNL     1      -7.486  -2.240  -1.142  0.00  0.00    +0.289 C 
ATOM     13  O   UNL     1      -8.247  -2.466  -0.222  0.00  0.00    -0.266 OA
ATOM     14  N   UNL     1      -7.842  -2.178  -2.441  0.00  0.00    -0.232 N 
ATOM     15  C   UNL     1      -6.635  -1.883  -3.231  0.00  0.00    +0.152 C 
ATOM     16  C   UNL     1      -9.122  -2.360  -2.945  0.00  0.00    +0.168 A 
ATOM     17  N   UNL     1      -9.522  -2.317  -4.199  0.00  0.00    -0.233 NA
ATOM     18  C   UNL     1     -10.787  -2.514  -4.519  0.00  0.00    +0.120 A 
ATOM     19  C   UNL     1     -11.648  -2.761  -3.501  0.00  0.00    +0.068 A 
ATOM     20  S   UNL     1     -10.540  -2.698  -2.103  0.00  0.00    -0.060 S 
ENDROOT
BRANCH  15  21
ATOM     21  C   UNL     1      -6.363  -3.002  -4.202  0.00  0.00    -0.018 A 
ATOM     22  C   UNL     1      -6.623  -4.310  -3.837  0.00  0.00    +0.009 A 
ATOM     23  C   UNL     1      -6.375  -5.341  -4.725  0.00  0.00    +0.050 A 
ATOM     24  C   UNL     1      -5.865  -5.064  -5.983  0.00  0.00    +0.162 A 
ATOM     25  C   UNL     1      -5.605  -3.748  -6.351  0.00  0.00    +0.162 A 
ATOM     26  C   UNL     1      -5.860  -2.719  -5.458  0.00  0.00    +0.055 A 
BRANCH  25  27
ATOM     27  O   UNL     1      -5.105  -3.471  -7.585  0.00  0.00    -0.491 OA
ATOM     28  C   UNL     1      -4.862  -2.097  -7.893  0.00  0.00    +0.277 C 
ENDBRANCH  25  27
BRANCH  24  29
ATOM     29  O   UNL     1      -5.621  -6.077  -6.857  0.00  0.00    -0.488 OA
BRANCH  29  30
ATOM     30  C   UNL     1      -5.912  -7.403  -6.411  0.00  0.00    +0.229 C 
BRANCH  30  31
ATOM     31  C   UNL     1      -5.575  -8.400  -7.522  0.00  0.00    +0.044 C 
BRANCH  31  32
ATOM     32  C   UNL     1      -5.886  -9.820  -7.045  0.00  0.00    -0.014 C 
ATOM     33  C   UNL     1      -5.668 -10.804  -8.195  0.00  0.00    +0.007 C 
ATOM     34  C   UNL     1      -4.961 -10.182  -5.881  0.00  0.00    +0.007 C 
ENDBRANCH  31  32
ENDBRANCH  30  31
ENDBRANCH  29  30
ENDBRANCH  24  29
ENDBRANCH  15  21
BRANCH   1  36
ATOM     35  C   UNL     1      -0.019   1.526   0.010  0.00  0.00    +0.009 C 
ATOM     36  C   UNL     1       0.002  -0.004   0.002  0.00  0.00    +0.032 C 
ENDBRANCH   1  36
TORSDOF 7
