REMARK  Name = ZINC13499397
REMARK  9 active torsions:
REMARK  status: ('A' for Active; 'I' for Inactive)
REMARK    1  A    between atoms: C_1  and  C_2
REMARK    2  A    between atoms: C_2  and  C_3
REMARK    3  A    between atoms: C_3  and  C_4
REMARK    4  A    between atoms: C_4  and  C_6
REMARK    5  A    between atoms: C_4  and  N_72
REMARK    6  A    between atoms: N_10  and  C_11
REMARK    7  A    between atoms: C_16  and  C_17
REMARK    8  A    between atoms: C_16  and  N_72
REMARK    9  A    between atoms: C_33  and  N_72
REMARK                            x       y       z     vdW  Elec       q    Type
REMARK                         _______ _______ _______ _____ _____    ______ ____
ROOT
ATOM      1  N   UNL     1      -0.773  -2.290   0.982  0.00  0.00    +0.391 N 
ATOM      2  H   UNL     1      -0.212  -3.142   1.093  0.00  0.00    -0.080 HD
ENDROOT
BRANCH   1   3
ATOM      3  C   UNL     1      -1.496  -2.023   2.244  0.00  0.00    -0.067 C 
ATOM      4  C   UNL     1      -2.378  -3.237   2.598  0.00  0.00    -0.015 C 
ATOM      5  C   UNL     1      -3.650  -2.612   3.226  0.00  0.00    -0.002 C 
ATOM      6  C   UNL     1      -3.868  -1.343   2.365  0.00  0.00    -0.002 C 
ATOM      7  C   UNL     1      -2.443  -0.819   2.096  0.00  0.00    -0.015 C 
ENDBRANCH   1   3
BRANCH   1   8
ATOM      8  C   UNL     1      -1.738  -2.491  -0.119  0.00  0.00    +0.003 C 
BRANCH   8   9
ATOM      9  C   UNL     1      -2.127  -1.167  -0.726  0.00  0.00    +0.138 A 
ATOM     10  N   UNL     1      -1.349  -0.126  -0.896  0.00  0.00    -0.115 NA
ATOM     11  N   UNL     1      -2.048   0.807  -1.447  0.00  0.00    -0.023 NA
ATOM     12  N   UNL     1      -3.253   0.390  -1.624  0.00  0.00    -0.044 NA
ATOM     13  N   UNL     1      -3.342  -0.823  -1.193  0.00  0.00    -0.228 N 
BRANCH  13  14
ATOM     14  C   UNL     1      -4.539  -1.667  -1.208  0.00  0.00    +0.111 C 
ATOM     15  C   UNL     1      -5.061  -1.817  -2.652  0.00  0.00    +0.027 C 
ATOM     16  C   UNL     1      -6.603  -1.810  -2.500  0.00  0.00    +0.002 C 
ATOM     17  C   UNL     1      -6.833  -0.765  -1.380  0.00  0.00    +0.002 C 
ATOM     18  C   UNL     1      -5.665  -0.999  -0.400  0.00  0.00    +0.027 C 
ENDBRANCH  13  14
ENDBRANCH   8   9
BRANCH   8  19
ATOM     19  C   UNL     1      -1.083  -3.369  -1.187  0.00  0.00    -0.008 C 
BRANCH  19  21
ATOM     20  C   UNL     1      -0.290  -5.678  -1.718  0.00  0.00    +0.004 C 
ATOM     21  C   UNL     1      -0.832  -4.765  -0.616  0.00  0.00    -0.005 C 
ENDBRANCH  19  21
ENDBRANCH   8  19
ENDBRANCH   1   8
BRANCH   1  22
ATOM     22  C   UNL     1       0.126  -1.160   0.666  0.00  0.00    -0.036 C 
BRANCH  22  23
ATOM     23  C   UNL     1       1.337  -1.243   1.559  0.00  0.00    +0.001 A 
ATOM     24  C   UNL     1       2.462  -1.861   1.117  0.00  0.00    +0.017 A 
ATOM     25  C   UNL     1       3.623  -1.921   2.004  0.00  0.00    +0.002 A 
ATOM     26  C   UNL     1       4.810  -2.542   1.600  0.00  0.00    +0.059 A 
ATOM     27  C   UNL     1       5.888  -2.586   2.460  0.00  0.00    +0.163 A 
ATOM     28  C   UNL     1       5.796  -2.013   3.732  0.00  0.00    +0.164 A 
ATOM     29  C   UNL     1       4.625  -1.397   4.140  0.00  0.00    +0.075 A 
ATOM     30  C   UNL     1       3.531  -1.345   3.286  0.00  0.00    +0.053 A 
ATOM     31  N   UNL     1       2.356  -0.736   3.677  0.00  0.00    -0.322 N 
ATOM     32  H   UNL     1       2.294  -0.341   4.561  0.00  0.00    +0.169 HD
ATOM     33  C   UNL     1       1.297  -0.683   2.851  0.00  0.00    +0.251 A 
ATOM     34  O   UNL     1       0.275  -0.136   3.230  0.00  0.00    -0.268 OA
ATOM     35  O   UNL     1       6.856  -2.048   4.585  0.00  0.00    -0.485 OA
ATOM     36  C   UNL     1       7.888  -2.995   4.292  0.00  0.00    +0.270 C 
ATOM     37  C   UNL     1       8.221  -2.897   2.797  0.00  0.00    +0.270 C 
ATOM     38  O   UNL     1       7.035  -3.196   2.053  0.00  0.00    -0.485 OA
ENDBRANCH  22  23
ENDBRANCH   1  22
TORSDOF 8
