REMARK  Name = ZINC49060035
REMARK  7 active torsions:
REMARK  status: ('A' for Active; 'I' for Inactive)
REMARK    1  A    between atoms: C_1  and  C_2
REMARK    2  A    between atoms: C_5  and  C_8
REMARK    3  A    between atoms: N_13  and  C_15
REMARK    4  A    between atoms: C_15  and  C_17
REMARK    5  A    between atoms: C_15  and  C_18
REMARK    6  A    between atoms: N_20  and  C_21
REMARK    7  A    between atoms: C_26  and  N_27
REMARK                            x       y       z     vdW  Elec       q    Type
REMARK                         _______ _______ _______ _____ _____    ______ ____
ROOT
ATOM      1  C   UNL     1       0.101  -6.855   2.471  0.00  0.00    +0.194 C 
ATOM      2  C   UNL     1       1.337  -6.410   3.254  0.00  0.00    +0.043 C 
ENDROOT
BRANCH   1   8
ATOM      3  C   UNL     1       0.043  -4.259  -0.027  0.00  0.00    +0.092 A 
ATOM      4  C   UNL     1       0.064  -4.962  -1.254  0.00  0.00    +0.035 A 
ATOM      5  C   UNL     1       0.097  -6.324  -1.217  0.00  0.00    +0.074 A 
ATOM      6  C   UNL     1       0.109  -6.951   0.049  0.00  0.00    +0.268 A 
ATOM      7  O   UNL     1       0.139  -8.168   0.132  0.00  0.00    -0.266 OA
ATOM      8  N   UNL     1       0.088  -6.196   1.163  0.00  0.00    -0.217 N 
ATOM      9  N   UNL     1       0.062  -4.913   1.110  0.00  0.00    -0.168 NA
BRANCH   3  14
ATOM     10  C   UNL     1      -0.098   1.499  -0.021  0.00  0.00    +0.044 C 
ATOM     11  C   UNL     1      -0.061  -0.008  -0.023  0.00  0.00    -0.050 A 
ATOM     12  C   UNL     1      -0.046  -0.696  -1.223  0.00  0.00    +0.004 A 
ATOM     13  C   UNL     1      -0.012  -2.075  -1.230  0.00  0.00    +0.010 A 
ATOM     14  C   UNL     1       0.008  -2.776  -0.026  0.00  0.00    +0.002 A 
ATOM     15  C   UNL     1      -0.007  -2.078   1.181  0.00  0.00    +0.010 A 
ATOM     16  C   UNL     1      -0.036  -0.698   1.176  0.00  0.00    +0.004 A 
ENDBRANCH   3  14
ENDBRANCH   1   8
BRANCH   1  17
ATOM     17  C   UNL     1      -1.141  -6.477   3.236  0.00  0.00    +0.242 C 
ATOM     18  O   UNL     1      -1.957  -5.730   2.738  0.00  0.00    -0.273 OA
ATOM     19  N   UNL     1      -1.346  -6.968   4.474  0.00  0.00    -0.282 N 
ATOM     20  H   UNL     1      -0.736  -7.627   4.842  0.00  0.00    +0.155 HD
BRANCH  19  21
ATOM     21  C   UNL     1      -2.438  -6.528   5.230  0.00  0.00    +0.065 A 
ATOM     22  C   UNL     1      -2.993  -5.278   4.989  0.00  0.00    +0.045 A 
ATOM     23  C   UNL     1      -4.072  -4.847   5.737  0.00  0.00    +0.043 A 
ATOM     24  C   UNL     1      -4.599  -5.660   6.726  0.00  0.00    +0.022 A 
ATOM     25  C   UNL     1      -4.048  -6.904   6.968  0.00  0.00    +0.036 A 
ATOM     26  C   UNL     1      -2.973  -7.343   6.220  0.00  0.00    +0.147 A 
ATOM     27 CL   UNL     1      -4.766  -3.284   5.437  0.00  0.00    -0.083 Cl
BRANCH  26  28
ATOM     28  N   UNL     1      -2.388  -8.678   6.476  0.00  0.00    +0.058 N 
ATOM     29  O   UNL     1      -2.907  -9.423   7.274  0.00  0.00    -0.126 OA
ATOM     30  O   UNL     1      -1.390  -9.024   5.887  0.00  0.00    -0.126 OA
ENDBRANCH  26  28
ENDBRANCH  19  21
ENDBRANCH   1  17
TORSDOF 5
