REMARK  Name = ZINC31857543
REMARK  7 active torsions:
REMARK  status: ('A' for Active; 'I' for Inactive)
REMARK    1  A    between atoms: C_1  and  C_2
REMARK    2  A    between atoms: C_2  and  C_4
REMARK    3  A    between atoms: C_2  and  N_16
REMARK    4  A    between atoms: N_6  and  N_7
REMARK    5  A    between atoms: C_8  and  C_9
REMARK    6  A    between atoms: C_12  and  O_15
REMARK    7  A    between atoms: C_26  and  C_27
REMARK                            x       y       z     vdW  Elec       q    Type
REMARK                         _______ _______ _______ _____ _____    ______ ____
ROOT
ATOM      1  N   UNL     1       0.843   7.636   0.606  0.00  0.00    -0.280 N 
ATOM      2  C   UNL     1       0.129   8.350  -0.295  0.00  0.00    +0.263 A 
ATOM      3  O   UNL     1      -0.330   7.828  -1.294  0.00  0.00    -0.267 OA
ATOM      4  C   UNL     1      -0.071   9.781  -0.021  0.00  0.00    +0.065 A 
ATOM      5  C   UNL     1      -0.791  10.602  -0.887  0.00  0.00    +0.015 A 
ATOM      6  C   UNL     1      -0.948  11.936  -0.580  0.00  0.00    +0.001 A 
ATOM      7  C   UNL     1      -0.396  12.464   0.579  0.00  0.00    +0.002 A 
ATOM      8  C   UNL     1       0.314  11.677   1.442  0.00  0.00    +0.028 A 
ATOM      9  C   UNL     1       0.491  10.320   1.159  0.00  0.00    +0.079 A 
ATOM     10  N   UNL     1       1.184   9.512   1.985  0.00  0.00    -0.229 NA
ATOM     11  C   UNL     1       1.346   8.240   1.726  0.00  0.00    +0.145 A 
ENDROOT
BRANCH  11  12
ATOM     12  C   UNL     1       2.115   7.418   2.684  0.00  0.00    +0.018 A 
ATOM     13  C   UNL     1       1.567   6.239   3.193  0.00  0.00    +0.011 A 
ATOM     14  C   UNL     1       2.292   5.474   4.083  0.00  0.00    +0.001 A 
ATOM     15  C   UNL     1       3.554   5.878   4.480  0.00  0.00    +0.000 A 
ATOM     16  C   UNL     1       4.101   7.048   3.984  0.00  0.00    +0.001 A 
ATOM     17  C   UNL     1       3.389   7.820   3.089  0.00  0.00    +0.011 A 
ENDBRANCH  11  12
BRANCH   1  19
ATOM     18  C   UNL     1       1.718   6.000  -0.987  0.00  0.00    +0.041 C 
ATOM     19  C   UNL     1       1.073   6.206   0.385  0.00  0.00    +0.176 C 
BRANCH  19  20
ATOM     20  C   UNL     1      -0.242   5.472   0.437  0.00  0.00    +0.255 C 
ATOM     21  O   UNL     1      -1.270   6.083   0.639  0.00  0.00    -0.272 OA
ATOM     22  N   UNL     1      -0.276   4.137   0.258  0.00  0.00    -0.205 N 
ATOM     23  H   UNL     1       0.657   3.583   0.075  0.00  0.00    +0.177 HD
BRANCH  22  24
ATOM     24  N   UNL     1      -1.498   3.454   0.306  0.00  0.00    -0.188 NA
ATOM     25  C   UNL     1      -1.520   2.157   0.261  0.00  0.00    +0.138 C 
BRANCH  25  26
ATOM     26  C   UNL     1      -0.354   1.384   0.728  0.00  0.00    -0.005 A 
ATOM     27  C   UNL     1      -0.236   0.030   0.404  0.00  0.00    +0.013 A 
ATOM     28  C   UNL     1       0.852  -0.690   0.847  0.00  0.00    +0.046 A 
ATOM     29  C   UNL     1       1.831  -0.072   1.614  0.00  0.00    +0.117 A 
ATOM     30  C   UNL     1       1.718   1.274   1.939  0.00  0.00    +0.046 A 
ATOM     31  C   UNL     1       0.633   2.002   1.500  0.00  0.00    +0.013 A 
BRANCH  29  32
ATOM     32  O   UNL     1       2.902  -0.786   2.049  0.00  0.00    -0.507 OA
ATOM     33  H   UNL     1       3.678  -0.298   2.656  0.00  0.00    +0.292 HD
ENDBRANCH  29  32
ENDBRANCH  25  26
ENDBRANCH  22  24
ENDBRANCH  19  20
ENDBRANCH   1  19
TORSDOF 6
