REMARK  Name = ZINC39273173
REMARK  11 active torsions:
REMARK  status: ('A' for Active; 'I' for Inactive)
REMARK    1  A    between atoms: C_1  and  C_2
REMARK    2  A    between atoms: C_2  and  O_3
REMARK    3  A    between atoms: O_3  and  C_4
REMARK    4  A    between atoms: C_4  and  C_6
REMARK    5  A    between atoms: C_7  and  C_39
REMARK    6  A    between atoms: C_14  and  C_15
REMARK    7  A    between atoms: C_20  and  C_21
REMARK    8  A    between atoms: C_28  and  C_30
REMARK    9  A    between atoms: C_33  and  N_36
REMARK   10  A    between atoms: N_36  and  C_37
REMARK   11  A    between atoms: N_36  and  C_38
REMARK                            x       y       z     vdW  Elec       q    Type
REMARK                         _______ _______ _______ _____ _____    ______ ____
ROOT
ATOM      1  C   UNL     1      -2.791  -2.428   0.233  0.00  0.00    +0.085 C 
ATOM      2  C   UNL     1      -2.974  -3.744  -0.086  0.00  0.00    +0.053 C 
ATOM      3  N   UNL     1      -4.194  -4.227  -0.287  0.00  0.00    -0.228 NA
ATOM      4  C   UNL     1      -5.297  -3.528  -0.205  0.00  0.00    +0.178 A 
ATOM      5  N   UNL     1      -5.338  -2.187   0.104  0.00  0.00    -0.275 N 
ATOM      6  C   UNL     1      -6.528  -1.575   0.160  0.00  0.00    +0.268 A 
ATOM      7  O   UNL     1      -6.614  -0.392   0.428  0.00  0.00    -0.266 OA
ATOM      8  C   UNL     1      -7.732  -2.385  -0.116  0.00  0.00    +0.077 A 
ATOM      9  C   UNL     1      -9.020  -2.019  -0.124  0.00  0.00    +0.009 C 
ATOM     10  S   UNL     1      -7.005  -3.984  -0.435  0.00  0.00    -0.046 S 
ATOM     11  C   UNL     1      -4.015  -1.549   0.354  0.00  0.00    +0.162 C 
ATOM     12  C   UNL     1      -1.780  -4.655  -0.211  0.00  0.00    +0.066 C 
ENDROOT
BRANCH  11  13
ATOM     13  C   UNL     1      -4.031  -0.967   1.744  0.00  0.00    -0.020 A 
ATOM     14  C   UNL     1      -4.484  -1.729   2.805  0.00  0.00    +0.008 A 
ATOM     15  C   UNL     1      -4.500  -1.198   4.080  0.00  0.00    +0.023 A 
ATOM     16  C   UNL     1      -4.061   0.102   4.296  0.00  0.00    +0.029 A 
ATOM     17  C   UNL     1      -3.607   0.864   3.227  0.00  0.00    +0.023 A 
ATOM     18  C   UNL     1      -3.588   0.326   1.955  0.00  0.00    +0.008 A 
BRANCH  16  19
ATOM     19  N   UNL     1      -4.077   0.642   5.584  0.00  0.00    -0.336 N 
ATOM     20  C   UNL     1      -4.556  -0.163   6.710  0.00  0.00    +0.129 C 
ATOM     21  C   UNL     1      -3.613   2.013   5.809  0.00  0.00    +0.129 C 
ENDBRANCH  16  19
ENDBRANCH  11  13
BRANCH   9  22
ATOM     22  C   UNL     1     -10.090  -3.033  -0.438  0.00  0.00    +0.107 C 
ATOM     23  C   UNL     1     -11.103  -3.107   0.687  0.00  0.00    +0.121 C 
ATOM     24  N   UNL     1     -12.238  -2.762   0.171  0.00  0.00    -0.161 NA
ATOM     25  N   UNL     1     -12.137  -2.457  -1.182  0.00  0.00    -0.153 NA
ATOM     26  C   UNL     1     -10.915  -2.589  -1.629  0.00  0.00    +0.083 C 
BRANCH  26  27
ATOM     27  C   UNL     1     -10.437  -2.354  -3.002  0.00  0.00    -0.001 A 
ATOM     28  C   UNL     1      -9.089  -2.546  -3.319  0.00  0.00    +0.010 A 
ATOM     29  C   UNL     1      -8.650  -2.323  -4.607  0.00  0.00    +0.001 A 
ATOM     30  C   UNL     1      -9.539  -1.911  -5.584  0.00  0.00    +0.000 A 
ATOM     31  C   UNL     1     -10.875  -1.719  -5.278  0.00  0.00    +0.001 A 
ATOM     32  C   UNL     1     -11.331  -1.943  -3.996  0.00  0.00    +0.010 A 
ENDBRANCH  26  27
ENDBRANCH   9  22
BRANCH   1  33
ATOM     33  C   UNL     1      -1.504  -1.909   0.447  0.00  0.00    +0.339 C 
ATOM     34  O   UNL     1      -0.542  -2.656   0.473  0.00  0.00    -0.245 OA
BRANCH  33  35
ATOM     35  O   UNL     1      -1.332  -0.581   0.624  0.00  0.00    -0.462 OA
BRANCH  35  37
ATOM     36  C   UNL     1      -0.001   1.398   1.015  0.00  0.00    +0.048 C 
ATOM     37  C   UNL     1       0.004  -0.122   0.837  0.00  0.00    +0.229 C 
ENDBRANCH  35  37
ENDBRANCH  33  35
ENDBRANCH   1  33
TORSDOF 7
