REMARK  Name = ZINC57344426
REMARK  2 active torsions:
REMARK  status: ('A' for Active; 'I' for Inactive)
REMARK    1  A    between atoms: C_4  and  C_8
REMARK    2  A    between atoms: C_8  and  N_9
REMARK                            x       y       z     vdW  Elec       q    Type
REMARK                         _______ _______ _______ _____ _____    ______ ____
ROOT
ATOM      1  N   UNL     1       4.611  -0.819   1.214  0.00  0.00    -0.275 N 
ATOM      2  C   UNL     1       5.365   0.250   1.567  0.00  0.00    +0.270 A 
ATOM      3  O   UNL     1       5.792   1.020   0.723  0.00  0.00    -0.266 OA
ATOM      4  C   UNL     1       5.639   0.449   2.918  0.00  0.00    +0.102 A 
ATOM      5  C   UNL     1       5.154  -0.429   3.904  0.00  0.00    +0.087 A 
ATOM      6  C   UNL     1       5.506  -0.109   5.223  0.00  0.00    +0.036 A 
ATOM      7  C   UNL     1       6.262   0.979   5.479  0.00  0.00    +0.048 A 
ATOM      8  S   UNL     1       6.545   1.655   3.850  0.00  0.00    -0.090 S 
ATOM      9  N   UNL     1       4.400  -1.484   3.454  0.00  0.00    -0.215 NA
ATOM     10  C   UNL     1       4.145  -1.656   2.186  0.00  0.00    +0.202 A 
ATOM     11  N   UNL     1       3.378  -2.733   1.811  0.00  0.00    -0.304 N 
ATOM     12  C   UNL     1       3.998  -3.947   1.259  0.00  0.00    +0.089 C 
ATOM     13  C   UNL     1       3.456  -5.160   2.023  0.00  0.00    -0.063 C 
ATOM     14  N   UNL     1       1.989  -5.152   1.975  0.00  0.00    +0.381 N 
ATOM     15  C   UNL     1       1.471  -3.975   2.683  0.00  0.00    -0.063 C 
ATOM     16  C   UNL     1       1.915  -2.706   1.956  0.00  0.00    +0.089 C 
ATOM     17  H   UNL     1       1.685  -5.125   1.013  0.00  0.00    -0.086 HD
ATOM     18  H   UNL     1       1.635  -5.989   2.413  0.00  0.00    -0.086 HD
ENDROOT
BRANCH   1  19
ATOM     19  C   UNL     1       4.295  -1.070  -0.194  0.00  0.00    +0.166 C 
BRANCH  19  23
ATOM     20  C   UNL     1       0.536   0.724  -1.152  0.00  0.00    +0.041 A 
ATOM     21  C   UNL     1       1.636   1.521  -0.900  0.00  0.00    +0.041 A 
ATOM     22  C   UNL     1       2.854   0.941  -0.589  0.00  0.00    +0.128 A 
ATOM     23  C   UNL     1       2.970  -0.438  -0.531  0.00  0.00    +0.010 A 
ATOM     24  C   UNL     1       1.869  -1.234  -0.784  0.00  0.00    +0.046 A 
ATOM     25  C   UNL     1       0.651  -0.654  -1.094  0.00  0.00    +0.124 A 
ATOM     26  F   UNL     1      -0.425  -1.433  -1.341  0.00  0.00    -0.205 F 
ATOM     27  F   UNL     1       3.930   1.720  -0.343  0.00  0.00    -0.205 F 
ENDBRANCH  19  23
ENDBRANCH   1  19
TORSDOF 2
