REMARK  Name = ZINC35033576
REMARK  12 active torsions:
REMARK  status: ('A' for Active; 'I' for Inactive)
REMARK    1  A    between atoms: C_1  and  C_2
REMARK    2  A    between atoms: C_2  and  N_3
REMARK    3  A    between atoms: C_13  and  C_14
REMARK    4  A    between atoms: C_14  and  C_16
REMARK    5  A    between atoms: C_14  and  N_17
REMARK    6  A    between atoms: N_17  and  C_18
REMARK    7  A    between atoms: N_17  and  S_23
REMARK    8  A    between atoms: C_18  and  C_19
REMARK    9  A    between atoms: C_19  and  N_20
REMARK   10  A    between atoms: N_20  and  C_21
REMARK   11  A    between atoms: N_20  and  C_22
REMARK   12  A    between atoms: S_23  and  C_26
REMARK                            x       y       z     vdW  Elec       q    Type
REMARK                         _______ _______ _______ _____ _____    ______ ____
ROOT
ATOM      1  N   UNL     1       3.919  -0.780  -0.053  0.00  0.00    -0.168 NA
ENDROOT
BRANCH   1   2
ATOM      2  S   UNL     1       5.150   0.214   0.438  0.00  0.00    +0.061 S 
ATOM      3  O   UNL     1       6.302  -0.173  -0.298  0.00  0.00    -0.153 OA
ATOM      4  O   UNL     1       4.638   1.539   0.410  0.00  0.00    -0.153 OA
BRANCH   2   5
ATOM      5  C   UNL     1       5.481  -0.162   2.127  0.00  0.00    +0.106 A 
ATOM      6  C   UNL     1       4.807   0.509   3.130  0.00  0.00    +0.030 A 
ATOM      7  C   UNL     1       5.066   0.215   4.455  0.00  0.00    +0.022 A 
ATOM      8  C   UNL     1       6.001  -0.753   4.778  0.00  0.00    +0.041 A 
ATOM      9  C   UNL     1       6.676  -1.424   3.774  0.00  0.00    +0.022 A 
ATOM     10  C   UNL     1       6.412  -1.133   2.449  0.00  0.00    +0.030 A 
ATOM     11 CL   UNL     1       6.328  -1.123   6.442  0.00  0.00    -0.084 Cl
ENDBRANCH   2   5
ENDBRANCH   1   2
BRANCH   1  12
ATOM     12  C   UNL     1       2.535  -0.301  -0.024  0.00  0.00    +0.143 C 
ATOM     13  C   UNL     1       1.745  -1.087   1.024  0.00  0.00    +0.034 C 
BRANCH  12  24
ATOM     14  N   UNL     1       2.217   0.381  -2.368  0.00  0.00    -0.295 N 
ATOM     15  C   UNL     1       1.683   0.244  -3.604  0.00  0.00    +0.262 A 
ATOM     16  O   UNL     1       1.957   1.021  -4.500  0.00  0.00    -0.267 OA
ATOM     17  C   UNL     1       0.761  -0.880  -3.823  0.00  0.00    +0.065 A 
ATOM     18  C   UNL     1       0.159  -1.109  -5.058  0.00  0.00    +0.017 A 
ATOM     19  C   UNL     1      -0.692  -2.170  -5.209  0.00  0.00    +0.021 A 
ATOM     20  C   UNL     1      -0.961  -3.020  -4.144  0.00  0.00    +0.043 A 
ATOM     21  C   UNL     1      -0.378  -2.815  -2.912  0.00  0.00    +0.048 A 
ATOM     22  C   UNL     1       0.494  -1.739  -2.734  0.00  0.00    +0.080 A 
ATOM     23  N   UNL     1       1.092  -1.496  -1.541  0.00  0.00    -0.232 NA
ATOM     24  C   UNL     1       1.907  -0.498  -1.379  0.00  0.00    +0.132 A 
ATOM     25 CL   UNL     1      -2.046  -4.357  -4.367  0.00  0.00    -0.083 Cl
BRANCH  14  27
ATOM     26  C   UNL     1       4.551   1.090  -2.545  0.00  0.00    +0.027 C 
ATOM     27  C   UNL     1       3.142   1.483  -2.095  0.00  0.00    +0.123 C 
ENDBRANCH  14  27
ENDBRANCH  12  24
ENDBRANCH   1  12
BRANCH   1  28
ATOM     28  C   UNL     1       4.215  -2.138  -0.516  0.00  0.00    +0.092 C 
BRANCH  28  29
ATOM     29  C   UNL     1       4.368  -2.135  -2.038  0.00  0.00    -0.062 C 
BRANCH  29  30
ATOM     30  N   UNL     1       4.534  -3.515  -2.516  0.00  0.00    +0.377 N 
ATOM     31  C   UNL     1       4.561  -3.525  -3.984  0.00  0.00    -0.097 C 
ATOM     32  C   UNL     1       5.795  -4.063  -1.999  0.00  0.00    -0.097 C 
ATOM     33  H   UNL     1       3.764  -4.079  -2.190  0.00  0.00    -0.083 HD
ENDBRANCH  29  30
ENDBRANCH  28  29
ENDBRANCH   1  28
TORSDOF 8
