REMARK  Name = ZINC04558635
REMARK  8 active torsions:
REMARK  status: ('A' for Active; 'I' for Inactive)
REMARK    1  A    between atoms: C_4  and  C_7
REMARK    2  A    between atoms: N_9  and  C_10
REMARK    3  A    between atoms: C_10  and  C_12
REMARK    4  A    between atoms: C_10  and  N_16
REMARK    5  A    between atoms: N_16  and  C_17
REMARK    6  A    between atoms: C_17  and  N_19
REMARK    7  A    between atoms: N_19  and  C_20
REMARK    8  A    between atoms: C_25  and  N_26
REMARK                            x       y       z     vdW  Elec       q    Type
REMARK                         _______ _______ _______ _____ _____    ______ ____
ROOT
ATOM      1  C   UNL     1       6.589  -0.734   0.049  0.00  0.00    +0.211 C 
ENDROOT
BRANCH   1   4
ATOM      2  C   UNL     1       4.208  -1.018   0.483  0.00  0.00    +0.246 C 
ATOM      3  O   UNL     1       4.382  -2.221   0.484  0.00  0.00    -0.270 OA
ATOM      4  N   UNL     1       5.249  -0.187   0.275  0.00  0.00    -0.290 N 
ATOM      5  H   UNL     1       5.110   0.773   0.274  0.00  0.00    +0.151 HD
BRANCH   2   9
ATOM      6  C   UNL     1       0.322   0.567   1.136  0.00  0.00    +0.000 A 
ATOM      7  C   UNL     1       1.388   1.423   0.923  0.00  0.00    +0.001 A 
ATOM      8  C   UNL     1       2.653   0.915   0.710  0.00  0.00    +0.013 A 
ATOM      9  C   UNL     1       2.856  -0.466   0.711  0.00  0.00    +0.037 A 
ATOM     10  C   UNL     1       1.776  -1.324   0.927  0.00  0.00    +0.013 A 
ATOM     11  C   UNL     1       0.516  -0.803   1.138  0.00  0.00    +0.001 A 
ENDBRANCH   2   9
ENDBRANCH   1   4
BRANCH   1  12
ATOM     12  C   UNL     1       7.606   0.048   0.883  0.00  0.00    +0.225 C 
ATOM     13 CL   UNL     1       7.186  -0.093   2.631  0.00  0.00    -0.080 Cl
ATOM     14 CL   UNL     1       9.255  -0.625   0.605  0.00  0.00    -0.080 Cl
ATOM     15 CL   UNL     1       7.575   1.784   0.395  0.00  0.00    -0.080 Cl
ENDBRANCH   1  12
BRANCH   1  16
ATOM     16  N   UNL     1       6.931  -0.619  -1.371  0.00  0.00    -0.305 N 
ATOM     17  H   UNL     1       7.172   0.243  -1.744  0.00  0.00    +0.150 HD
BRANCH  16  18
ATOM     18  C   UNL     1       6.909  -1.712  -2.159  0.00  0.00    +0.136 C 
ATOM     19  S   UNL     1       6.482  -3.234  -1.502  0.00  0.00    -0.019 S 
BRANCH  18  20
ATOM     20  N   UNL     1       7.223  -1.607  -3.466  0.00  0.00    -0.295 N 
ATOM     21  H   UNL     1       7.397  -0.735  -3.854  0.00  0.00    +0.154 HD
BRANCH  20  22
ATOM     22  C   UNL     1       7.298  -2.755  -4.262  0.00  0.00    +0.063 A 
ATOM     23  C   UNL     1       6.284  -3.703  -4.213  0.00  0.00    +0.025 A 
ATOM     24  C   UNL     1       6.358  -4.832  -5.004  0.00  0.00    +0.002 A 
ATOM     25  C   UNL     1       7.445  -5.025  -5.837  0.00  0.00    +0.002 A 
ATOM     26  C   UNL     1       8.459  -4.086  -5.884  0.00  0.00    +0.034 A 
ATOM     27  C   UNL     1       8.388  -2.951  -5.099  0.00  0.00    +0.147 A 
BRANCH  27  28
ATOM     28  N   UNL     1       9.474  -1.947  -5.149  0.00  0.00    +0.058 N 
ATOM     29  O   UNL     1      10.379  -2.068  -5.955  0.00  0.00    -0.126 OA
ATOM     30  O   UNL     1       9.463  -0.999  -4.384  0.00  0.00    -0.126 OA
ENDBRANCH  27  28
ENDBRANCH  20  22
ENDBRANCH  18  20
ENDBRANCH  16  18
ENDBRANCH   1  16
TORSDOF 8
