REMARK  Name = ZINC52566249
REMARK  8 active torsions:
REMARK  status: ('A' for Active; 'I' for Inactive)
REMARK    1  A    between atoms: C_7  and  C_10
REMARK    2  A    between atoms: C_10  and  C_11
REMARK    3  A    between atoms: C_11  and  C_13
REMARK    4  A    between atoms: C_11  and  N_37
REMARK    5  A    between atoms: C_13  and  O_14
REMARK    6  A    between atoms: O_14  and  C_15
REMARK    7  A    between atoms: C_17  and  C_21
REMARK    8  A    between atoms: C_27  and  C_32
REMARK                            x       y       z     vdW  Elec       q    Type
REMARK                         _______ _______ _______ _____ _____    ______ ____
ROOT
ATOM      1  C   UNL     1      -1.252  -6.557  -2.953  0.00  0.00    +0.139 A 
ATOM      2  C   UNL     1      -1.412  -7.110  -4.217  0.00  0.00    +0.057 A 
ATOM      3  C   UNL     1      -2.174  -8.274  -4.339  0.00  0.00    +0.004 A 
ATOM      4  C   UNL     1      -2.741  -8.832  -3.194  0.00  0.00    +0.119 A 
ATOM      5  N   UNL     1      -2.564  -8.274  -2.015  0.00  0.00    -0.259 NA
ATOM      6  C   UNL     1      -1.846  -7.178  -1.863  0.00  0.00    +0.156 A 
ENDROOT
BRANCH   3   7
ATOM      7  C   UNL     1      -2.377  -8.907  -5.665  0.00  0.00    -0.016 A 
ATOM      8  C   UNL     1      -1.802  -8.346  -6.805  0.00  0.00    +0.010 A 
ATOM      9  C   UNL     1      -1.990  -8.932  -8.037  0.00  0.00    +0.024 A 
ATOM     10  C   UNL     1      -2.757 -10.092  -8.154  0.00  0.00    +0.038 A 
ATOM     11  C   UNL     1      -3.327 -10.645  -7.013  0.00  0.00    -0.009 A 
ATOM     12  C   UNL     1      -3.139 -10.070  -5.779  0.00  0.00    +0.015 A 
ATOM     13  C   UNL     1      -4.082 -11.873  -7.468  0.00  0.00    +0.143 C 
ATOM     14  C   UNL     1      -3.854 -11.912  -8.964  0.00  0.00    +0.230 C 
ATOM     15  O   UNL     1      -4.285 -12.741  -9.737  0.00  0.00    -0.274 OA
ATOM     16  N   UNL     1      -3.085 -10.855  -9.274  0.00  0.00    -0.284 N 
ATOM     17  H   UNL     1      -2.791 -10.647 -10.175  0.00  0.00    +0.155 HD
BRANCH  13  18
ATOM     18  C   UNL     1      -5.550 -11.735  -7.158  0.00  0.00    +0.006 A 
ATOM     19  C   UNL     1      -6.334 -12.514  -6.373  0.00  0.00    +0.012 A 
ATOM     20  C   UNL     1      -7.671 -12.193  -6.231  0.00  0.00    +0.008 A 
ATOM     21  C   UNL     1      -8.159 -11.108  -6.883  0.00  0.00    +0.045 A 
ATOM     22  S   UNL     1      -6.707 -10.499  -7.724  0.00  0.00    -0.101 S 
ENDBRANCH  13  18
ENDBRANCH   3   7
BRANCH   1  23
ATOM     23  O   UNL     1      -0.519  -5.425  -2.785  0.00  0.00    -0.492 OA
BRANCH  23  24
ATOM     24  C   UNL     1      -0.398  -4.923  -1.452  0.00  0.00    +0.213 C 
BRANCH  24  25
ATOM     25  C   UNL     1       0.457  -3.653  -1.462  0.00  0.00    -0.033 C 
BRANCH  25  26
ATOM     26  N   UNL     1      -0.240  -2.600  -2.212  0.00  0.00    +0.382 N 
ATOM     27  H   UNL     1       0.323  -1.763  -2.218  0.00  0.00    -0.089 HD
ATOM     28  H   UNL     1      -0.394  -2.909  -3.160  0.00  0.00    -0.089 HD
ATOM     29  H   UNL     1      -1.127  -2.405  -1.773  0.00  0.00    -0.089 HD
ENDBRANCH  25  26
BRANCH  25  30
ATOM     30  C   UNL     1       0.691  -3.186  -0.024  0.00  0.00    +0.020 C 
BRANCH  30  37
ATOM     31  C   UNL     1      -0.016   1.348   0.009  0.00  0.00    +0.001 A 
ATOM     32  C   UNL     1       1.166   2.101   0.002  0.00  0.00    +0.002 A 
ATOM     33  C   UNL     1       2.391   1.535  -0.013  0.00  0.00    +0.026 A 
ATOM     34  C   UNL     1       2.529   0.120  -0.022  0.00  0.00    +0.043 A 
ATOM     35  N   UNL     1       3.587  -0.654  -0.037  0.00  0.00    -0.380 N 
ATOM     36  C   UNL     1       3.143  -2.053  -0.041  0.00  0.00    +0.144 C 
ATOM     37  C   UNL     1       1.631  -2.008  -0.025  0.00  0.00    -0.043 C 
ATOM     38  C   UNL     1       1.295  -0.698  -0.014  0.00  0.00    -0.001 A 
ATOM     39  C   UNL     1       0.002  -0.004   0.002  0.00  0.00    +0.010 A 
ATOM     40  H   UNL     1       4.509  -0.353  -0.045  0.00  0.00    +0.160 HD
ENDBRANCH  30  37
ENDBRANCH  25  30
ENDBRANCH  24  25
ENDBRANCH  23  24
ENDBRANCH   1  23
TORSDOF 8
