REMARK  Name = ZINC32447315
REMARK  9 active torsions:
REMARK  status: ('A' for Active; 'I' for Inactive)
REMARK    1  A    between atoms: C_1  and  C_2
REMARK    2  A    between atoms: C_2  and  C_3
REMARK    3  A    between atoms: C_3  and  C_5
REMARK    4  A    between atoms: C_3  and  N_25
REMARK    5  A    between atoms: C_5  and  N_6
REMARK    6  A    between atoms: C_7  and  C_9
REMARK    7  A    between atoms: C_9  and  N_10
REMARK    8  A    between atoms: C_13  and  C_17
REMARK    9  A    between atoms: C_13  and  C_18
REMARK                            x       y       z     vdW  Elec       q    Type
REMARK                         _______ _______ _______ _____ _____    ______ ____
ROOT
ATOM      1  N   UNL     1      -2.925   1.009   1.234  0.00  0.00    -0.316 N 
ATOM      2  C   UNL     1      -3.692   1.494   2.230  0.00  0.00    +0.231 C 
ATOM      3  O   UNL     1      -4.008   0.777   3.156  0.00  0.00    -0.274 OA
ATOM      4  H   UNL     1      -2.639   1.659   0.394  0.00  0.00    +0.149 HD
ENDROOT
BRANCH   1   5
ATOM      5  C   UNL     1      -2.472  -0.384   1.270  0.00  0.00    +0.089 C 
BRANCH   5   6
ATOM      6  C   UNL     1      -1.724  -0.710  -0.025  0.00  0.00    -0.051 C 
BRANCH   6   7
ATOM      7  N   UNL     1      -0.616   0.239  -0.202  0.00  0.00    +0.385 N 
ATOM      8  C   UNL     1      -0.159   0.259  -1.601  0.00  0.00    -0.073 C 
ATOM      9  C   UNL     1       0.716   1.496  -1.807  0.00  0.00    +0.017 C 
ATOM     10  C   UNL     1       1.770   1.566  -0.732  0.00  0.00    -0.048 A 
ATOM     11  C   UNL     1       2.864   2.394  -0.930  0.00  0.00    +0.004 A 
ATOM     12  C   UNL     1       3.850   2.490   0.031  0.00  0.00    +0.000 A 
ATOM     13  C   UNL     1       3.746   1.757   1.198  0.00  0.00    +0.000 A 
ATOM     14  C   UNL     1       2.658   0.931   1.397  0.00  0.00    +0.002 A 
ATOM     15  C   UNL     1       1.666   0.833   0.431  0.00  0.00    -0.061 A 
ATOM     16  C   UNL     1       0.500  -0.084   0.692  0.00  0.00    -0.042 C 
ATOM     17  H   UNL     1      -0.989   1.240   0.059  0.00  0.00    -0.081 HD
ENDBRANCH   6   7
BRANCH   6  19
ATOM     18  C   UNL     1      -0.537  -2.507  -1.290  0.00  0.00    +0.002 C 
ATOM     19  C   UNL     1      -1.169  -2.134   0.052  0.00  0.00    -0.017 C 
ENDBRANCH   6  19
ENDBRANCH   5   6
ENDBRANCH   1   5
BRANCH   2  20
ATOM     20  C   UNL     1      -4.158   2.926   2.194  0.00  0.00    +0.213 C 
BRANCH  20  21
ATOM     21  N   UNL     1      -4.971   3.206   3.381  0.00  0.00    -0.215 N 
ATOM     22  C   UNL     1      -4.475   3.663   4.547  0.00  0.00    +0.251 C 
ATOM     23  O   UNL     1      -3.316   3.909   4.804  0.00  0.00    -0.272 OA
ATOM     24  C   UNL     1      -5.667   3.803   5.473  0.00  0.00    +0.135 C 
ATOM     25  N   UNL     1      -6.803   3.369   4.642  0.00  0.00    -0.281 N 
ATOM     26  C   UNL     1      -6.298   3.045   3.438  0.00  0.00    +0.310 C 
ATOM     27  O   UNL     1      -6.971   2.648   2.507  0.00  0.00    -0.252 OA
ATOM     28  C   UNL     1      -5.843   5.260   5.906  0.00  0.00    +0.047 C 
ATOM     29  H   UNL     1      -7.820   3.362   5.061  0.00  0.00    +0.152 HD
BRANCH  24  30
ATOM     30  C   UNL     1      -5.515   2.906   6.674  0.00  0.00    -0.015 A 
ATOM     31  C   UNL     1      -4.255   2.595   7.149  0.00  0.00    +0.009 A 
ATOM     32  C   UNL     1      -4.114   1.777   8.254  0.00  0.00    +0.039 A 
ATOM     33  C   UNL     1      -5.236   1.258   8.877  0.00  0.00    +0.123 A 
ATOM     34  C   UNL     1      -6.498   1.565   8.397  0.00  0.00    +0.039 A 
ATOM     35  C   UNL     1      -6.636   2.389   7.296  0.00  0.00    +0.009 A 
ATOM     36  F   UNL     1      -5.100   0.453   9.954  0.00  0.00    -0.205 F 
ENDBRANCH  24  30
ENDBRANCH  20  21
ENDBRANCH   2  20
TORSDOF 7
