REMARK  Name = ZINC13637064
REMARK  5 active torsions:
REMARK  status: ('A' for Active; 'I' for Inactive)
REMARK    1  A    between atoms: C_1  and  C_2
REMARK    2  A    between atoms: N_5  and  S_8
REMARK    3  A    between atoms: S_8  and  C_11
REMARK    4  A    between atoms: C_24  and  C_27
REMARK    5  A    between atoms: C_30  and  O_33
REMARK                            x       y       z     vdW  Elec       q    Type
REMARK                         _______ _______ _______ _____ _____    ______ ____
ROOT
ATOM      1  C   UNL     1       3.503   4.844  -1.011  0.00  0.00    +0.106 A 
ATOM      2  C   UNL     1       2.580   5.595  -1.716  0.00  0.00    +0.030 A 
ATOM      3  C   UNL     1       1.292   5.125  -1.873  0.00  0.00    +0.025 A 
ATOM      4  C   UNL     1       0.925   3.903  -1.323  0.00  0.00    +0.031 A 
ATOM      5  C   UNL     1       1.846   3.148  -0.613  0.00  0.00    -0.018 A 
ATOM      6  C   UNL     1       3.139   3.630  -0.463  0.00  0.00    +0.034 A 
ATOM      7  C   UNL     1       1.497   1.828  -0.002  0.00  0.00    +0.049 C 
ATOM      8  C   UNL     1       2.076   0.681  -0.797  0.00  0.00    -0.023 C 
ATOM      9  C   UNL     1       1.247  -0.334  -0.798  0.00  0.00    -0.030 C 
ATOM     10  C   UNL     1       0.002  -0.004   0.002  0.00  0.00    +0.033 C 
ATOM     11  C   UNL     1      -0.019   1.553   0.011  0.00  0.00    +0.029 C 
ATOM     12  C   UNL     1      -0.644   2.008  -1.312  0.00  0.00    +0.105 C 
ATOM     13  N   UNL     1      -0.384   3.439  -1.492  0.00  0.00    -0.336 N 
ATOM     14  H   UNL     1      -1.101   4.050  -1.724  0.00  0.00    +0.147 HD
ENDROOT
BRANCH  12  15
ATOM     15  C   UNL     1      -0.030   1.236  -2.451  0.00  0.00    -0.027 A 
ATOM     16  C   UNL     1       1.203   1.609  -2.953  0.00  0.00    +0.009 A 
ATOM     17  C   UNL     1       1.770   0.900  -3.994  0.00  0.00    +0.046 A 
ATOM     18  C   UNL     1       1.096  -0.181  -4.544  0.00  0.00    +0.117 A 
ATOM     19  C   UNL     1      -0.144  -0.549  -4.043  0.00  0.00    +0.046 A 
ATOM     20  C   UNL     1      -0.704   0.160  -2.998  0.00  0.00    +0.009 A 
BRANCH  18  21
ATOM     21  O   UNL     1       1.649  -0.877  -5.571  0.00  0.00    -0.507 OA
ATOM     22  H   UNL     1       1.415  -0.539  -6.447  0.00  0.00    +0.292 HD
ENDBRANCH  18  21
ENDBRANCH  12  15
BRANCH   1  23
ATOM     23  S   UNL     1       5.149   5.439  -0.809  0.00  0.00    +0.061 S 
ATOM     24  O   UNL     1       5.967   4.301  -0.577  0.00  0.00    -0.153 OA
ATOM     25  O   UNL     1       5.387   6.344  -1.879  0.00  0.00    -0.153 OA
BRANCH  23  30
ATOM     26  C   UNL     1       3.089   7.888   3.950  0.00  0.00    +0.007 C 
ATOM     27  C   UNL     1       4.184   7.552   2.936  0.00  0.00    -0.012 C 
ATOM     28  C   UNL     1       4.365   6.034   2.865  0.00  0.00    +0.020 C 
ATOM     29  C   UNL     1       5.486   5.703   1.874  0.00  0.00    +0.110 C 
ATOM     30  N   UNL     1       5.178   6.335   0.584  0.00  0.00    -0.177 NA
ATOM     31  C   UNL     1       4.903   7.778   0.552  0.00  0.00    +0.110 C 
ATOM     32  C   UNL     1       3.784   8.084   1.558  0.00  0.00    +0.020 C 
ENDBRANCH  23  30
ENDBRANCH   1  23
TORSDOF 4
