REMARK  Name = ZINC08380821
REMARK  5 active torsions:
REMARK  status: ('A' for Active; 'I' for Inactive)
REMARK    1  A    between atoms: C_4  and  N_7
REMARK    2  A    between atoms: N_8  and  C_9
REMARK    3  A    between atoms: C_12  and  N_15
REMARK    4  A    between atoms: C_16  and  C_18
REMARK    5  A    between atoms: C_18  and  C_19
REMARK                            x       y       z     vdW  Elec       q    Type
REMARK                         _______ _______ _______ _____ _____    ______ ____
ROOT
ATOM      1  N   UNL     1      -1.112  -4.776   0.086  0.00  0.00    -0.285 N 
ATOM      2  C   UNL     1      -1.087  -6.120   0.186  0.00  0.00    +0.222 C 
ATOM      3  O   UNL     1      -0.034  -6.696   0.359  0.00  0.00    -0.275 OA
ATOM      4  H   UNL     1      -1.961  -4.308   0.049  0.00  0.00    +0.155 HD
ENDROOT
BRANCH   1   8
ATOM      5  C   UNL     1       2.458  -2.631  -0.062  0.00  0.00    +0.086 A 
ATOM      6  C   UNL     1       2.433  -3.913   0.497  0.00  0.00    +0.031 A 
ATOM      7  C   UNL     1       1.251  -4.619   0.544  0.00  0.00    +0.025 A 
ATOM      8  C   UNL     1       0.083  -4.058   0.037  0.00  0.00    +0.034 A 
ATOM      9  C   UNL     1       0.104  -2.783  -0.519  0.00  0.00    +0.025 A 
ATOM     10  C   UNL     1       1.280  -2.068  -0.565  0.00  0.00    +0.031 A 
BRANCH   5  12
ATOM     11  N   UNL     1       3.623  -0.695  -0.488  0.00  0.00    -0.149 NA
ATOM     12  N   UNL     1       3.627  -1.928  -0.110  0.00  0.00    -0.149 NA
BRANCH  11  16
ATOM     13  C   UNL     1       0.411   1.743   0.439  0.00  0.00    +0.000 A 
ATOM     14  C   UNL     1       0.633   0.588   1.169  0.00  0.00    +0.002 A 
ATOM     15  C   UNL     1       1.701  -0.229   0.866  0.00  0.00    +0.029 A 
ATOM     16  C   UNL     1       2.561   0.111  -0.182  0.00  0.00    +0.086 A 
ATOM     17  C   UNL     1       2.331   1.278  -0.915  0.00  0.00    +0.029 A 
ATOM     18  C   UNL     1       1.258   2.085  -0.601  0.00  0.00    +0.002 A 
ENDBRANCH  11  16
ENDBRANCH   5  12
ENDBRANCH   1   8
BRANCH   2  19
ATOM     19  C   UNL     1      -2.368  -6.907   0.082  0.00  0.00    +0.135 C 
BRANCH  19  20
ATOM     20  C   UNL     1      -2.067  -8.377   0.225  0.00  0.00    +0.007 A 
ATOM     21  C   UNL     1      -1.859  -9.259  -0.767  0.00  0.00    +0.200 A 
ATOM     22  O   UNL     1      -1.620 -10.477  -0.254  0.00  0.00    -0.463 OA
ATOM     23  C   UNL     1      -1.661 -10.447   1.094  0.00  0.00    +0.136 A 
ATOM     24  C   UNL     1      -1.937  -9.130   1.471  0.00  0.00    +0.031 A 
ATOM     25  C   UNL     1      -2.034  -8.798   2.886  0.00  0.00    -0.007 A 
ATOM     26  C   UNL     1      -2.312  -7.498   3.323  0.00  0.00    +0.009 A 
ATOM     27  C   UNL     1      -2.394  -7.237   4.659  0.00  0.00    +0.001 A 
ATOM     28  C   UNL     1      -2.204  -8.248   5.597  0.00  0.00    +0.001 A 
ATOM     29  C   UNL     1      -1.932  -9.524   5.206  0.00  0.00    +0.008 A 
ATOM     30  C   UNL     1      -1.841  -9.828   3.839  0.00  0.00    -0.017 A 
ATOM     31  C   UNL     1      -1.562 -11.136   3.397  0.00  0.00    +0.012 A 
ATOM     32  C   UNL     1      -1.483 -11.429   2.076  0.00  0.00    +0.047 A 
ENDBRANCH  19  20
ENDBRANCH   2  19
TORSDOF 5
