REMARK  Name = ZINC37376090
REMARK  7 active torsions:
REMARK  status: ('A' for Active; 'I' for Inactive)
REMARK    1  A    between atoms: C_4  and  C_7
REMARK    2  A    between atoms: C_7  and  N_8
REMARK    3  A    between atoms: C_9  and  N_34
REMARK    4  A    between atoms: C_11  and  C_26
REMARK    5  A    between atoms: N_17  and  C_18
REMARK    6  A    between atoms: C_18  and  C_19
REMARK    7  A    between atoms: C_19  and  C_20
REMARK                            x       y       z     vdW  Elec       q    Type
REMARK                         _______ _______ _______ _____ _____    ______ ____
ROOT
ATOM      1  N   UNL     1       4.672  -1.221   1.221  0.00  0.00    -0.244 N 
ATOM      2  C   UNL     1       5.157  -0.243   2.006  0.00  0.00    +0.126 A 
ATOM      3  C   UNL     1       5.004  -0.651   3.326  0.00  0.00    +0.086 A 
ATOM      4  C   UNL     1       5.301  -0.105   4.595  0.00  0.00    +0.091 A 
ATOM      5  N   UNL     1       4.997  -0.818   5.672  0.00  0.00    -0.214 NA
ATOM      6  C   UNL     1       4.429  -2.017   5.590  0.00  0.00    +0.218 A 
ATOM      7  N   UNL     1       4.119  -2.600   4.450  0.00  0.00    -0.193 NA
ATOM      8  C   UNL     1       4.374  -1.983   3.280  0.00  0.00    +0.188 A 
ATOM      9  N   UNL     1       4.192  -2.272   2.010  0.00  0.00    -0.149 NA
ATOM     10  N   UNL     1       4.147  -2.690   6.766  0.00  0.00    -0.313 N 
ATOM     11  H   UNL     1       4.365  -2.285   7.620  0.00  0.00    +0.149 HD
ENDROOT
BRANCH   4  12
ATOM     12  C   UNL     1       5.934   1.226   4.719  0.00  0.00    +0.039 A 
ATOM     13  C   UNL     1       5.332   2.346   4.142  0.00  0.00    +0.013 A 
ATOM     14  C   UNL     1       5.925   3.585   4.261  0.00  0.00    +0.004 A 
ATOM     15  C   UNL     1       7.117   3.723   4.951  0.00  0.00    +0.041 A 
ATOM     16  C   UNL     1       7.723   2.619   5.526  0.00  0.00    +0.159 A 
ATOM     17  C   UNL     1       7.134   1.370   5.420  0.00  0.00    +0.168 A 
ATOM     18  F   UNL     1       7.721   0.293   5.986  0.00  0.00    -0.202 F 
ATOM     19  F   UNL     1       8.887   2.761   6.197  0.00  0.00    -0.202 F 
ENDBRANCH   4  12
BRANCH   2  20
ATOM     20  N   UNL     1       5.708   0.950   1.578  0.00  0.00    -0.343 N 
ATOM     21  H   UNL     1       5.666   1.195   0.640  0.00  0.00    +0.144 HD
ATOM     22  H   UNL     1       6.136   1.543   2.215  0.00  0.00    +0.144 HD
ENDBRANCH   2  20
BRANCH   1  23
ATOM     23  C   UNL     1       4.643  -1.188  -0.243  0.00  0.00    +0.180 C 
BRANCH  23  27
ATOM     24  C   UNL     1       0.984   0.581  -1.558  0.00  0.00    +0.000 A 
ATOM     25  C   UNL     1       2.092   1.375  -1.330  0.00  0.00    +0.000 A 
ATOM     26  C   UNL     1       3.276   0.802  -0.904  0.00  0.00    +0.005 A 
ATOM     27  C   UNL     1       3.352  -0.564  -0.706  0.00  0.00    -0.026 A 
ATOM     28  C   UNL     1       2.243  -1.357  -0.934  0.00  0.00    +0.005 A 
ATOM     29  C   UNL     1       1.060  -0.785  -1.361  0.00  0.00    +0.000 A 
ENDBRANCH  23  27
ENDBRANCH   1  23
BRANCH  10  30
ATOM     30  C   UNL     1       3.521  -4.013   6.721  0.00  0.00    +0.110 C 
BRANCH  30  31
ATOM     31  C   UNL     1       3.320  -4.531   8.146  0.00  0.00    +0.074 C 
BRANCH  31  32
ATOM     32  C   UNL     1       2.676  -5.893   8.100  0.00  0.00    +0.043 A 
ATOM     33  C   UNL     1       3.279  -6.956   8.745  0.00  0.00    +0.023 A 
ATOM     34  C   UNL     1       2.678  -8.204   8.696  0.00  0.00    +0.003 A 
ATOM     35  C   UNL     1       1.488  -8.337   7.997  0.00  0.00    +0.020 A 
ATOM     36  C   UNL     1       0.944  -7.229   7.377  0.00  0.00    +0.111 A 
ATOM     37  N   UNL     1       1.541  -6.055   7.449  0.00  0.00    -0.260 NA
ENDBRANCH  31  32
ENDBRANCH  30  31
ENDBRANCH  10  30
TORSDOF 7
