REMARK  Name = ZINC04345440
REMARK  4 active torsions:
REMARK  status: ('A' for Active; 'I' for Inactive)
REMARK    1  A    between atoms: C_1  and  C_2
REMARK    2  A    between atoms: C_5  and  C_8
REMARK    3  A    between atoms: C_10  and  C_13
REMARK    4  A    between atoms: N_21  and  C_22
REMARK                            x       y       z     vdW  Elec       q    Type
REMARK                         _______ _______ _______ _____ _____    ______ ____
ROOT
ATOM      1  C   UNL     1      -1.249   2.237   0.025  0.00  0.00    +0.166 C 
ATOM      2  C   UNL     1      -1.905   2.255  -1.371  0.00  0.00    +0.034 C 
ATOM      3  C   UNL     1      -3.421   2.248  -1.043  0.00  0.00    +0.021 C 
ATOM      4  C   UNL     1      -3.462   1.348   0.218  0.00  0.00    +0.110 C 
ATOM      5  N   UNL     1      -2.239   1.691   0.966  0.00  0.00    -0.274 N 
ATOM      6  C   UNL     1      -2.058   1.530   2.291  0.00  0.00    +0.307 C 
ATOM      7  O   UNL     1      -1.002   1.849   2.804  0.00  0.00    -0.252 OA
ATOM      8  N   UNL     1      -3.047   1.017   3.049  0.00  0.00    -0.267 N 
ATOM      9  H   UNL     1      -3.911   0.823   2.653  0.00  0.00    +0.156 HD
ENDROOT
BRANCH   8  10
ATOM     10  C   UNL     1      -2.827   0.762   4.410  0.00  0.00    +0.070 A 
ATOM     11  C   UNL     1      -2.002   1.599   5.149  0.00  0.00    +0.029 A 
ATOM     12  C   UNL     1      -1.787   1.347   6.490  0.00  0.00    +0.040 A 
ATOM     13  C   UNL     1      -2.393   0.261   7.099  0.00  0.00    +0.126 A 
ATOM     14  C   UNL     1      -3.216  -0.576   6.365  0.00  0.00    +0.078 A 
ATOM     15  C   UNL     1      -3.439  -0.325   5.023  0.00  0.00    +0.147 A 
ATOM     16  F   UNL     1      -4.247  -1.138   4.308  0.00  0.00    -0.203 F 
ATOM     17  F   UNL     1      -2.180   0.017   8.411  0.00  0.00    -0.205 F 
ENDBRANCH   8  10
BRANCH   1  20
ATOM     18  C   UNL     1       1.969   0.636  -0.029  0.00  0.00    +0.202 A 
ATOM     19  N   UNL     1       1.222   1.763  -0.005  0.00  0.00    -0.190 NA
ATOM     20  C   UNL     1      -0.024   1.359   0.004  0.00  0.00    +0.248 A 
ATOM     21  O   UNL     1      -0.005   0.023  -0.014  0.00  0.00    -0.336 OA
ATOM     22  N   UNL     1       1.141  -0.376  -0.033  0.00  0.00    -0.056 NA
BRANCH  18  27
ATOM     23  C   UNL     1       7.721   0.346  -0.100  0.00  0.00    +0.044 C 
ATOM     24  C   UNL     1       6.216   0.421  -0.081  0.00  0.00    -0.050 A 
ATOM     25  C   UNL     1       5.467  -0.742  -0.088  0.00  0.00    +0.004 A 
ATOM     26  C   UNL     1       4.088  -0.678  -0.071  0.00  0.00    +0.012 A 
ATOM     27  C   UNL     1       3.451   0.561  -0.047  0.00  0.00    +0.022 A 
ATOM     28  C   UNL     1       4.210   1.729  -0.046  0.00  0.00    +0.012 A 
ATOM     29  C   UNL     1       5.588   1.654  -0.057  0.00  0.00    +0.004 A 
ENDBRANCH  18  27
ENDBRANCH   1  20
TORSDOF 3
