REMARK  Name = ZINC24759256
REMARK  7 active torsions:
REMARK  status: ('A' for Active; 'I' for Inactive)
REMARK    1  A    between atoms: C_1  and  O_2
REMARK    2  A    between atoms: O_2  and  C_3
REMARK    3  A    between atoms: C_8  and  C_9
REMARK    4  A    between atoms: C_9  and  N_10
REMARK    5  A    between atoms: N_22  and  C_25
REMARK    6  A    between atoms: C_25  and  N_26
REMARK    7  A    between atoms: C_30  and  C_32
REMARK                            x       y       z     vdW  Elec       q    Type
REMARK                         _______ _______ _______ _____ _____    ______ ____
ROOT
ATOM      1  N   UNL     1      -6.057   4.743   4.825  0.00  0.00    -0.272 N 
ATOM      2  C   UNL     1      -6.385   4.589   6.124  0.00  0.00    +0.263 A 
ATOM      3  O   UNL     1      -7.270   5.258   6.620  0.00  0.00    -0.267 OA
ATOM      4  C   UNL     1      -5.653   3.596   6.932  0.00  0.00    +0.064 A 
ATOM      5  C   UNL     1      -5.954   3.398   8.278  0.00  0.00    +0.015 A 
ATOM      6  C   UNL     1      -5.249   2.460   9.003  0.00  0.00    +0.001 A 
ATOM      7  C   UNL     1      -4.247   1.716   8.399  0.00  0.00    +0.002 A 
ATOM      8  C   UNL     1      -3.940   1.904   7.066  0.00  0.00    +0.027 A 
ATOM      9  C   UNL     1      -4.639   2.843   6.322  0.00  0.00    +0.064 A 
ATOM     10  N   UNL     1      -4.348   3.050   4.975  0.00  0.00    -0.257 N 
ATOM     11  C   UNL     1      -5.049   3.985   4.246  0.00  0.00    +0.238 A 
ATOM     12  N   UNL     1      -4.584   3.987   3.026  0.00  0.00    -0.133 NA
ATOM     13  N   UNL     1      -3.564   3.030   2.945  0.00  0.00    -0.255 N 
ATOM     14  C   UNL     1      -3.439   2.470   4.164  0.00  0.00    +0.182 A 
ATOM     15  S   UNL     1      -2.327   1.245   4.604  0.00  0.00    -0.011 S 
ENDROOT
BRANCH   1  16
ATOM     16  C   UNL     1      -6.777   5.726   4.012  0.00  0.00    +0.167 C 
BRANCH  16  22
ATOM     17  C   UNL     1      -4.946   7.291   3.316  0.00  0.00    +0.125 A 
ATOM     18  C   UNL     1      -4.299   8.517   3.391  0.00  0.00    +0.046 A 
ATOM     19  C   UNL     1      -4.778   9.499   4.236  0.00  0.00    +0.004 A 
ATOM     20  C   UNL     1      -5.902   9.261   5.007  0.00  0.00    +0.001 A 
ATOM     21  C   UNL     1      -6.550   8.043   4.931  0.00  0.00    +0.009 A 
ATOM     22  C   UNL     1      -6.072   7.056   4.091  0.00  0.00    +0.014 A 
BRANCH  17  24
ATOM     23  C   UNL     1      -3.312   6.636   1.718  0.00  0.00    +0.277 C 
ATOM     24  O   UNL     1      -4.476   6.323   2.486  0.00  0.00    -0.495 OA
ENDBRANCH  17  24
ENDBRANCH  16  22
ENDBRANCH   1  16
BRANCH  13  25
ATOM     25  C   UNL     1      -2.775   2.703   1.754  0.00  0.00    +0.073 C 
BRANCH  25  26
ATOM     26  N   UNL     1      -3.439   1.626   1.008  0.00  0.00    +0.397 N 
ATOM     27  C   UNL     1      -4.624   2.135   0.285  0.00  0.00    -0.075 C 
ATOM     28  C   UNL     1      -4.687   1.293  -1.014  0.00  0.00    -0.020 C 
ATOM     29  C   UNL     1      -3.183   1.134  -1.358  0.00  0.00    -0.012 C 
ATOM     30  C   UNL     1      -2.519   1.015   0.031  0.00  0.00    -0.034 C 
ATOM     31  H   UNL     1      -3.748   0.871   1.746  0.00  0.00    -0.078 HD
BRANCH  30  32
ATOM     32  C   UNL     1      -1.204   1.751   0.035  0.00  0.00    -0.043 A 
ATOM     33  C   UNL     1      -1.141   3.078  -0.363  0.00  0.00    +0.005 A 
ATOM     34  C   UNL     1       0.089   3.717  -0.337  0.00  0.00    +0.020 A 
ATOM     35  C   UNL     1       1.205   3.013   0.076  0.00  0.00    +0.111 A 
ATOM     36  N   UNL     1       1.108   1.750   0.442  0.00  0.00    -0.263 NA
ATOM     37  C   UNL     1      -0.045   1.111   0.431  0.00  0.00    +0.112 A 
ENDBRANCH  30  32
ENDBRANCH  25  26
ENDBRANCH  13  25
TORSDOF 6
