REMARK  Name = ZINC20568337
REMARK  10 active torsions:
REMARK  status: ('A' for Active; 'I' for Inactive)
REMARK    1  A    between atoms: C_1  and  C_2
REMARK    2  A    between atoms: C_2  and  C_35
REMARK    3  A    between atoms: C_6  and  C_22
REMARK    4  A    between atoms: C_8  and  C_20
REMARK    5  A    between atoms: C_9  and  N_19
REMARK    6  A    between atoms: N_10  and  C_11
REMARK    7  A    between atoms: C_14  and  O_17
REMARK    8  A    between atoms: O_17  and  C_18
REMARK    9  A    between atoms: C_25  and  S_28
REMARK   10  A    between atoms: S_28  and  N_31
REMARK                            x       y       z     vdW  Elec       q    Type
REMARK                         _______ _______ _______ _____ _____    ______ ____
ROOT
ATOM      1  C   UNL     1       0.118   3.393   3.126  0.00  0.00    +0.011 C 
ATOM      2  C   UNL     1      -0.744   3.671   1.892  0.00  0.00    -0.023 C 
ATOM      3  C   UNL     1       0.109   4.332   0.807  0.00  0.00    +0.058 C 
ATOM      4  C   UNL     1       1.225   3.401   0.403  0.00  0.00    +0.025 C 
ATOM      5  C   UNL     1       1.063   2.061   0.447  0.00  0.00    +0.025 C 
ATOM      6  C   UNL     1       2.170   1.132   0.018  0.00  0.00    +0.097 C 
ATOM      7  C   UNL     1       3.493   1.840  -0.003  0.00  0.00    +0.077 C 
ATOM      8  C   UNL     1       3.563   3.196  -0.023  0.00  0.00    +0.107 C 
ATOM      9  N   UNL     1       2.410   3.947  -0.016  0.00  0.00    -0.260 N 
ATOM     10  C   UNL     1      -0.144   1.492   0.890  0.00  0.00    +0.162 C 
ATOM     11  O   UNL     1      -0.261   0.282   0.909  0.00  0.00    -0.292 OA
ATOM     12  C   UNL     1      -1.295   2.351   1.335  0.00  0.00    +0.086 C 
ATOM     13  C   UNL     1      -1.901   4.596   2.272  0.00  0.00    +0.011 C 
ENDROOT
BRANCH   9  14
ATOM     14  C   UNL     1       2.447   5.282  -0.440  0.00  0.00    +0.040 A 
ATOM     15  C   UNL     1       2.766   6.289   0.462  0.00  0.00    +0.027 A 
ATOM     16  C   UNL     1       2.808   7.603   0.041  0.00  0.00    +0.047 A 
ATOM     17  C   UNL     1       2.522   7.920  -1.279  0.00  0.00    +0.120 A 
ATOM     18  C   UNL     1       2.199   6.915  -2.179  0.00  0.00    +0.047 A 
ATOM     19  C   UNL     1       2.161   5.599  -1.762  0.00  0.00    +0.027 A 
BRANCH  17  20
ATOM     20  O   UNL     1       2.560   9.215  -1.691  0.00  0.00    -0.495 OA
ATOM     21  C   UNL     1       2.900  10.197  -0.711  0.00  0.00    +0.277 C 
ENDBRANCH  17  20
ENDBRANCH   9  14
BRANCH   6  22
ATOM     22  C   UNL     1       1.868   0.607  -1.362  0.00  0.00    -0.035 A 
ATOM     23  C   UNL     1       1.728   1.485  -2.420  0.00  0.00    +0.006 A 
ATOM     24  C   UNL     1       1.455   1.002  -3.687  0.00  0.00    +0.029 A 
ATOM     25  C   UNL     1       1.313  -0.357  -3.893  0.00  0.00    +0.105 A 
ATOM     26  C   UNL     1       1.449  -1.235  -2.834  0.00  0.00    +0.029 A 
ATOM     27  C   UNL     1       1.726  -0.753  -1.568  0.00  0.00    +0.006 A 
BRANCH  25  28
ATOM     28  S   UNL     1       0.959  -0.971  -5.506  0.00  0.00    +0.056 S 
ATOM     29  O   UNL     1       1.421   0.010  -6.425  0.00  0.00    -0.153 OA
ATOM     30  O   UNL     1       1.413  -2.317  -5.537  0.00  0.00    -0.153 OA
BRANCH  28  31
ATOM     31  N   UNL     1      -0.689  -1.024  -5.659  0.00  0.00    -0.204 NA
ATOM     32  H   UNL     1      -0.953  -1.404  -6.657  0.00  0.00    +0.144 HD
ATOM     33  H   UNL     1      -1.102  -0.013  -5.530  0.00  0.00    +0.144 HD
ENDBRANCH  28  31
ENDBRANCH  25  28
ENDBRANCH   6  22
BRANCH   8  34
ATOM     34  N   UNL     1       4.787   3.820  -0.050  0.00  0.00    -0.345 N 
ATOM     35  H   UNL     1       4.845   4.918  -0.065  0.00  0.00    +0.144 HD
ATOM     36  H   UNL     1       5.710   3.220  -0.055  0.00  0.00    +0.144 HD
ENDBRANCH   8  34
BRANCH   7  37
ATOM     37  C   UNL     1       4.702   1.072  -0.003  0.00  0.00    +0.099 C 
ATOM     38  N   UNL     1       5.662   0.464  -0.002  0.00  0.00    -0.191 NA
ENDBRANCH   7  37
TORSDOF 7
