REMARK  Name = ZINC08762727
REMARK  12 active torsions:
REMARK  status: ('A' for Active; 'I' for Inactive)
REMARK    1  A    between atoms: C_1  and  N_59
REMARK    2  A    between atoms: C_8  and  O_27
REMARK    3  A    between atoms: C_10  and  C_12
REMARK    4  A    between atoms: C_12  and  C_13
REMARK    5  A    between atoms: C_13  and  C_16
REMARK    6  A    between atoms: N_14  and  O_15
REMARK    7  A    between atoms: C_16  and  C_17
REMARK    8  A    between atoms: C_17  and  C_18
REMARK    9  A    between atoms: C_21  and  O_26
REMARK   10  A    between atoms: C_22  and  O_24
REMARK   11  A    between atoms: O_24  and  C_25
REMARK   12  A    between atoms: O_27  and  C_28
REMARK                            x       y       z     vdW  Elec       q    Type
REMARK                         _______ _______ _______ _____ _____    ______ ____
ROOT
ATOM      1  C   UNL     1      -3.531   1.191   1.006  0.00  0.00    -0.095 C 
ATOM      2  C   UNL     1      -1.873  -0.394   0.222  0.00  0.00    -0.074 C 
ATOM      3  C   UNL     1      -0.392  -0.741   0.367  0.00  0.00    +0.017 C 
ATOM      4  C   UNL     1       0.456   0.390  -0.159  0.00  0.00    -0.040 A 
ATOM      5  C   UNL     1       1.788   0.136  -0.448  0.00  0.00    +0.053 A 
ATOM      6  C   UNL     1       2.608   1.143  -0.926  0.00  0.00    +0.170 A 
ATOM      7  C   UNL     1       2.091   2.421  -1.116  0.00  0.00    +0.208 A 
ATOM      8  C   UNL     1       0.757   2.671  -0.827  0.00  0.00    +0.167 A 
ATOM      9  C   UNL     1      -0.062   1.653  -0.350  0.00  0.00    -0.012 A 
ATOM     10  C   UNL     1      -1.506   1.972  -0.062  0.00  0.00    -0.028 C 
ATOM     11  O   UNL     1       3.086   3.229  -1.588  0.00  0.00    -0.449 OA
ATOM     12  C   UNL     1       4.109   2.338  -2.071  0.00  0.00    +0.467 C 
ATOM     13  O   UNL     1       3.927   1.149  -1.278  0.00  0.00    -0.452 OA
ATOM     14  N   UNL     1      -2.085   0.942   0.817  0.00  0.00    +0.383 N 
ATOM     15  H   UNL     1      -1.618   0.980   1.731  0.00  0.00    -0.081 HD
ENDROOT
BRANCH   8  16
ATOM     16  O   UNL     1       0.248   3.919  -1.012  0.00  0.00    -0.491 OA
ATOM     17  C   UNL     1      -0.186   4.253  -2.332  0.00  0.00    +0.277 C 
ENDBRANCH   8  16
BRANCH  10  18
ATOM     18  C   UNL     1      -1.593   3.328   0.641  0.00  0.00    +0.043 C 
BRANCH  18  19
ATOM     19  C   UNL     1      -0.716   3.315   1.867  0.00  0.00    +0.057 C 
ATOM     20  N   UNL     1      -0.146   2.230   2.234  0.00  0.00    -0.097 NA
BRANCH  20  21
ATOM     21  O   UNL     1       0.580   2.188   3.449  0.00  0.00    -0.409 OA
ATOM     22  H   UNL     1       0.975   1.326   3.642  0.00  0.00    +0.328 HD
ENDBRANCH  20  21
BRANCH  19  23
ATOM     23  C   UNL     1      -0.510   4.580   2.660  0.00  0.00    +0.059 C 
BRANCH  23  24
ATOM     24  C   UNL     1      -1.601   4.696   3.726  0.00  0.00    +0.041 C 
BRANCH  24  25
ATOM     25  C   UNL     1      -1.463   6.014   4.444  0.00  0.00    -0.043 A 
ATOM     26  C   UNL     1      -0.676   6.104   5.577  0.00  0.00    +0.007 A 
ATOM     27  C   UNL     1      -0.542   7.312   6.235  0.00  0.00    +0.049 A 
ATOM     28  C   UNL     1      -1.207   8.434   5.767  0.00  0.00    +0.158 A 
ATOM     29  C   UNL     1      -2.004   8.342   4.630  0.00  0.00    +0.162 A 
ATOM     30  C   UNL     1      -2.129   7.130   3.971  0.00  0.00    +0.053 A 
BRANCH  29  31
ATOM     31  O   UNL     1      -2.658   9.441   4.166  0.00  0.00    -0.491 OA
ATOM     32  C   UNL     1      -3.458   9.272   2.994  0.00  0.00    +0.277 C 
ENDBRANCH  29  31
BRANCH  28  33
ATOM     33  O   UNL     1      -1.081   9.622   6.417  0.00  0.00    -0.503 OA
ATOM     34  H   UNL     1      -1.740   9.763   7.109  0.00  0.00    +0.292 HD
ENDBRANCH  28  33
ENDBRANCH  24  25
ENDBRANCH  23  24
ENDBRANCH  19  23
ENDBRANCH  18  19
ENDBRANCH  10  18
TORSDOF 9
