REMARK  Name = ZINC19498293
REMARK  9 active torsions:
REMARK  status: ('A' for Active; 'I' for Inactive)
REMARK    1  A    between atoms: C_1  and  C_2
REMARK    2  A    between atoms: N_16  and  C_17
REMARK    3  A    between atoms: C_17  and  C_18
REMARK    4  A    between atoms: C_18  and  C_20
REMARK    5  A    between atoms: C_18  and  O_32
REMARK    6  A    between atoms: C_23  and  O_30
REMARK    7  A    between atoms: C_24  and  N_26
REMARK    8  A    between atoms: C_27  and  C_29
REMARK    9  A    between atoms: O_30  and  C_31
REMARK                            x       y       z     vdW  Elec       q    Type
REMARK                         _______ _______ _______ _____ _____    ______ ____
ROOT
ATOM      1  C   UNL     1       0.835   5.559   0.352  0.00  0.00    -0.041 C 
ENDROOT
BRANCH   1  16
ATOM      2  C   UNL     1       0.902   3.414  -1.638  0.00  0.00    -0.007 C 
ATOM      3  C   UNL     1      -0.044   3.442  -0.436  0.00  0.00    -0.024 C 
ATOM      4  C   UNL     1      -0.351   2.029   0.002  0.00  0.00    +0.006 A 
ATOM      5  C   UNL     1      -0.366   1.646   1.299  0.00  0.00    -0.022 A 
ATOM      6  C   UNL     1      -0.690   0.237   1.324  0.00  0.00    +0.003 A 
ATOM      7  C   UNL     1      -0.842  -0.686   2.364  0.00  0.00    +0.010 A 
ATOM      8  C   UNL     1      -1.159  -1.974   2.010  0.00  0.00    +0.001 A 
ATOM      9  C   UNL     1      -1.324  -2.355   0.689  0.00  0.00    +0.002 A 
ATOM     10  C   UNL     1      -1.180  -1.464  -0.360  0.00  0.00    +0.026 A 
ATOM     11  C   UNL     1      -0.858  -0.149  -0.032  0.00  0.00    +0.047 A 
ATOM     12  N   UNL     1      -0.647   0.960  -0.800  0.00  0.00    -0.359 N 
ATOM     13  H   UNL     1      -0.683   1.085  -1.892  0.00  0.00    +0.166 HD
ATOM     14  C   UNL     1      -0.089   2.584   2.446  0.00  0.00    +0.019 C 
ATOM     15  C   UNL     1      -0.187   4.021   1.919  0.00  0.00    -0.073 C 
ATOM     16  N   UNL     1       0.599   4.147   0.684  0.00  0.00    +0.387 N 
ATOM     17  H   UNL     1       1.576   3.673   0.862  0.00  0.00    -0.081 HD
ENDBRANCH   1  16
BRANCH   1  18
ATOM     18  C   UNL     1      -0.483   6.330   0.442  0.00  0.00    +0.128 C 
BRANCH  18  19
ATOM     19  C   UNL     1      -0.217   7.802   0.252  0.00  0.00    -0.019 A 
ATOM     20  C   UNL     1      -0.142   8.330  -1.024  0.00  0.00    +0.010 A 
ATOM     21  C   UNL     1       0.097   9.679  -1.204  0.00  0.00    +0.048 A 
ATOM     22  C   UNL     1       0.271  10.505  -0.106  0.00  0.00    +0.141 A 
ATOM     23  C   UNL     1       0.200   9.973   1.179  0.00  0.00    +0.076 A 
ATOM     24  C   UNL     1      -0.045   8.619   1.353  0.00  0.00    +0.033 A 
BRANCH  23  25
ATOM     25  N   UNL     1       0.376  10.804   2.294  0.00  0.00    -0.283 N 
ATOM     26  C   UNL     1       0.974  10.326   3.403  0.00  0.00    +0.214 C 
ATOM     27  O   UNL     1       1.280   9.154   3.470  0.00  0.00    -0.276 OA
ATOM     28  C   UNL     1       1.263  11.247   4.561  0.00  0.00    +0.109 C 
ATOM     29  H   UNL     1       0.025  11.846   2.264  0.00  0.00    +0.155 HD
ENDBRANCH  23  25
BRANCH  22  30
ATOM     30  O   UNL     1       0.512  11.832  -0.282  0.00  0.00    -0.493 OA
ATOM     31  C   UNL     1       0.571  12.308  -1.628  0.00  0.00    +0.277 C 
ENDBRANCH  22  30
ENDBRANCH  18  19
BRANCH  18  32
ATOM     32  O   UNL     1      -1.374   5.872  -0.577  0.00  0.00    -0.389 OA
ATOM     33  H   UNL     1      -2.378   6.313  -0.669  0.00  0.00    +0.210 HD
ENDBRANCH  18  32
ENDBRANCH   1  18
TORSDOF 6
