REMARK  Name = ZINC63646327
REMARK  6 active torsions:
REMARK  status: ('A' for Active; 'I' for Inactive)
REMARK    1  A    between atoms: C_1  and  C_2
REMARK    2  A    between atoms: C_2  and  C_3
REMARK    3  A    between atoms: C_2  and  N_15
REMARK    4  A    between atoms: C_16  and  C_18
REMARK    5  A    between atoms: C_18  and  N_19
REMARK    6  A    between atoms: N_19  and  C_20
REMARK                            x       y       z     vdW  Elec       q    Type
REMARK                         _______ _______ _______ _____ _____    ______ ____
ROOT
ATOM      1  C   UNL     1      -0.019   1.526   0.010  0.00  0.00    +0.033 C 
ATOM      2  C   UNL     1       0.002  -0.004   0.002  0.00  0.00    +0.100 C 
ENDROOT
BRANCH   2   3
ATOM      3  C   UNL     1       0.731  -0.503   1.223  0.00  0.00    -0.025 A 
ATOM      4  C   UNL     1       2.115  -0.512   1.244  0.00  0.00    +0.007 A 
ATOM      5  C   UNL     1       2.792  -0.968   2.358  0.00  0.00    +0.028 A 
ATOM      6  C   UNL     1       2.082  -1.418   3.461  0.00  0.00    +0.067 A 
ATOM      7  C   UNL     1       0.686  -1.409   3.440  0.00  0.00    +0.067 A 
ATOM      8  C   UNL     1       0.015  -0.944   2.319  0.00  0.00    +0.033 A 
ATOM      9  N   UNL     1       0.262  -1.910   4.668  0.00  0.00    -0.306 N 
ATOM     10  H   UNL     1      -0.660  -2.023   4.947  0.00  0.00    +0.170 HD
ATOM     11  C   UNL     1       1.350  -2.210   5.402  0.00  0.00    +0.325 A 
ATOM     12  O   UNL     1       1.330  -2.670   6.529  0.00  0.00    -0.247 OA
ATOM     13  N   UNL     1       2.463  -1.924   4.701  0.00  0.00    -0.306 N 
ATOM     14  H   UNL     1       3.375  -2.050   5.007  0.00  0.00    +0.170 HD
ENDBRANCH   2   3
BRANCH   2  15
ATOM     15  N   UNL     1       0.688  -0.476  -1.203  0.00  0.00    -0.307 N 
ATOM     16  C   UNL     1       0.006  -0.608  -2.358  0.00  0.00    +0.231 C 
ATOM     17  O   UNL     1      -1.175  -0.336  -2.400  0.00  0.00    -0.274 OA
ATOM     18  H   UNL     1       1.632  -0.695  -1.170  0.00  0.00    +0.149 HD
BRANCH  16  19
ATOM     19  C   UNL     1       0.712  -1.094  -3.598  0.00  0.00    +0.197 C 
BRANCH  19  20
ATOM     20  N   UNL     1      -0.240  -1.150  -4.711  0.00  0.00    -0.334 N 
ATOM     21  H   UNL     1      -1.165  -0.893  -4.572  0.00  0.00    +0.147 HD
BRANCH  20  22
ATOM     22  C   UNL     1       0.185  -1.575  -5.973  0.00  0.00    +0.046 A 
ATOM     23  C   UNL     1       1.508  -1.949  -6.173  0.00  0.00    +0.024 A 
ATOM     24  C   UNL     1       1.925  -2.368  -7.421  0.00  0.00    +0.002 A 
ATOM     25  C   UNL     1       1.027  -2.416  -8.472  0.00  0.00    +0.002 A 
ATOM     26  C   UNL     1      -0.290  -2.044  -8.278  0.00  0.00    +0.022 A 
ATOM     27  C   UNL     1      -0.716  -1.628  -7.030  0.00  0.00    +0.062 A 
ATOM     28 CL   UNL     1      -2.372  -1.168  -6.785  0.00  0.00    -0.082 Cl
ENDBRANCH  20  22
ENDBRANCH  19  20
ENDBRANCH  16  19
ENDBRANCH   2  15
TORSDOF 5
