REMARK  Name = ZINC04865509
REMARK  4 active torsions:
REMARK  status: ('A' for Active; 'I' for Inactive)
REMARK    1  A    between atoms: C_4  and  N_24
REMARK    2  A    between atoms: C_5  and  N_7
REMARK    3  A    between atoms: N_7  and  S_8
REMARK    4  A    between atoms: S_8  and  C_11
REMARK                            x       y       z     vdW  Elec       q    Type
REMARK                         _______ _______ _______ _____ _____    ______ ____
ROOT
ATOM      1  S   UNL     1      -0.072   1.487   0.064  0.00  0.00    +0.073 S 
ATOM      2  O   UNL     1       0.036   0.075   0.178  0.00  0.00    -0.150 OA
ATOM      3  O   UNL     1       1.065   2.340   0.045  0.00  0.00    -0.150 OA
ENDROOT
BRANCH   1   4
ATOM      4  C   UNL     1      -1.083   2.025   1.403  0.00  0.00    +0.116 A 
ATOM      5  C   UNL     1      -1.546   1.133   2.332  0.00  0.00    +0.031 A 
ATOM      6  C   UNL     1      -2.343   1.502   3.415  0.00  0.00    +0.026 A 
ATOM      7  C   UNL     1      -2.712   2.824   3.584  0.00  0.00    +0.042 A 
ATOM      8  C   UNL     1      -2.238   3.718   2.629  0.00  0.00    +0.017 A 
ATOM      9  C   UNL     1      -1.435   3.378   1.539  0.00  0.00    +0.011 A 
ATOM     10  C   UNL     1      -1.050   4.418   0.676  0.00  0.00    +0.010 A 
ATOM     11  C   UNL     1      -1.476   5.692   0.942  0.00  0.00    +0.001 A 
ATOM     12  C   UNL     1      -2.278   6.015   2.036  0.00  0.00    +0.014 A 
ATOM     13  C   UNL     1      -2.678   5.020   2.910  0.00  0.00    +0.047 A 
ATOM     14  C   UNL     1      -3.477   4.873   4.133  0.00  0.00    +0.249 C 
ATOM     15  O   UNL     1      -4.050   5.769   4.725  0.00  0.00    -0.270 OA
ATOM     16  N   UNL     1      -3.465   3.561   4.488  0.00  0.00    -0.281 N 
ATOM     17  H   UNL     1      -3.918   3.192   5.262  0.00  0.00    +0.155 HD
ENDBRANCH   1   4
BRANCH   1  18
ATOM     18  N   UNL     1      -0.911   1.786  -1.333  0.00  0.00    -0.214 N 
ATOM     19  H   UNL     1      -0.594   2.460  -1.954  0.00  0.00    +0.174 HD
BRANCH  18  24
ATOM     20  C   UNL     1      -4.086  -0.005  -0.870  0.00  0.00    +0.002 A 
ATOM     21  C   UNL     1      -4.381  -0.355  -2.175  0.00  0.00    +0.002 A 
ATOM     22  C   UNL     1      -3.527   0.005  -3.201  0.00  0.00    +0.034 A 
ATOM     23  C   UNL     1      -2.375   0.715  -2.925  0.00  0.00    +0.148 A 
ATOM     24  C   UNL     1      -2.075   1.068  -1.615  0.00  0.00    +0.078 A 
ATOM     25  C   UNL     1      -2.933   0.700  -0.586  0.00  0.00    +0.027 A 
BRANCH  23  26
ATOM     26  N   UNL     1      -1.460   1.099  -4.023  0.00  0.00    +0.058 N 
ATOM     27  O   UNL     1      -1.724   0.790  -5.171  0.00  0.00    -0.126 OA
ATOM     28  O   UNL     1      -0.444   1.726  -3.779  0.00  0.00    -0.126 OA
ENDBRANCH  23  26
ENDBRANCH  18  24
ENDBRANCH   1  18
TORSDOF 4
