REMARK  Name = ZINC32594644
REMARK  6 active torsions:
REMARK  status: ('A' for Active; 'I' for Inactive)
REMARK    1  A    between atoms: C_1  and  C_2
REMARK    2  A    between atoms: C_1  and  C_6
REMARK    3  A    between atoms: C_2  and  C_3
REMARK    4  A    between atoms: C_6  and  N_7
REMARK    5  A    between atoms: C_10  and  C_15
REMARK    6  A    between atoms: C_15  and  C_16
REMARK                            x       y       z     vdW  Elec       q    Type
REMARK                         _______ _______ _______ _____ _____    ______ ____
ROOT
ATOM      1  N   UNL     1       1.313  -0.309  -0.012  0.00  0.00    -0.259 N 
ATOM      2  C   UNL     1       2.271   0.603  -0.016  0.00  0.00    +0.234 C 
ATOM      3  O   UNL     1       3.447   0.308  -0.029  0.00  0.00    -0.274 OA
ATOM      4  C   UNL     1       1.796   2.049  -0.004  0.00  0.00    +0.150 C 
ATOM      5  S   UNL     1      -0.022   1.782   0.012  0.00  0.00    -0.089 S 
ATOM      6  C   UNL     1       0.002  -0.004   0.002  0.00  0.00    +0.116 C 
ATOM      7  S   UNL     1      -1.331  -1.078   0.009  0.00  0.00    -0.028 S 
ENDROOT
BRANCH   1   8
ATOM      8  C   UNL     1       1.698  -1.722  -0.023  0.00  0.00    +0.115 C 
BRANCH   8   9
ATOM      9  C   UNL     1       1.819  -2.207  -1.469  0.00  0.00    +0.031 C 
BRANCH   9  10
ATOM     10  C   UNL     1       2.222  -3.683  -1.480  0.00  0.00    +0.126 C 
BRANCH  10  11
ATOM     11  C   UNL     1       2.341  -4.160  -2.905  0.00  0.00    +0.356 C 
ATOM     12  O   UNL     1       2.126  -3.398  -3.817  0.00  0.00    -0.246 OA
ATOM     13  O   UNL     1       2.686  -5.432  -3.160  0.00  0.00    -0.246 OA
ENDBRANCH  10  11
ENDBRANCH   9  10
ENDBRANCH   8   9
ENDBRANCH   1   8
BRANCH   4  14
ATOM     14  C   UNL     1       2.238   2.791  -1.267  0.00  0.00    +0.149 C 
BRANCH  14  15
ATOM     15  C   UNL     1       1.683   4.192  -1.247  0.00  0.00    +0.358 C 
ATOM     16  O   UNL     1       1.003   4.559  -0.318  0.00  0.00    -0.246 OA
ATOM     17  O   UNL     1       1.944   5.032  -2.261  0.00  0.00    -0.246 OA
ENDBRANCH  14  15
ENDBRANCH   4  14
TORSDOF 6
