REMARK  Name = ZINC39709347
REMARK  9 active torsions:
REMARK  status: ('A' for Active; 'I' for Inactive)
REMARK    1  A    between atoms: C_1  and  C_2
REMARK    2  A    between atoms: C_2  and  C_3
REMARK    3  A    between atoms: C_8  and  C_12
REMARK    4  A    between atoms: C_12  and  C_14
REMARK    5  A    between atoms: C_14  and  S_15
REMARK    6  A    between atoms: S_15  and  C_16
REMARK    7  A    between atoms: C_20  and  C_27
REMARK    8  A    between atoms: N_22  and  C_23
REMARK    9  A    between atoms: C_23  and  C_24
REMARK                            x       y       z     vdW  Elec       q    Type
REMARK                         _______ _______ _______ _____ _____    ______ ____
ROOT
ATOM      1  C   UNL     1       9.378  -2.250  -3.650  0.00  0.00    +0.078 C 
ATOM      2  N   UNL     1       9.339  -3.015  -2.383  0.00  0.00    -0.262 NA
ATOM      3  N   UNL     1      10.258  -2.292  -1.489  0.00  0.00    -0.267 NA
ATOM      4  C   UNL     1      10.010  -0.868  -1.834  0.00  0.00    +0.050 C 
ATOM      5  N   UNL     1       9.805  -0.879  -3.302  0.00  0.00    +0.417 N 
ATOM      6  H   UNL     1       8.406  -3.036  -2.001  0.00  0.00    +0.140 HD
ATOM      7  H   UNL     1      10.037  -2.473  -0.521  0.00  0.00    +0.139 HD
ATOM      8  H   UNL     1       9.087  -0.218  -3.557  0.00  0.00    -0.074 HD
ENDROOT
BRANCH   4   9
ATOM      9  C   UNL     1      11.204  -0.022  -1.472  0.00  0.00    -0.046 A 
ATOM     10  C   UNL     1      11.021   1.262  -0.994  0.00  0.00    +0.005 A 
ATOM     11  C   UNL     1      12.116   2.038  -0.662  0.00  0.00    +0.020 A 
ATOM     12  C   UNL     1      13.394   1.530  -0.809  0.00  0.00    +0.041 A 
ATOM     13  C   UNL     1      13.576   0.244  -1.288  0.00  0.00    +0.020 A 
ATOM     14  C   UNL     1      12.480  -0.533  -1.614  0.00  0.00    +0.005 A 
ATOM     15 CL   UNL     1      14.769   2.504  -0.393  0.00  0.00    -0.084 Cl
ENDBRANCH   4   9
BRANCH   1  16
ATOM     16  S   UNL     1       7.729  -2.215  -4.405  0.00  0.00    -0.152 S 
BRANCH  16  17
ATOM     17  C   UNL     1       6.679  -1.463  -3.132  0.00  0.00    +0.148 C 
BRANCH  17  18
ATOM     18  C   UNL     1       5.262  -1.374  -3.638  0.00  0.00    +0.171 C 
ATOM     19  O   UNL     1       4.988  -1.778  -4.750  0.00  0.00    -0.291 OA
BRANCH  18  25
ATOM     20  C   UNL     1       0.787   0.216  -2.089  0.00  0.00    -0.024 A 
ATOM     21  C   UNL     1       0.151  -0.124  -3.231  0.00  0.00    +0.005 A 
ATOM     22  C   UNL     1       0.827  -0.715  -4.310  0.00  0.00    +0.001 A 
ATOM     23  C   UNL     1       2.152  -0.981  -4.279  0.00  0.00    +0.010 A 
ATOM     24  C   UNL     1       2.916  -0.665  -3.131  0.00  0.00    +0.006 A 
ATOM     25  C   UNL     1       4.255  -0.820  -2.820  0.00  0.00    +0.024 C 
ATOM     26  C   UNL     1       4.412  -0.271  -1.419  0.00  0.00    +0.152 C 
ATOM     27  N   UNL     1       3.080   0.181  -1.007  0.00  0.00    -0.380 N 
ATOM     28  C   UNL     1       2.234  -0.034  -1.974  0.00  0.00    +0.046 A 
ATOM     29  H   UNL     1       2.863   0.583  -0.151  0.00  0.00    +0.160 HD
BRANCH  20  31
ATOM     30  C   UNL     1       0.147   2.372  -1.044  0.00  0.00    +0.009 C 
ATOM     31  C   UNL     1       0.029   0.849  -0.951  0.00  0.00    +0.034 C 
ENDBRANCH  20  31
ENDBRANCH  18  25
ENDBRANCH  17  18
ENDBRANCH  16  17
ENDBRANCH   1  16
BRANCH   5  32
ATOM     32  C   UNL     1      11.061  -0.552  -3.990  0.00  0.00    +0.055 C 
BRANCH  32  33
ATOM     33  C   UNL     1      10.820  -0.495  -5.476  0.00  0.00    +0.340 C 
ATOM     34  O   UNL     1       9.705  -0.707  -5.921  0.00  0.00    -0.249 OA
ATOM     35  O   UNL     1      11.740  -0.237  -6.234  0.00  0.00    -0.249 OA
ENDBRANCH  32  33
ENDBRANCH   5  32
TORSDOF 8
