REMARK  Name = ZINC38682462
REMARK  8 active torsions:
REMARK  status: ('A' for Active; 'I' for Inactive)
REMARK    1  A    between atoms: C_1  and  S_2
REMARK    2  A    between atoms: S_2  and  C_3
REMARK    3  A    between atoms: C_6  and  C_9
REMARK    4  A    between atoms: C_14  and  O_23
REMARK    5  A    between atoms: C_18  and  N_22
REMARK    6  A    between atoms: C_19  and  C_20
REMARK    7  A    between atoms: O_23  and  C_24
REMARK    8  A    between atoms: C_24  and  C_26
REMARK                            x       y       z     vdW  Elec       q    Type
REMARK                         _______ _______ _______ _____ _____    ______ ____
ROOT
ATOM      1  C   UNL     1       2.888  -1.396  -5.096  0.00  0.00    +0.098 C 
ATOM      2  C   UNL     1       1.984  -2.206  -5.988  0.00  0.00    +0.008 A 
ATOM      3  C   UNL     1       0.933  -1.584  -6.638  0.00  0.00    +0.012 A 
ATOM      4  C   UNL     1       0.094  -2.311  -7.458  0.00  0.00    +0.047 A 
ATOM      5  C   UNL     1       0.304  -3.672  -7.635  0.00  0.00    +0.135 A 
ATOM      6  C   UNL     1       1.356  -4.298  -6.986  0.00  0.00    +0.093 A 
ATOM      7  C   UNL     1       2.199  -3.564  -6.160  0.00  0.00    +0.138 A 
ATOM      8  O   UNL     1       3.224  -4.192  -5.532  0.00  0.00    -0.441 OA
ATOM      9  C   UNL     1       4.257  -3.477  -5.057  0.00  0.00    +0.199 C 
ATOM     10  C   UNL     1       4.160  -2.149  -4.829  0.00  0.00    +0.098 C 
ENDROOT
BRANCH   1  14
ATOM     11  C   UNL     1       0.898  -0.618  -1.394  0.00  0.00    +0.008 A 
ATOM     12  C   UNL     1       1.302   0.437  -2.203  0.00  0.00    +0.015 A 
ATOM     13  C   UNL     1       1.944   0.182  -3.399  0.00  0.00    +0.005 A 
ATOM     14  C   UNL     1       2.186  -1.121  -3.791  0.00  0.00    -0.035 A 
ATOM     15  C   UNL     1       1.786  -2.174  -2.989  0.00  0.00    +0.005 A 
ATOM     16  C   UNL     1       1.148  -1.927  -1.789  0.00  0.00    +0.015 A 
BRANCH  11  18
ATOM     17  C   UNL     1      -0.018   1.512   0.207  0.00  0.00    +0.090 C 
ATOM     18  S   UNL     1       0.078  -0.298   0.132  0.00  0.00    -0.129 S 
ENDBRANCH  11  18
ENDBRANCH   1  14
BRANCH   9  19
ATOM     19  N   UNL     1       5.444  -4.114  -4.795  0.00  0.00    -0.328 N 
ATOM     20  H   UNL     1       5.527  -5.068  -4.953  0.00  0.00    +0.145 HD
ATOM     21  H   UNL     1       6.199  -3.612  -4.452  0.00  0.00    +0.145 HD
ENDBRANCH   9  19
BRANCH  10  22
ATOM     22  C   UNL     1       5.299  -1.444  -4.322  0.00  0.00    +0.101 C 
ATOM     23  N   UNL     1       6.203  -0.886  -3.919  0.00  0.00    -0.191 NA
ENDBRANCH  10  22
BRANCH   5  24
ATOM     24  O   UNL     1      -0.521  -4.389  -8.442  0.00  0.00    -0.422 OA
BRANCH  24  25
ATOM     25  C   UNL     1      -0.496  -4.127  -9.764  0.00  0.00    +0.345 C 
ATOM     26  O   UNL     1       0.316  -3.342 -10.214  0.00  0.00    -0.245 OA
BRANCH  25  27
ATOM     27  C   UNL     1      -1.454  -4.793 -10.665  0.00  0.00    +0.067 A 
ATOM     28  C   UNL     1      -2.469  -5.593 -10.154  0.00  0.00    +0.015 A 
ATOM     29  C   UNL     1      -3.369  -6.219 -11.005  0.00  0.00    +0.001 A 
ATOM     30  C   UNL     1      -3.298  -6.077 -12.357  0.00  0.00    +0.008 A 
ATOM     31  C   UNL     1      -2.298  -5.282 -12.942  0.00  0.00    -0.017 A 
ATOM     32  C   UNL     1      -1.360  -4.621 -12.113  0.00  0.00    -0.004 A 
ATOM     33  C   UNL     1      -0.364  -3.825 -12.692  0.00  0.00    +0.009 A 
ATOM     34  C   UNL     1      -0.312  -3.691 -14.047  0.00  0.00    +0.001 A 
ATOM     35  C   UNL     1      -1.236  -4.337 -14.866  0.00  0.00    +0.001 A 
ATOM     36  C   UNL     1      -2.211  -5.127 -14.337  0.00  0.00    +0.008 A 
ENDBRANCH  25  27
ENDBRANCH  24  25
ENDBRANCH   5  24
TORSDOF 7
