REMARK  Name = ZINC08919571
REMARK  11 active torsions:
REMARK  status: ('A' for Active; 'I' for Inactive)
REMARK    1  A    between atoms: C_1  and  C_2
REMARK    2  A    between atoms: C_2  and  C_3
REMARK    3  A    between atoms: C_3  and  C_4
REMARK    4  A    between atoms: C_3  and  C_5
REMARK    5  A    between atoms: C_3  and  C_6
REMARK    6  A    between atoms: C_15  and  O_36
REMARK    7  A    between atoms: C_17  and  C_20
REMARK    8  A    between atoms: C_24  and  O_26
REMARK    9  A    between atoms: O_26  and  C_27
REMARK   10  A    between atoms: C_27  and  C_29
REMARK   11  A    between atoms: C_30  and  C_31
REMARK                            x       y       z     vdW  Elec       q    Type
REMARK                         _______ _______ _______ _____ _____    ______ ____
ROOT
ATOM      1  C   UNL     1      -0.493   2.107   1.912  0.00  0.00    -0.000 C 
ATOM      2  C   UNL     1      -0.546   3.637   1.881  0.00  0.00    +0.009 C 
ATOM      3  C   UNL     1      -1.144   4.164   3.186  0.00  0.00    +0.037 C 
ATOM      4  C   UNL     1      -2.475   3.464   3.434  0.00  0.00    -0.023 A 
ATOM      5  C   UNL     1      -2.778   2.307   2.802  0.00  0.00    -0.004 A 
ATOM      6  S   UNL     1      -4.394   1.874   3.391  0.00  0.00    -0.078 S 
ATOM      7  C   UNL     1      -4.654   3.194   4.447  0.00  0.00    +0.080 A 
ATOM      8  C   UNL     1      -3.492   3.969   4.339  0.00  0.00    +0.068 A 
ATOM      9  C   UNL     1      -3.418   5.202   5.165  0.00  0.00    +0.220 C 
ATOM     10  N   UNL     1      -4.507   5.598   5.765  0.00  0.00    -0.223 NA
ATOM     11  C   UNL     1      -5.814   4.973   5.609  0.00  0.00    +0.224 C 
ATOM     12  N   UNL     1      -5.697   3.542   5.272  0.00  0.00    -0.313 N 
ATOM     13  C   UNL     1      -1.926   1.562   1.821  0.00  0.00    +0.046 C 
ATOM     14  H   UNL     1      -6.322   2.883   5.613  0.00  0.00    +0.149 HD
ENDROOT
BRANCH  11  15
ATOM     15  C   UNL     1      -6.567   5.677   4.510  0.00  0.00    -0.002 A 
ATOM     16  C   UNL     1      -7.516   4.992   3.774  0.00  0.00    +0.007 A 
ATOM     17  C   UNL     1      -8.213   5.637   2.769  0.00  0.00    +0.004 A 
ATOM     18  C   UNL     1      -7.955   6.965   2.490  0.00  0.00    +0.046 A 
ATOM     19  C   UNL     1      -6.999   7.653   3.223  0.00  0.00    +0.132 A 
ATOM     20  C   UNL     1      -6.305   7.005   4.235  0.00  0.00    +0.053 A 
BRANCH  19  21
ATOM     21  O   UNL     1      -6.743   8.960   2.951  0.00  0.00    -0.423 OA
BRANCH  21  22
ATOM     22  C   UNL     1      -5.552   9.270   2.397  0.00  0.00    +0.337 C 
ATOM     23  O   UNL     1      -4.788   8.385   2.060  0.00  0.00    -0.245 OA
BRANCH  22  24
ATOM     24  C   UNL     1      -5.192  10.623   2.208  0.00  0.00    +0.095 C 
ATOM     25  C   UNL     1      -3.994  10.936   1.651  0.00  0.00    +0.053 C 
BRANCH  25  26
ATOM     26  C   UNL     1      -3.633  12.291   1.462  0.00  0.00    +0.128 A 
ATOM     27  C   UNL     1      -2.451  12.750   0.917  0.00  0.00    +0.049 A 
ATOM     28  C   UNL     1      -2.527  14.151   0.922  0.00  0.00    +0.042 A 
ATOM     29  C   UNL     1      -3.719  14.485   1.465  0.00  0.00    +0.195 A 
ATOM     30  O   UNL     1      -4.381  13.366   1.789  0.00  0.00    -0.464 OA
ENDBRANCH  25  26
ENDBRANCH  22  24
ENDBRANCH  21  22
ENDBRANCH  19  21
ENDBRANCH  11  15
BRANCH   1  31
ATOM     31  C   UNL     1       0.326   1.597   0.724  0.00  0.00    -0.032 C 
ATOM     32  C   UNL     1       1.747   2.157   0.807  0.00  0.00    +0.011 C 
ATOM     33  C   UNL     1      -0.328   2.057  -0.581  0.00  0.00    +0.011 C 
BRANCH  31  35
ATOM     34  C   UNL     1       1.195  -0.441  -0.430  0.00  0.00    +0.004 C 
ATOM     35  C   UNL     1       0.376   0.069   0.758  0.00  0.00    +0.003 C 
ENDBRANCH  31  35
ENDBRANCH   1  31
BRANCH   9  36
ATOM     36  O   UNL     1      -2.260   5.890   5.292  0.00  0.00    -0.492 OA
ATOM     37  H   UNL     1      -2.328   6.675   5.853  0.00  0.00    +0.294 HD
ENDBRANCH   9  36
TORSDOF 8
