REMARK  Name = ZINC08431548
REMARK  11 active torsions:
REMARK  status: ('A' for Active; 'I' for Inactive)
REMARK    1  A    between atoms: C_1  and  C_2
REMARK    2  A    between atoms: C_2  and  C_3
REMARK    3  A    between atoms: C_3  and  C_4
REMARK    4  A    between atoms: C_7  and  O_10
REMARK    5  A    between atoms: O_10  and  C_11
REMARK    6  A    between atoms: C_11  and  C_12
REMARK    7  A    between atoms: C_12  and  C_14
REMARK    8  A    between atoms: C_12  and  O_36
REMARK    9  A    between atoms: C_14  and  N_70
REMARK   10  A    between atoms: C_17  and  C_20
REMARK   11  A    between atoms: C_20  and  N_21
REMARK                            x       y       z     vdW  Elec       q    Type
REMARK                         _______ _______ _______ _____ _____    ______ ____
ROOT
ATOM      1  C   UNL     1      -4.918   6.292   7.795  0.00  0.00    -0.078 C 
ATOM      2  C   UNL     1      -5.722   6.471   9.085  0.00  0.00    -0.014 C 
ATOM      3  C   UNL     1      -5.257   7.744   9.798  0.00  0.00    +0.003 C 
ATOM      4  C   UNL     1      -3.755   7.641  10.080  0.00  0.00    -0.014 C 
ATOM      5  C   UNL     1      -3.007   7.428   8.761  0.00  0.00    -0.078 C 
ATOM      6  N   UNL     1      -3.484   6.175   8.137  0.00  0.00    +0.381 N 
ATOM      7  H   UNL     1      -3.362   5.403   8.803  0.00  0.00    -0.082 HD
ENDROOT
BRANCH   6   8
ATOM      8  C   UNL     1      -2.697   5.887   6.920  0.00  0.00    -0.044 C 
BRANCH   8   9
ATOM      9  C   UNL     1      -3.056   4.485   6.422  0.00  0.00    +0.135 C 
BRANCH   9  10
ATOM     10  O   UNL     1      -2.769   3.529   7.444  0.00  0.00    -0.390 OA
ATOM     11  H   UNL     1      -1.840   3.507   7.713  0.00  0.00    +0.210 HD
ENDBRANCH   9  10
BRANCH   9  12
ATOM     12  C   UNL     1      -2.232   4.161   5.174  0.00  0.00    +0.258 C 
BRANCH  12  13
ATOM     13  O   UNL     1      -2.649   2.902   4.642  0.00  0.00    -0.489 OA
BRANCH  13  17
ATOM     14  C   UNL     1      -0.718   1.572   1.248  0.00  0.00    -0.047 A 
ATOM     15  C   UNL     1      -0.359   2.779   1.818  0.00  0.00    +0.007 A 
ATOM     16  C   UNL     1      -1.008   3.230   2.951  0.00  0.00    +0.046 A 
ATOM     17  C   UNL     1      -2.013   2.464   3.524  0.00  0.00    +0.121 A 
ATOM     18  C   UNL     1      -2.368   1.250   2.954  0.00  0.00    +0.046 A 
ATOM     19  C   UNL     1      -1.720   0.807   1.817  0.00  0.00    +0.007 A 
BRANCH  14  20
ATOM     20  C   UNL     1      -0.013   1.086   0.008  0.00  0.00    +0.035 C 
BRANCH  20  22
ATOM     21  C   UNL     1      -0.037   1.099  -2.490  0.00  0.00    +0.004 C 
ATOM     22  C   UNL     1      -0.753   1.593  -1.232  0.00  0.00    +0.001 C 
ENDBRANCH  20  22
ENDBRANCH  14  20
ENDBRANCH  13  17
ENDBRANCH  12  13
ENDBRANCH   9  12
ENDBRANCH   8   9
ENDBRANCH   6   8
BRANCH   3  23
ATOM     23  C   UNL     1      -6.015   7.896  11.118  0.00  0.00    +0.120 C 
BRANCH  23  24
ATOM     24  N   UNL     1      -7.437   8.114  10.842  0.00  0.00    -0.234 N 
ATOM     25  C   UNL     1      -7.884   9.376  10.696  0.00  0.00    +0.254 C 
ATOM     26  O   UNL     1      -7.108  10.307  10.794  0.00  0.00    -0.270 OA
ATOM     27  C   UNL     1      -9.304   9.634  10.414  0.00  0.00    +0.046 A 
ATOM     28  C   UNL     1      -9.805  10.917  10.250  0.00  0.00    +0.014 A 
ATOM     29  C   UNL     1     -11.156  11.110   9.988  0.00  0.00    +0.001 A 
ATOM     30  C   UNL     1     -12.023  10.060   9.884  0.00  0.00    +0.008 A 
ATOM     31  C   UNL     1     -11.555   8.743  10.043  0.00  0.00    -0.016 A 
ATOM     32  C   UNL     1     -10.185   8.534  10.309  0.00  0.00    +0.006 A 
ATOM     33  C   UNL     1      -9.684   7.223  10.473  0.00  0.00    +0.046 A 
ATOM     34  C   UNL     1     -10.557   6.150  10.369  0.00  0.00    +0.014 A 
ATOM     35  C   UNL     1     -11.904   6.370  10.106  0.00  0.00    +0.001 A 
ATOM     36  C   UNL     1     -12.406   7.629   9.945  0.00  0.00    +0.008 A 
ATOM     37  C   UNL     1      -8.251   7.045  10.749  0.00  0.00    +0.254 C 
ATOM     38  O   UNL     1      -7.797   5.926  10.894  0.00  0.00    -0.270 OA
ENDBRANCH  23  24
ENDBRANCH   3  23
TORSDOF 10
