REMARK  Name = ZINC41584051
REMARK  10 active torsions:
REMARK  status: ('A' for Active; 'I' for Inactive)
REMARK    1  A    between atoms: C_1  and  C_2
REMARK    2  A    between atoms: C_2  and  C_3
REMARK    3  A    between atoms: C_3  and  C_4
REMARK    4  A    between atoms: C_4  and  N_5
REMARK    5  A    between atoms: N_5  and  C_6
REMARK    6  A    between atoms: N_5  and  C_7
REMARK    7  A    between atoms: C_7  and  C_8
REMARK    8  A    between atoms: C_9  and  O_31
REMARK    9  A    between atoms: C_11  and  C_30
REMARK   10  A    between atoms: C_16  and  C_17
REMARK                            x       y       z     vdW  Elec       q    Type
REMARK                         _______ _______ _______ _____ _____    ______ ____
ROOT
ATOM      1  C   UNL     1       2.577  -3.578  -3.951  0.00  0.00    +0.020 A 
ATOM      2  C   UNL     1       2.006  -3.736  -5.203  0.00  0.00    +0.122 A 
ATOM      3  C   UNL     1       2.750  -4.251  -6.261  0.00  0.00    +0.050 A 
ATOM      4  C   UNL     1       4.056  -4.606  -6.073  0.00  0.00    -0.033 A 
ATOM      5  C   UNL     1       4.644  -4.453  -4.817  0.00  0.00    +0.071 A 
ATOM      6  C   UNL     1       3.905  -3.930  -3.744  0.00  0.00    +0.145 A 
ATOM      7  O   UNL     1       4.683  -3.870  -2.641  0.00  0.00    -0.451 OA
ATOM      8  C   UNL     1       5.936  -4.321  -2.885  0.00  0.00    +0.176 C 
ATOM      9  C   UNL     1       6.952  -4.390  -1.986  0.00  0.00    +0.061 C 
ATOM     10  C   UNL     1       5.994  -4.733  -4.294  0.00  0.00    +0.232 C 
ATOM     11  O   UNL     1       6.948  -5.191  -4.899  0.00  0.00    -0.283 OA
ATOM     12  C   UNL     1       4.860  -5.164  -7.219  0.00  0.00    +0.045 C 
ENDROOT
BRANCH   9  13
ATOM     13  C   UNL     1       6.788  -3.813  -0.647  0.00  0.00    +0.022 A 
ATOM     14  C   UNL     1       5.510  -3.517  -0.160  0.00  0.00    +0.027 A 
ATOM     15  C   UNL     1       5.365  -2.974   1.099  0.00  0.00    +0.019 A 
ATOM     16  C   UNL     1       6.479  -2.719   1.883  0.00  0.00    +0.024 A 
ATOM     17  C   UNL     1       7.748  -3.007   1.415  0.00  0.00    +0.022 A 
ATOM     18  C   UNL     1       7.914  -3.561   0.157  0.00  0.00    +0.136 A 
ATOM     19  O   UNL     1       9.152  -3.863  -0.309  0.00  0.00    -0.465 OA
ATOM     20  C   UNL     1      10.262  -3.268   0.370  0.00  0.00    +0.395 C 
ATOM     21  O   UNL     1      10.079  -3.440   1.781  0.00  0.00    -0.339 OA
ATOM     22  C   UNL     1       8.946  -2.718   2.284  0.00  0.00    +0.202 C 
ATOM     23 BR   UNL     1       3.639  -2.574   1.758  0.00  0.00    -0.050 Br
ENDBRANCH   9  13
BRANCH   2  24
ATOM     24  O   UNL     1       0.709  -3.386  -5.401  0.00  0.00    -0.506 OA
ATOM     25  H   UNL     1       0.587  -2.468  -5.676  0.00  0.00    +0.292 HD
ENDBRANCH   2  24
BRANCH   1  26
ATOM     26  C   UNL     1       1.759  -3.019  -2.815  0.00  0.00    -0.036 C 
BRANCH  26  27
ATOM     27  N   UNL     1       1.887  -1.556  -2.793  0.00  0.00    +0.381 N 
ATOM     28  C   UNL     1       1.292  -0.994  -4.014  0.00  0.00    -0.096 C 
ATOM     29  H   UNL     1       2.863  -1.304  -2.748  0.00  0.00    -0.082 HD
BRANCH  27  30
ATOM     30  C   UNL     1       1.189  -1.021  -1.617  0.00  0.00    -0.079 C 
BRANCH  30  31
ATOM     31  C   UNL     1       1.426   0.488  -1.526  0.00  0.00    -0.019 C 
BRANCH  31  33
ATOM     32  C   UNL     1       0.936   2.554  -0.209  0.00  0.00    +0.004 C 
ATOM     33  C   UNL     1       0.699   1.046  -0.301  0.00  0.00    -0.005 C 
ENDBRANCH  31  33
ENDBRANCH  30  31
ENDBRANCH  27  30
ENDBRANCH  26  27
ENDBRANCH   1  26
TORSDOF 7
