REMARK  Name = ZINC63584626
REMARK  4 active torsions:
REMARK  status: ('A' for Active; 'I' for Inactive)
REMARK    1  A    between atoms: C_6  and  N_7
REMARK    2  A    between atoms: N_7  and  C_8
REMARK    3  A    between atoms: C_14  and  C_16
REMARK    4  A    between atoms: C_20  and  N_25
REMARK                            x       y       z     vdW  Elec       q    Type
REMARK                         _______ _______ _______ _____ _____    ______ ____
ROOT
ATOM      1  C   UNL     1      -2.279  -1.593  -1.162  0.00  0.00    +0.073 C 
ATOM      2  C   UNL     1      -1.701  -2.493  -2.256  0.00  0.00    +0.041 C 
ATOM      3  C   UNL     1      -1.347  -3.857  -1.655  0.00  0.00    +0.110 C 
ATOM      4  N   UNL     1      -2.537  -4.404  -0.989  0.00  0.00    -0.297 N 
ATOM      5  C   UNL     1      -3.224  -3.582   0.017  0.00  0.00    +0.110 C 
ATOM      6  C   UNL     1      -3.557  -2.222  -0.603  0.00  0.00    +0.041 C 
ATOM      7  C   UNL     1      -2.989  -5.636  -1.295  0.00  0.00    +0.253 C 
ATOM      8  O   UNL     1      -2.486  -6.259  -2.210  0.00  0.00    -0.269 OA
ENDROOT
BRANCH   7   9
ATOM      9  C   UNL     1      -4.091  -6.227  -0.522  0.00  0.00    +0.075 A 
ATOM     10  C   UNL     1      -4.952  -7.213  -0.891  0.00  0.00    +0.029 A 
ATOM     11  C   UNL     1      -5.950  -7.644   0.001  0.00  0.00    -0.008 A 
ATOM     12  C   UNL     1      -6.931  -8.649  -0.198  0.00  0.00    +0.041 A 
ATOM     13  C   UNL     1      -7.830  -8.945   0.776  0.00  0.00    +0.127 A 
ATOM     14  C   UNL     1      -7.826  -8.282   1.998  0.00  0.00    +0.034 A 
ATOM     15  C   UNL     1      -6.888  -7.297   2.233  0.00  0.00    +0.018 A 
ATOM     16  C   UNL     1      -5.968  -6.986   1.254  0.00  0.00    +0.020 A 
ATOM     17  S   UNL     1      -4.625  -5.832   1.135  0.00  0.00    -0.084 S 
BRANCH  13  18
ATOM     18  N   UNL     1      -8.839  -9.999   0.531  0.00  0.00    +0.056 N 
ATOM     19  O   UNL     1      -8.857 -10.585  -0.526  0.00  0.00    -0.126 OA
ATOM     20  O   UNL     1      -9.646 -10.275   1.388  0.00  0.00    -0.126 OA
ENDBRANCH  13  18
ENDBRANCH   7   9
BRANCH   1  21
ATOM     21  N   UNL     1      -2.588  -0.277  -1.726  0.00  0.00    -0.341 N 
ATOM     22  H   UNL     1      -3.486  -0.081  -2.036  0.00  0.00    +0.146 HD
BRANCH  21  28
ATOM     23  C   UNL     1      -1.882   1.946  -2.350  0.00  0.00    +0.026 A 
ATOM     24  C   UNL     1      -0.894   2.907  -2.438  0.00  0.00    +0.040 A 
ATOM     25  C   UNL     1       0.388   2.627  -1.994  0.00  0.00    +0.124 A 
ATOM     26  C   UNL     1       0.681   1.383  -1.461  0.00  0.00    +0.040 A 
ATOM     27  C   UNL     1      -0.303   0.419  -1.371  0.00  0.00    +0.026 A 
ATOM     28  C   UNL     1      -1.589   0.698  -1.816  0.00  0.00    +0.027 A 
ATOM     29  F   UNL     1       1.352   3.568  -2.080  0.00  0.00    -0.205 F 
ENDBRANCH  21  28
ENDBRANCH   1  21
TORSDOF 4
