REMARK  Name = ZINC09315953
REMARK  6 active torsions:
REMARK  status: ('A' for Active; 'I' for Inactive)
REMARK    1  A    between atoms: C_4  and  S_7
REMARK    2  A    between atoms: S_7  and  N_10
REMARK    3  A    between atoms: N_10  and  C_11
REMARK    4  A    between atoms: C_20  and  N_57
REMARK    5  A    between atoms: N_24  and  C_27
REMARK    6  A    between atoms: C_30  and  C_32
REMARK                            x       y       z     vdW  Elec       q    Type
REMARK                         _______ _______ _______ _____ _____    ______ ____
ROOT
ATOM      1  C   UNL     1      -0.687   1.591  -0.942  0.00  0.00    +0.072 C 
ATOM      2  C   UNL     1      -0.095   1.232   0.437  0.00  0.00    +0.054 C 
ATOM      3  C   UNL     1      -1.043   1.841   1.448  0.00  0.00    -0.044 A 
ATOM      4  C   UNL     1      -1.202   1.585   2.799  0.00  0.00    +0.004 A 
ATOM      5  C   UNL     1      -2.149   2.273   3.531  0.00  0.00    +0.000 A 
ATOM      6  C   UNL     1      -2.944   3.221   2.913  0.00  0.00    +0.000 A 
ATOM      7  C   UNL     1      -2.788   3.478   1.565  0.00  0.00    +0.002 A 
ATOM      8  C   UNL     1      -1.839   2.788   0.829  0.00  0.00    -0.056 A 
ATOM      9  C   UNL     1      -1.477   2.882  -0.638  0.00  0.00    -0.018 C 
ENDROOT
BRANCH   9  15
ATOM     10  C   UNL     1      -1.280   5.281  -0.369  0.00  0.00    -0.059 C 
ATOM     11  C   UNL     1      -0.342   6.473  -0.570  0.00  0.00    +0.087 C 
ATOM     12  N   UNL     1      -0.025   6.609  -1.998  0.00  0.00    -0.328 N 
ATOM     13  C   UNL     1       0.618   5.391  -2.510  0.00  0.00    +0.087 C 
ATOM     14  C   UNL     1      -0.320   4.199  -2.310  0.00  0.00    -0.059 C 
ATOM     15  N   UNL     1      -0.613   4.060  -0.867  0.00  0.00    +0.387 N 
ATOM     16  H   UNL     1       0.270   3.931  -0.359  0.00  0.00    -0.081 HD
BRANCH  12  17
ATOM     17  C   UNL     1       0.765   7.720  -2.227  0.00  0.00    +0.069 A 
ATOM     18  C   UNL     1       0.511   9.039  -1.896  0.00  0.00    +0.032 A 
ATOM     19  C   UNL     1       1.437   9.988  -2.218  0.00  0.00    +0.020 A 
ATOM     20  C   UNL     1       2.593   9.557  -2.868  0.00  0.00    +0.053 A 
ATOM     21  S   UNL     1       2.319   7.798  -2.992  0.00  0.00    -0.071 S 
BRANCH  20  22
ATOM     22  C   UNL     1       3.692  10.312  -3.307  0.00  0.00    +0.265 C 
ATOM     23  O   UNL     1       4.624   9.763  -3.862  0.00  0.00    -0.295 OA
ENDBRANCH  20  22
ENDBRANCH  12  17
ENDBRANCH   9  15
BRANCH   1  24
ATOM     24  N   UNL     1      -1.582   0.533  -1.416  0.00  0.00    -0.188 NA
ATOM     25  H   UNL     1      -2.505   0.510  -1.120  0.00  0.00    +0.148 HD
BRANCH  24  26
ATOM     26  S   UNL     1      -1.017  -0.624  -2.458  0.00  0.00    +0.059 S 
ATOM     27  O   UNL     1      -2.099  -1.510  -2.707  0.00  0.00    -0.153 OA
ATOM     28  O   UNL     1      -0.340   0.064  -3.501  0.00  0.00    -0.153 OA
BRANCH  26  32
ATOM     29  C   UNL     1       2.122  -3.010  -0.234  0.00  0.00    +0.000 A 
ATOM     30  C   UNL     1       0.797  -3.402  -0.191  0.00  0.00    +0.002 A 
ATOM     31  C   UNL     1      -0.161  -2.673  -0.870  0.00  0.00    +0.028 A 
ATOM     32  C   UNL     1       0.205  -1.553  -1.592  0.00  0.00    +0.105 A 
ATOM     33  C   UNL     1       1.531  -1.163  -1.639  0.00  0.00    +0.028 A 
ATOM     34  C   UNL     1       2.489  -1.889  -0.955  0.00  0.00    +0.002 A 
ENDBRANCH  26  32
ENDBRANCH  24  26
ENDBRANCH   1  24
TORSDOF 6
