REMARK  Name = ZINC25156336
REMARK  7 active torsions:
REMARK  status: ('A' for Active; 'I' for Inactive)
REMARK    1  A    between atoms: C_1  and  C_2
REMARK    2  A    between atoms: C_2  and  C_26
REMARK    3  A    between atoms: C_3  and  C_4
REMARK    4  A    between atoms: C_6  and  C_11
REMARK    5  A    between atoms: C_8  and  C_9
REMARK    6  A    between atoms: C_8  and  C_10
REMARK    7  A    between atoms: N_13  and  N_14
REMARK                            x       y       z     vdW  Elec       q    Type
REMARK                         _______ _______ _______ _____ _____    ______ ____
ROOT
ATOM      1  C   UNL     1       5.545   2.990   3.831  0.00  0.00    +0.234 C 
ATOM      2  O   UNL     1       5.555   1.786   3.688  0.00  0.00    -0.274 OA
ATOM      3  N   UNL     1       4.415   3.687   3.599  0.00  0.00    -0.223 N 
ATOM      4  H   UNL     1       4.405   4.779   3.729  0.00  0.00    +0.174 HD
ENDROOT
BRANCH   3   5
ATOM      5  N   UNL     1       3.251   3.020   3.193  0.00  0.00    -0.137 N 
ATOM      6  C   UNL     1       2.769   3.036   1.934  0.00  0.00    +0.263 C 
ATOM      7  O   UNL     1       3.240   3.608   0.974  0.00  0.00    -0.271 OA
ATOM      8  C   UNL     1       1.517   2.190   1.970  0.00  0.00    +0.114 C 
ATOM      9  C   UNL     1       0.299   3.024   1.589  0.00  0.00    +0.035 C 
ATOM     10  C   UNL     1      -0.960   2.157   1.667  0.00  0.00    +0.003 C 
ATOM     11  C   UNL     1      -0.818   0.967   0.716  0.00  0.00    +0.000 C 
ATOM     12  C   UNL     1       0.395   0.128   1.123  0.00  0.00    +0.003 C 
ATOM     13  C   UNL     1       1.659   0.988   1.043  0.00  0.00    +0.035 C 
ATOM     14  N   UNL     1       1.423   1.752   3.369  0.00  0.00    -0.284 N 
ATOM     15  C   UNL     1       2.481   2.288   4.007  0.00  0.00    +0.326 C 
ATOM     16  O   UNL     1       2.711   2.124   5.189  0.00  0.00    -0.251 OA
ATOM     17  H   UNL     1       0.590   1.110   3.689  0.00  0.00    +0.151 HD
ENDBRANCH   3   5
BRANCH   1  19
ATOM     18  C   UNL     1       6.756   4.447   5.607  0.00  0.00    +0.030 C 
ATOM     19  C   UNL     1       6.796   3.708   4.268  0.00  0.00    +0.090 C 
ATOM     20  C   UNL     1       7.549   3.145   5.475  0.00  0.00    -0.016 C 
ATOM     21  C   UNL     1       6.973   1.897   6.146  0.00  0.00    +0.012 C 
ATOM     22  C   UNL     1       9.075   3.245   5.465  0.00  0.00    +0.012 C 
BRANCH  18  25
ATOM     23  C   UNL     1       6.472   6.078   7.886  0.00  0.00    +0.038 C 
ATOM     24  C   UNL     1       7.407   6.489   6.777  0.00  0.00    -0.079 C 
ATOM     25  C   UNL     1       7.539   5.730   5.717  0.00  0.00    -0.023 C 
ATOM     26  C   UNL     1       8.189   7.772   6.888  0.00  0.00    +0.038 C 
ENDBRANCH  18  25
ENDBRANCH   1  19
TORSDOF 3
