REMARK  Name = ZINC63216933
REMARK  4 active torsions:
REMARK  status: ('A' for Active; 'I' for Inactive)
REMARK    1  A    between atoms: C_1  and  C_2
REMARK    2  A    between atoms: C_2  and  C_3
REMARK    3  A    between atoms: C_2  and  C_4
REMARK    4  A    between atoms: C_7  and  C_10
REMARK                            x       y       z     vdW  Elec       q    Type
REMARK                         _______ _______ _______ _____ _____    ______ ____
ROOT
ATOM      1  C   UNL     1       2.797  -1.919   4.683  0.00  0.00    +0.070 C 
ATOM      2  C   UNL     1       2.086  -1.447   5.928  0.00  0.00    -0.010 A 
ATOM      3  C   UNL     1       2.481  -0.255   6.554  0.00  0.00    -0.012 A 
ATOM      4  C   UNL     1       3.531   0.525   6.040  0.00  0.00    +0.009 A 
ATOM      5  C   UNL     1       3.889   1.675   6.674  0.00  0.00    +0.001 A 
ATOM      6  C   UNL     1       3.229   2.093   7.828  0.00  0.00    +0.001 A 
ATOM      7  C   UNL     1       2.208   1.363   8.354  0.00  0.00    +0.008 A 
ATOM      8  C   UNL     1       1.810   0.170   7.729  0.00  0.00    -0.017 A 
ATOM      9  C   UNL     1       0.761  -0.610   8.246  0.00  0.00    +0.010 A 
ATOM     10  C   UNL     1       0.395  -1.757   7.618  0.00  0.00    +0.024 A 
ATOM     11  C   UNL     1       1.049  -2.186   6.454  0.00  0.00    +0.036 A 
ATOM     12  N   UNL     1       0.630  -3.364   5.827  0.00  0.00    -0.304 N 
ATOM     13  C   UNL     1       1.416  -3.960   4.898  0.00  0.00    +0.106 C 
ATOM     14  N   UNL     1       0.952  -4.963   4.201  0.00  0.00    -0.151 NA
ATOM     15  C   UNL     1       1.638  -5.515   3.194  0.00  0.00    +0.331 C 
ATOM     16  O   UNL     1       1.199  -6.516   2.659  0.00  0.00    -0.250 OA
ATOM     17  N   UNL     1       2.798  -4.997   2.757  0.00  0.00    -0.238 N 
ATOM     18  C   UNL     1       3.395  -3.987   3.414  0.00  0.00    +0.231 C 
ATOM     19  O   UNL     1       4.418  -3.508   2.973  0.00  0.00    -0.275 OA
ATOM     20  C   UNL     1       2.816  -3.446   4.680  0.00  0.00    +0.148 C 
ATOM     21  H   UNL     1      -0.227  -3.756   6.058  0.00  0.00    +0.153 HD
ATOM     22  H   UNL     1       3.210  -5.356   1.956  0.00  0.00    +0.159 HD
ENDROOT
BRANCH   1  26
ATOM     23  C   UNL     1       0.731  -0.503   1.223  0.00  0.00    -0.045 A 
ATOM     24  C   UNL     1       2.050  -0.148   1.434  0.00  0.00    +0.004 A 
ATOM     25  C   UNL     1       2.719  -0.606   2.554  0.00  0.00    +0.004 A 
ATOM     26  C   UNL     1       2.068  -1.419   3.463  0.00  0.00    -0.039 A 
ATOM     27  C   UNL     1       0.749  -1.773   3.252  0.00  0.00    +0.004 A 
ATOM     28  C   UNL     1       0.079  -1.312   2.135  0.00  0.00    +0.004 A 
BRANCH  23  30
ATOM     29  C   UNL     1      -0.019   1.526   0.010  0.00  0.00    +0.012 C 
ATOM     30  C   UNL     1       0.002  -0.004   0.002  0.00  0.00    +0.013 C 
ATOM     31  C   UNL     1       0.718  -0.497  -1.257  0.00  0.00    +0.012 C 
ENDBRANCH  23  30
ENDBRANCH   1  26
TORSDOF 2
