REMARK  Name = ZINC26571421
REMARK  7 active torsions:
REMARK  status: ('A' for Active; 'I' for Inactive)
REMARK    1  A    between atoms: C_1  and  O_2
REMARK    2  A    between atoms: O_2  and  C_3
REMARK    3  A    between atoms: C_6  and  N_9
REMARK    4  A    between atoms: C_13  and  C_14
REMARK    5  A    between atoms: C_14  and  O_16
REMARK    6  A    between atoms: O_16  and  C_17
REMARK    7  A    between atoms: N_20  and  N_21
REMARK                            x       y       z     vdW  Elec       q    Type
REMARK                         _______ _______ _______ _____ _____    ______ ____
ROOT
ATOM      1  N   UNL     1       2.676  -2.507   4.148  0.00  0.00    -0.213 N 
ATOM      2  C   UNL     1       3.300  -1.785   5.063  0.00  0.00    +0.264 C 
ATOM      3  O   UNL     1       3.414  -0.579   4.954  0.00  0.00    -0.269 OA
ATOM      4  C   UNL     1       3.854  -2.518   6.232  0.00  0.00    +0.085 C 
ATOM      5  C   UNL     1       4.535  -2.036   7.311  0.00  0.00    +0.111 C 
ATOM      6  S   UNL     1       3.389  -4.199   5.845  0.00  0.00    -0.047 S 
ATOM      7  C   UNL     1       2.554  -3.881   4.299  0.00  0.00    +0.190 C 
ATOM      8  N   UNL     1       1.973  -4.734   3.503  0.00  0.00    -0.156 NA
ENDROOT
BRANCH   8   9
ATOM      9  N   UNL     1       1.953  -6.096   3.830  0.00  0.00    -0.204 N 
ATOM     10  C   UNL     1       1.341  -6.993   2.994  0.00  0.00    +0.217 A 
ATOM     11  N   UNL     1       1.322  -8.318   3.324  0.00  0.00    -0.293 N 
ATOM     12  H   UNL     1       1.742  -8.609   4.149  0.00  0.00    +0.172 HD
ATOM     13  C   UNL     1       0.732  -9.227   2.527  0.00  0.00    +0.261 A 
ATOM     14  O   UNL     1       0.723 -10.406   2.836  0.00  0.00    -0.267 OA
ATOM     15  C   UNL     1       0.113  -8.791   1.312  0.00  0.00    +0.075 A 
ATOM     16  C   UNL     1      -0.579  -9.598   0.306  0.00  0.00    -0.023 A 
ATOM     17  C   UNL     1      -1.081  -8.946  -0.762  0.00  0.00    -0.004 A 
ATOM     18  S   UNL     1      -0.670  -7.242  -0.496  0.00  0.00    -0.073 S 
ATOM     19  C   UNL     1       0.180  -7.412   1.053  0.00  0.00    +0.117 A 
ATOM     20  N   UNL     1       0.774  -6.564   1.883  0.00  0.00    -0.207 NA
ATOM     21  C   UNL     1      -1.824  -9.538  -1.920  0.00  0.00    +0.043 C 
ATOM     22  C   UNL     1      -1.612 -11.059  -1.905  0.00  0.00    +0.005 C 
ATOM     23  C   UNL     1      -1.860 -11.575  -0.484  0.00  0.00    +0.005 C 
ATOM     24  C   UNL     1      -0.735 -11.111   0.441  0.00  0.00    +0.037 C 
ATOM     25  H   UNL     1       2.372  -6.404   4.649  0.00  0.00    +0.177 HD
ENDBRANCH   8   9
BRANCH   1  29
ATOM     26  C   UNL     1       1.048  -0.640   0.793  0.00  0.00    +0.120 A 
ATOM     27  C   UNL     1       0.240  -1.409   1.619  0.00  0.00    +0.047 A 
ATOM     28  C   UNL     1       0.779  -2.028   2.730  0.00  0.00    +0.027 A 
ATOM     29  C   UNL     1       2.129  -1.880   3.021  0.00  0.00    +0.044 A 
ATOM     30  C   UNL     1       2.936  -1.111   2.193  0.00  0.00    +0.027 A 
ATOM     31  C   UNL     1       2.398  -0.497   1.080  0.00  0.00    +0.047 A 
BRANCH  26  33
ATOM     32  C   UNL     1      -0.880  -0.222  -0.535  0.00  0.00    +0.277 C 
ATOM     33  O   UNL     1       0.517  -0.032  -0.300  0.00  0.00    -0.495 OA
ENDBRANCH  26  33
ENDBRANCH   1  29
BRANCH   5  34
ATOM     34  C   UNL     1       4.633  -0.642   7.520  0.00  0.00    +0.333 C 
ATOM     35  O   UNL     1       4.012   0.126   6.808  0.00  0.00    -0.246 OA
BRANCH  34  36
ATOM     36  O   UNL     1       5.416  -0.161   8.509  0.00  0.00    -0.465 OA
ATOM     37  C   UNL     1       5.468   1.259   8.663  0.00  0.00    +0.280 C 
ENDBRANCH  34  36
ENDBRANCH   5  34
TORSDOF 5
