REMARK  Name = ZINC06300982
REMARK  8 active torsions:
REMARK  status: ('A' for Active; 'I' for Inactive)
REMARK    1  A    between atoms: C_1  and  C_2
REMARK    2  A    between atoms: C_4  and  C_34
REMARK    3  A    between atoms: C_9  and  C_14
REMARK    4  A    between atoms: C_14  and  C_16
REMARK    5  A    between atoms: C_14  and  N_69
REMARK    6  A    between atoms: N_20  and  C_21
REMARK    7  A    between atoms: C_27  and  N_69
REMARK    8  A    between atoms: C_28  and  N_69
REMARK                            x       y       z     vdW  Elec       q    Type
REMARK                         _______ _______ _______ _____ _____    ______ ____
ROOT
ATOM      1  C   UNL     1       3.575   0.760  -0.115  0.00  0.00    +0.039 C 
ENDROOT
BRANCH   1  10
ATOM      2  C   UNL     1       4.817   1.337  -7.446  0.00  0.00    +0.044 C 
ATOM      3  C   UNL     1       4.190   1.849  -6.175  0.00  0.00    -0.050 A 
ATOM      4  C   UNL     1       3.419   3.004  -6.205  0.00  0.00    +0.008 A 
ATOM      5  C   UNL     1       2.836   3.490  -5.055  0.00  0.00    -0.026 A 
ATOM      6  C   UNL     1       3.021   2.819  -3.850  0.00  0.00    +0.052 A 
ATOM      7  C   UNL     1       3.802   1.649  -3.824  0.00  0.00    -0.001 A 
ATOM      8  C   UNL     1       4.385   1.173  -5.004  0.00  0.00    +0.013 A 
ATOM      9  C   UNL     1       3.990   0.949  -2.552  0.00  0.00    +0.017 A 
ATOM     10  C   UNL     1       3.401   1.456  -1.440  0.00  0.00    +0.011 A 
ATOM     11  C   UNL     1       2.622   2.630  -1.522  0.00  0.00    +0.251 A 
ATOM     12  O   UNL     1       2.097   3.066  -0.512  0.00  0.00    -0.268 OA
ATOM     13  N   UNL     1       2.448   3.283  -2.685  0.00  0.00    -0.322 N 
ATOM     14  H   UNL     1       1.910   4.089  -2.704  0.00  0.00    +0.169 HD
ATOM     15  C   UNL     1       2.002   4.744  -5.101  0.00  0.00    +0.046 C 
ENDBRANCH   1  10
BRANCH   1  16
ATOM     16  C   UNL     1       2.230   0.308   0.394  0.00  0.00    +0.143 A 
ATOM     17  N   UNL     1       1.315   1.056   0.960  0.00  0.00    -0.115 NA
ATOM     18  N   UNL     1       0.312   0.304   1.254  0.00  0.00    -0.023 NA
ATOM     19  N   UNL     1       0.563  -0.905   0.892  0.00  0.00    -0.044 NA
ATOM     20  N   UNL     1       1.737  -0.944   0.357  0.00  0.00    -0.227 N 
BRANCH  20  21
ATOM     21  C   UNL     1       2.406  -2.127  -0.188  0.00  0.00    +0.111 C 
ATOM     22  C   UNL     1       1.564  -2.711  -1.325  0.00  0.00    +0.027 C 
ATOM     23  C   UNL     1       2.263  -3.947  -1.894  0.00  0.00    +0.002 C 
ATOM     24  C   UNL     1       2.427  -4.994  -0.791  0.00  0.00    +0.000 C 
ATOM     25  C   UNL     1       3.269  -4.410   0.345  0.00  0.00    +0.002 C 
ATOM     26  C   UNL     1       2.570  -3.175   0.915  0.00  0.00    +0.027 C 
ENDBRANCH  20  21
ENDBRANCH   1  16
BRANCH   1  28
ATOM     27  C   UNL     1       5.258   2.466   0.230  0.00  0.00    -0.094 C 
ATOM     28  N   UNL     1       4.156   1.708   0.859  0.00  0.00    +0.389 N 
ATOM     29  H   UNL     1       3.428   2.366   1.160  0.00  0.00    -0.080 HD
BRANCH  28  30
ATOM     30  C   UNL     1       4.657   0.974   2.040  0.00  0.00    -0.068 C 
ATOM     31  C   UNL     1       3.464   0.568   2.908  0.00  0.00    -0.015 C 
ATOM     32  C   UNL     1       3.965  -0.178   4.147  0.00  0.00    -0.002 C 
ATOM     33  C   UNL     1       4.892   0.736   4.951  0.00  0.00    -0.000 C 
ATOM     34  C   UNL     1       6.085   1.142   4.083  0.00  0.00    -0.002 C 
ATOM     35  C   UNL     1       5.585   1.887   2.844  0.00  0.00    -0.015 C 
ENDBRANCH  28  30
ENDBRANCH   1  28
TORSDOF 5
