REMARK  Name = ZINC14646002
REMARK  12 active torsions:
REMARK  status: ('A' for Active; 'I' for Inactive)
REMARK    1  A    between atoms: C_1  and  C_2
REMARK    2  A    between atoms: C_2  and  C_3
REMARK    3  A    between atoms: C_2  and  C_4
REMARK    4  A    between atoms: C_4  and  C_5
REMARK    5  A    between atoms: C_5  and  O_6
REMARK    6  A    between atoms: O_6  and  C_7
REMARK    7  A    between atoms: C_10  and  C_14
REMARK    8  A    between atoms: N_16  and  C_17
REMARK    9  A    between atoms: C_17  and  N_19
REMARK   10  A    between atoms: N_19  and  N_20
REMARK   11  A    between atoms: C_21  and  C_23
REMARK   12  A    between atoms: C_26  and  N_29
REMARK                            x       y       z     vdW  Elec       q    Type
REMARK                         _______ _______ _______ _____ _____    ______ ____
ROOT
ATOM      1  C   UNL     1       4.664   3.944  -0.021  0.00  0.00    +0.250 C 
ATOM      2  O   UNL     1       5.724   3.351  -0.035  0.00  0.00    -0.270 OA
ATOM      3  N   UNL     1       3.506   3.254  -0.014  0.00  0.00    -0.263 N 
ATOM      4  H   UNL     1       2.659   3.728  -0.003  0.00  0.00    +0.157 HD
ENDROOT
BRANCH   1   8
ATOM      5  C   UNL     1       4.605   8.190   0.001  0.00  0.00    +0.134 A 
ATOM      6  C   UNL     1       3.410   7.480   0.008  0.00  0.00    +0.047 A 
ATOM      7  C   UNL     1       3.425   6.104  -0.004  0.00  0.00    +0.017 A 
ATOM      8  C   UNL     1       4.644   5.419  -0.013  0.00  0.00    +0.038 A 
ATOM      9  C   UNL     1       5.843   6.136  -0.021  0.00  0.00    +0.032 A 
ATOM     10  C   UNL     1       5.820   7.514  -0.014  0.00  0.00    +0.060 A 
ATOM     11 BR   UNL     1       7.442   8.486  -0.024  0.00  0.00    -0.046 Br
BRANCH   5  12
ATOM     12  O   UNL     1       4.586   9.547   0.008  0.00  0.00    -0.491 OA
BRANCH  12  13
ATOM     13  C   UNL     1       3.304  10.178   0.022  0.00  0.00    +0.229 C 
BRANCH  13  14
ATOM     14  C   UNL     1       3.483  11.697   0.028  0.00  0.00    +0.044 C 
BRANCH  14  16
ATOM     15  C   UNL     1       1.395  12.044   1.356  0.00  0.00    +0.007 C 
ATOM     16  C   UNL     1       2.110  12.373   0.044  0.00  0.00    -0.014 C 
ATOM     17  C   UNL     1       2.286  13.888  -0.076  0.00  0.00    +0.007 C 
ENDBRANCH  14  16
ENDBRANCH  13  14
ENDBRANCH  12  13
ENDBRANCH   5  12
ENDBRANCH   1   8
BRANCH   3  18
ATOM     18  C   UNL     1       3.524   1.907  -0.021  0.00  0.00    +0.153 C 
ATOM     19  S   UNL     1       5.018   1.071  -0.040  0.00  0.00    -0.017 S 
BRANCH  18  20
ATOM     20  N   UNL     1       2.366   1.217  -0.014  0.00  0.00    -0.245 N 
ATOM     21  H   UNL     1       2.379   0.247  -0.019  0.00  0.00    +0.172 HD
BRANCH  20  22
ATOM     22  N   UNL     1       1.143   1.901   0.001  0.00  0.00    -0.231 N 
ATOM     23  C   UNL     1      -0.014   1.211   0.009  0.00  0.00    +0.260 C 
ATOM     24  O   UNL     1       0.002  -0.004   0.002  0.00  0.00    -0.269 OA
ATOM     25  H   UNL     1       1.130   2.871   0.007  0.00  0.00    +0.173 HD
BRANCH  23  26
ATOM     26  C   UNL     1      -1.305   1.933   0.019  0.00  0.00    +0.038 A 
ATOM     27  C   UNL     1      -1.327   3.329   0.032  0.00  0.00    +0.015 A 
ATOM     28  C   UNL     1      -2.534   3.996   0.037  0.00  0.00    +0.033 A 
ATOM     29  C   UNL     1      -3.721   3.285   0.039  0.00  0.00    +0.126 A 
ATOM     30  C   UNL     1      -3.706   1.901   0.030  0.00  0.00    +0.033 A 
ATOM     31  C   UNL     1      -2.506   1.222   0.021  0.00  0.00    +0.015 A 
BRANCH  29  32
ATOM     32  N   UNL     1      -5.013   4.008   0.050  0.00  0.00    +0.056 N 
ATOM     33  O   UNL     1      -6.060   3.384   0.051  0.00  0.00    -0.126 OA
ATOM     34  O   UNL     1      -5.030   5.225   0.057  0.00  0.00    -0.126 OA
ENDBRANCH  29  32
ENDBRANCH  23  26
ENDBRANCH  20  22
ENDBRANCH  18  20
ENDBRANCH   3  18
TORSDOF 10
