REMARK  Name = ZINC05498308
REMARK  6 active torsions:
REMARK  status: ('A' for Active; 'I' for Inactive)
REMARK    1  A    between atoms: C_1  and  O_2
REMARK    2  A    between atoms: O_2  and  C_3
REMARK    3  A    between atoms: C_3  and  C_5
REMARK    4  A    between atoms: C_8  and  C_10
REMARK    5  A    between atoms: C_10  and  O_11
REMARK    6  A    between atoms: O_11  and  C_12
REMARK                            x       y       z     vdW  Elec       q    Type
REMARK                         _______ _______ _______ _____ _____    ______ ____
ROOT
ATOM      1  C   UNL     1       2.485   5.963  -1.515  0.00  0.00    +0.123 A 
ATOM      2  C   UNL     1       2.963   6.659  -0.409  0.00  0.00    +0.046 A 
ATOM      3  C   UNL     1       3.733   7.787  -0.581  0.00  0.00    +0.014 A 
ATOM      4  C   UNL     1       4.022   8.241  -1.866  0.00  0.00    +0.008 A 
ATOM      5  C   UNL     1       4.790   9.387  -2.388  0.00  0.00    +0.007 A 
ATOM      6  C   UNL     1       5.499  10.421  -1.781  0.00  0.00    +0.010 A 
ATOM      7  C   UNL     1       6.129  11.368  -2.559  0.00  0.00    +0.001 A 
ATOM      8  C   UNL     1       6.060  11.294  -3.942  0.00  0.00    +0.002 A 
ATOM      9  C   UNL     1       5.363  10.275  -4.555  0.00  0.00    +0.026 A 
ATOM     10  C   UNL     1       4.720   9.310  -3.786  0.00  0.00    +0.047 A 
ATOM     11  N   UNL     1       3.965   8.201  -4.125  0.00  0.00    -0.354 N 
ATOM     12  H   UNL     1       3.764   7.923  -5.032  0.00  0.00    +0.166 HD
ATOM     13  C   UNL     1       3.537   7.546  -2.984  0.00  0.00    +0.051 A 
ATOM     14  C   UNL     1       2.766   6.403  -2.795  0.00  0.00    +0.071 A 
ENDROOT
BRANCH   1  15
ATOM     15  O   UNL     1       1.732   4.846  -1.336  0.00  0.00    -0.484 OA
BRANCH  15  16
ATOM     16  C   UNL     1       1.477   4.444   0.012  0.00  0.00    +0.303 C 
BRANCH  16  20
ATOM     17  C   UNL     1      -1.120   1.876   0.017  0.00  0.00    +0.212 A 
ATOM     18  C   UNL     1      -0.013   1.076   0.008  0.00  0.00    +0.057 A 
ATOM     19  C   UNL     1       1.102   1.929   0.002  0.00  0.00    +0.049 A 
ATOM     20  C   UNL     1       0.633   3.196   0.013  0.00  0.00    +0.143 A 
ATOM     21  O   UNL     1      -0.706   3.161   0.026  0.00  0.00    -0.450 OA
BRANCH  17  22
ATOM     22  C   UNL     1      -2.512   1.421   0.020  0.00  0.00    +0.375 C 
ATOM     23  O   UNL     1      -2.762   0.230   0.014  0.00  0.00    -0.241 OA
BRANCH  22  25
ATOM     24  C   UNL     1      -4.871   1.797   0.031  0.00  0.00    +0.280 C 
ATOM     25  O   UNL     1      -3.516   2.321   0.029  0.00  0.00    -0.462 OA
ENDBRANCH  22  25
ENDBRANCH  17  22
ENDBRANCH  16  20
ENDBRANCH  15  16
ENDBRANCH   1  15
TORSDOF 5
