REMARK  Name = ZINC38754698
REMARK  5 active torsions:
REMARK  status: ('A' for Active; 'I' for Inactive)
REMARK    1  A    between atoms: C_8  and  C_10
REMARK    2  A    between atoms: C_12  and  C_15
REMARK    3  A    between atoms: C_15  and  N_16
REMARK    4  A    between atoms: C_17  and  C_19
REMARK    5  A    between atoms: C_21  and  C_25
REMARK                            x       y       z     vdW  Elec       q    Type
REMARK                         _______ _______ _______ _____ _____    ______ ____
ROOT
ATOM      1  C   UNL     1       6.966  -5.226  -0.082  0.00  0.00    +0.163 C 
ENDROOT
BRANCH   1   4
ATOM      2  C   UNL     1       3.796  -3.326  -0.051  0.00  0.00    +0.202 A 
ATOM      3  C   UNL     1       5.159  -3.371  -0.059  0.00  0.00    +0.081 A 
ATOM      4  C   UNL     1       5.547  -4.717  -0.071  0.00  0.00    +0.101 A 
ATOM      5  N   UNL     1       4.471  -5.454  -0.070  0.00  0.00    -0.081 NA
ATOM      6  O   UNL     1       3.345  -4.596  -0.053  0.00  0.00    -0.351 OA
BRANCH   2  14
ATOM      7  C   UNL     1      -0.017   1.363   0.009  0.00  0.00    +0.001 A 
ATOM      8  C   UNL     1       1.171   2.082   0.002  0.00  0.00    +0.004 A 
ATOM      9  C   UNL     1       2.387   1.433  -0.013  0.00  0.00    +0.047 A 
ATOM     10  C   UNL     1       2.430   0.044  -0.021  0.00  0.00    +0.136 A 
ATOM     11  C   UNL     1       1.224  -0.679  -0.013  0.00  0.00    +0.021 A 
ATOM     12  C   UNL     1       0.002  -0.004   0.002  0.00  0.00    +0.011 A 
ATOM     13  C   UNL     1       1.609  -2.091  -0.025  0.00  0.00    +0.061 A 
ATOM     14  C   UNL     1       2.967  -2.111  -0.038  0.00  0.00    +0.174 A 
ATOM     15  O   UNL     1       3.441  -0.848  -0.035  0.00  0.00    -0.452 OA
ENDBRANCH   2  14
ENDBRANCH   1   4
BRANCH   1  16
ATOM     16  N   UNL     1       7.393  -5.514   1.289  0.00  0.00    -0.304 N 
ATOM     17  C   UNL     1       8.634  -5.983   1.524  0.00  0.00    +0.262 C 
ATOM     18  O   UNL     1       9.400  -6.168   0.598  0.00  0.00    -0.269 OA
ATOM     19  H   UNL     1       6.782  -5.366   2.028  0.00  0.00    +0.149 HD
BRANCH  17  20
ATOM     20  C   UNL     1       9.063  -6.272   2.902  0.00  0.00    +0.121 A 
ATOM     21  C   UNL     1      10.296  -6.749   3.301  0.00  0.00    +0.065 A 
ATOM     22  C   UNL     1      10.216  -6.860   4.703  0.00  0.00    +0.128 A 
ATOM     23  N   UNL     1       9.011  -6.469   5.064  0.00  0.00    -0.170 NA
ATOM     24  N   UNL     1       8.321  -6.116   4.040  0.00  0.00    -0.272 N 
ATOM     25  H   UNL     1       7.408  -5.789   4.068  0.00  0.00    +0.189 HD
BRANCH  22  26
ATOM     26  C   UNL     1      11.289  -7.331   5.606  0.00  0.00    +0.155 A 
ATOM     27  C   UNL     1      11.203  -7.441   6.957  0.00  0.00    +0.051 A 
ATOM     28  C   UNL     1      12.449  -7.925   7.406  0.00  0.00    +0.042 A 
ATOM     29  C   UNL     1      13.225  -8.085   6.317  0.00  0.00    +0.196 A 
ATOM     30  O   UNL     1      12.519  -7.731   5.230  0.00  0.00    -0.461 OA
ENDBRANCH  22  26
ENDBRANCH  17  20
ENDBRANCH   1  16
TORSDOF 5
