REMARK  Name = ZINC09601163
REMARK  13 active torsions:
REMARK  status: ('A' for Active; 'I' for Inactive)
REMARK    1  A    between atoms: C_1  and  C_2
REMARK    2  A    between atoms: C_2  and  O_3
REMARK    3  A    between atoms: O_3  and  C_4
REMARK    4  A    between atoms: C_6  and  C_20
REMARK    5  A    between atoms: C_9  and  O_10
REMARK    6  A    between atoms: O_10  and  C_11
REMARK    7  A    between atoms: C_11  and  C_12
REMARK    8  A    between atoms: N_14  and  C_15
REMARK    9  A    between atoms: C_15  and  C_16
REMARK   10  A    between atoms: C_15  and  C_17
REMARK   11  A    between atoms: C_15  and  C_18
REMARK   12  A    between atoms: C_20  and  N_67
REMARK   13  A    between atoms: C_21  and  N_67
REMARK                            x       y       z     vdW  Elec       q    Type
REMARK                         _______ _______ _______ _____ _____    ______ ____
ROOT
ATOM      1  C   UNL     1       0.806   1.987   2.993  0.00  0.00    +0.164 A 
ATOM      2  C   UNL     1       1.347   1.611   4.213  0.00  0.00    +0.051 A 
ATOM      3  C   UNL     1       0.937   0.439   4.819  0.00  0.00    -0.059 A 
ATOM      4  C   UNL     1      -0.012  -0.362   4.211  0.00  0.00    +0.025 A 
ATOM      5  C   UNL     1      -0.559   0.009   2.996  0.00  0.00    +0.086 A 
ATOM      6  C   UNL     1      -0.148   1.182   2.381  0.00  0.00    +0.181 A 
ATOM      7 CL   UNL     1      -1.756  -0.996   2.239  0.00  0.00    -0.080 Cl
ENDROOT
BRANCH   1   8
ATOM      8  O   UNL     1       1.210   3.140   2.396  0.00  0.00    -0.489 OA
BRANCH   8  10
ATOM      9  C   UNL     1       2.518   5.168   2.263  0.00  0.00    +0.048 C 
ATOM     10  C   UNL     1       2.193   3.917   3.082  0.00  0.00    +0.226 C 
ENDBRANCH   8  10
ENDBRANCH   1   8
BRANCH   6  11
ATOM     11  O   UNL     1      -0.682   1.547   1.184  0.00  0.00    -0.478 OA
BRANCH  11  12
ATOM     12  C   UNL     1      -0.013   1.086   0.008  0.00  0.00    +0.324 C 
BRANCH  12  13
ATOM     13  C   UNL     1      -0.742   1.585  -1.213  0.00  0.00    +0.251 C 
ATOM     14  O   UNL     1      -1.736   2.268  -1.088  0.00  0.00    -0.272 OA
ATOM     15  N   UNL     1      -0.288   1.272  -2.443  0.00  0.00    -0.308 N 
ATOM     16  H   UNL     1       0.507   0.726  -2.543  0.00  0.00    +0.149 HD
BRANCH  15  17
ATOM     17  C   UNL     1      -0.997   1.758  -3.630  0.00  0.00    +0.026 C 
ATOM     18  C   UNL     1      -1.018   3.288  -3.622  0.00  0.00    +0.031 C 
ATOM     19  C   UNL     1      -0.281   1.264  -4.889  0.00  0.00    +0.031 C 
ATOM     20  C   UNL     1      -2.432   1.228  -3.619  0.00  0.00    +0.031 C 
ENDBRANCH  15  17
ENDBRANCH  12  13
ENDBRANCH  11  12
ENDBRANCH   6  11
BRANCH   3  21
ATOM     21  C   UNL     1       1.526   0.032   6.145  0.00  0.00    -0.046 C 
BRANCH  21  22
ATOM     22  N   UNL     1       0.705   0.597   7.232  0.00  0.00    +0.385 N 
ATOM     23  H   UNL     1      -0.255   0.240   7.153  0.00  0.00    -0.085 HD
ATOM     24  H   UNL     1       0.696   1.621   7.154  0.00  0.00    -0.085 HD
BRANCH  22  25
ATOM     25  C   UNL     1       1.259   0.214   8.545  0.00  0.00    -0.067 C 
ATOM     26  C   UNL     1       2.687   0.747   8.675  0.00  0.00    -0.009 C 
ATOM     27  C   UNL     1       3.255   0.355  10.040  0.00  0.00    -0.012 C 
ATOM     28  C   UNL     1       2.385   0.954  11.146  0.00  0.00    +0.007 C 
ATOM     29  C   UNL     1       0.956   0.421  11.016  0.00  0.00    -0.012 C 
ATOM     30  C   UNL     1       0.388   0.813   9.651  0.00  0.00    -0.009 C 
ATOM     31  C   UNL     1       0.967  -1.104  11.145  0.00  0.00    +0.007 C 
ATOM     32  C   UNL     1       1.838  -1.703  10.039  0.00  0.00    -0.012 C 
ATOM     33  C   UNL     1       3.266  -1.170  10.169  0.00  0.00    +0.007 C 
ATOM     34  C   UNL     1       1.270  -1.310   8.674  0.00  0.00    -0.009 C 
ENDBRANCH  22  25
ENDBRANCH  21  22
ENDBRANCH   3  21
TORSDOF 9
