REMARK  Name = ZINC20412975
REMARK  5 active torsions:
REMARK  status: ('A' for Active; 'I' for Inactive)
REMARK    1  A    between atoms: C_3  and  C_8
REMARK    2  A    between atoms: C_11  and  C_24
REMARK    3  A    between atoms: N_13  and  C_14
REMARK    4  A    between atoms: C_17  and  S_20
REMARK    5  A    between atoms: S_20  and  N_23
REMARK                            x       y       z     vdW  Elec       q    Type
REMARK                         _______ _______ _______ _____ _____    ______ ____
ROOT
ATOM      1  C   UNL     1       1.226  -2.187  -0.021  0.00  0.00    +0.134 C 
ATOM      2  C   UNL     1       1.577  -2.717  -1.425  0.00  0.00    +0.087 C 
ATOM      3  C   UNL     1       2.861  -3.487  -1.214  0.00  0.00    +0.075 C 
ATOM      4  N   UNL     1       3.199  -3.428   0.031  0.00  0.00    -0.183 NA
ATOM      5  N   UNL     1       2.318  -2.695   0.824  0.00  0.00    -0.216 N 
ENDROOT
BRANCH   1   8
ATOM      6  C   UNL     1      -0.017   1.378   0.010  0.00  0.00    +0.003 A 
ATOM      7  C   UNL     1       0.002  -0.004   0.002  0.00  0.00    +0.006 A 
ATOM      8  C   UNL     1       1.208  -0.680  -0.013  0.00  0.00    -0.022 A 
ATOM      9  C   UNL     1       2.396   0.026  -0.021  0.00  0.00    +0.044 A 
ATOM     10  C   UNL     1       2.379   1.410  -0.013  0.00  0.00    +0.124 A 
ATOM     11  C   UNL     1       1.170   2.086   0.002  0.00  0.00    +0.038 A 
ATOM     12  F   UNL     1       3.540   2.101  -0.021  0.00  0.00    -0.205 F 
ENDBRANCH   1   8
BRANCH   5  13
ATOM     13  C   UNL     1       2.450  -2.479   2.196  0.00  0.00    +0.052 A 
ATOM     14  C   UNL     1       1.504  -1.722   2.876  0.00  0.00    +0.027 A 
ATOM     15  C   UNL     1       1.636  -1.513   4.235  0.00  0.00    +0.030 A 
ATOM     16  C   UNL     1       2.713  -2.048   4.917  0.00  0.00    +0.105 A 
ATOM     17  C   UNL     1       3.660  -2.798   4.242  0.00  0.00    +0.030 A 
ATOM     18  C   UNL     1       3.532  -3.015   2.885  0.00  0.00    +0.027 A 
BRANCH  16  19
ATOM     19  S   UNL     1       2.880  -1.775   6.649  0.00  0.00    +0.056 S 
ATOM     20  O   UNL     1       1.577  -1.501   7.145  0.00  0.00    -0.153 OA
ATOM     21  O   UNL     1       3.680  -2.836   7.153  0.00  0.00    -0.153 OA
BRANCH  19  22
ATOM     22  N   UNL     1       3.761  -0.386   6.843  0.00  0.00    -0.204 NA
ATOM     23  H   UNL     1       3.889  -0.179   7.915  0.00  0.00    +0.144 HD
ATOM     24  H   UNL     1       3.232   0.453   6.368  0.00  0.00    +0.144 HD
ENDBRANCH  19  22
ENDBRANCH  16  19
ENDBRANCH   5  13
BRANCH   3  25
ATOM     25  C   UNL     1       3.609  -4.191  -2.262  0.00  0.00    +0.035 A 
ATOM     26  C   UNL     1       4.784  -4.914  -2.159  0.00  0.00    +0.017 A 
ATOM     27  C   UNL     1       5.299  -5.490  -3.298  0.00  0.00    +0.008 A 
ATOM     28  C   UNL     1       4.644  -5.332  -4.477  0.00  0.00    +0.046 A 
ATOM     29  S   UNL     1       3.236  -4.344  -4.001  0.00  0.00    -0.095 S 
ENDBRANCH   3  25
TORSDOF 5
