REMARK  Name = ZINC19349675
REMARK  3 active torsions:
REMARK  status: ('A' for Active; 'I' for Inactive)
REMARK    1  A    between atoms: C_5  and  C_7
REMARK    2  A    between atoms: C_7  and  C_8
REMARK    3  A    between atoms: C_14  and  C_16
REMARK                            x       y       z     vdW  Elec       q    Type
REMARK                         _______ _______ _______ _____ _____    ______ ____
ROOT
ATOM      1  C   UNL     1       1.369  -2.720   1.381  0.00  0.00    +0.015 A 
ATOM      2  C   UNL     1       0.414  -3.019   2.295  0.00  0.00    +0.124 A 
ATOM      3  N   UNL     1       0.825  -3.444   3.476  0.00  0.00    -0.233 NA
ATOM      4  C   UNL     1       2.107  -3.568   3.744  0.00  0.00    +0.165 A 
ATOM      5  S   UNL     1       2.847  -3.090   2.311  0.00  0.00    -0.057 S 
ATOM      6  N   UNL     1       2.704  -3.997   4.923  0.00  0.00    -0.261 N 
ATOM      7  C   UNL     1       1.941  -4.350   5.976  0.00  0.00    +0.255 C 
ATOM      8  O   UNL     1       0.734  -4.204   5.928  0.00  0.00    -0.270 OA
ATOM      9  H   UNL     1       3.671  -4.042   4.988  0.00  0.00    +0.157 HD
ENDROOT
BRANCH   7  10
ATOM     10  C   UNL     1       2.566  -4.910   7.183  0.00  0.00    +0.101 A 
ATOM     11  C   UNL     1       1.785  -5.387   8.231  0.00  0.00    +0.023 A 
ATOM     12  C   UNL     1       2.410  -5.915   9.365  0.00  0.00    -0.027 A 
ATOM     13  C   UNL     1       3.765  -5.959   9.437  0.00  0.00    +0.022 A 
ATOM     14  N   UNL     1       4.530  -5.494   8.413  0.00  0.00    -0.325 N 
ATOM     15  H   UNL     1       5.496  -5.536   8.487  0.00  0.00    +0.169 HD
ATOM     16  C   UNL     1       3.979  -4.981   7.300  0.00  0.00    +0.261 A 
ATOM     17  O   UNL     1       4.689  -4.576   6.396  0.00  0.00    -0.267 OA
ATOM     18  C   UNL     1       4.194  -6.570  10.757  0.00  0.00    +0.054 C 
ATOM     19  C   UNL     1       2.946  -6.492  11.661  0.00  0.00    +0.011 C 
ATOM     20  C   UNL     1       1.800  -6.490  10.626  0.00  0.00    +0.037 C 
ENDBRANCH   7  10
BRANCH   1  21
ATOM     21  C   UNL     1       1.222  -2.220  -0.033  0.00  0.00    +0.080 C 
BRANCH  21  26
ATOM     22  C   UNL     1       0.002   1.353  -0.020  0.00  0.00    +0.000 A 
ATOM     23  C   UNL     1       1.194   2.053  -0.037  0.00  0.00    +0.001 A 
ATOM     24  C   UNL     1       2.396   1.371  -0.052  0.00  0.00    +0.020 A 
ATOM     25  C   UNL     1       2.406  -0.013  -0.051  0.00  0.00    +0.044 A 
ATOM     26  C   UNL     1       1.213  -0.713  -0.034  0.00  0.00    -0.024 A 
ATOM     27  C   UNL     1       0.011  -0.029  -0.019  0.00  0.00    +0.005 A 
ATOM     28 CL   UNL     1       3.915  -0.871  -0.071  0.00  0.00    -0.083 Cl
ENDBRANCH  21  26
ENDBRANCH   1  21
TORSDOF 3
