REMARK  Name = ZINC27472302
REMARK  9 active torsions:
REMARK  status: ('A' for Active; 'I' for Inactive)
REMARK    1  A    between atoms: C_1  and  C_2
REMARK    2  A    between atoms: C_5  and  C_8
REMARK    3  A    between atoms: C_8  and  C_9
REMARK    4  A    between atoms: C_8  and  C_16
REMARK    5  A    between atoms: C_8  and  O_37
REMARK    6  A    between atoms: C_12  and  C_15
REMARK    7  A    between atoms: N_18  and  N_19
REMARK    8  A    between atoms: N_19  and  C_20
REMARK    9  A    between atoms: C_26  and  C_28
REMARK                            x       y       z     vdW  Elec       q    Type
REMARK                         _______ _______ _______ _____ _____    ______ ____
ROOT
ATOM      1  C   UNL     1       1.669  -2.579  -0.828  0.00  0.00    +0.270 C 
ATOM      2  O   UNL     1       2.828  -2.930  -0.884  0.00  0.00    -0.270 OA
ATOM      3  N   UNL     1       1.049  -2.121  -1.933  0.00  0.00    -0.224 N 
ATOM      4  H   UNL     1      -0.003  -1.803  -1.882  0.00  0.00    +0.174 HD
ENDROOT
BRANCH   3   5
ATOM      5  N   UNL     1       1.744  -2.050  -3.147  0.00  0.00    -0.184 N 
ATOM      6  C   UNL     1       2.124  -3.181  -3.774  0.00  0.00    +0.268 C 
ATOM      7  O   UNL     1       2.673  -3.121  -4.858  0.00  0.00    -0.268 OA
BRANCH   6   8
ATOM      8  C   UNL     1       1.875  -4.489  -3.146  0.00  0.00    +0.049 A 
ATOM      9  C   UNL     1       0.614  -4.847  -2.725  0.00  0.00    +0.058 A 
ATOM     10  S   UNL     1       0.848  -6.437  -2.078  0.00  0.00    -0.101 S 
ATOM     11  C   UNL     1       2.588  -6.604  -2.359  0.00  0.00    -0.006 A 
ATOM     12  C   UNL     1       2.952  -5.441  -2.946  0.00  0.00    -0.025 A 
ATOM     13  C   UNL     1       4.398  -5.186  -3.351  0.00  0.00    +0.037 C 
ATOM     14  C   UNL     1       5.300  -6.164  -2.596  0.00  0.00    +0.005 C 
ATOM     15  C   UNL     1       4.795  -7.596  -2.792  0.00  0.00    +0.005 C 
ATOM     16  C   UNL     1       3.474  -7.765  -2.028  0.00  0.00    +0.043 C 
ENDBRANCH   6   8
BRANCH   5  17
ATOM     17  C   UNL     1       2.044  -0.805  -3.709  0.00  0.00    +0.056 A 
ATOM     18  C   UNL     1       2.072  -0.653  -5.090  0.00  0.00    +0.025 A 
ATOM     19  C   UNL     1       2.362   0.579  -5.641  0.00  0.00    +0.002 A 
ATOM     20  C   UNL     1       2.638   1.658  -4.821  0.00  0.00    +0.000 A 
ATOM     21  C   UNL     1       2.616   1.509  -3.447  0.00  0.00    +0.002 A 
ATOM     22  C   UNL     1       2.321   0.281  -2.889  0.00  0.00    +0.025 A 
ENDBRANCH   5  17
ENDBRANCH   3   5
BRANCH   1  23
ATOM     23  C   UNL     1       0.920  -2.656   0.478  0.00  0.00    +0.194 C 
BRANCH  23  28
ATOM     24  C   UNL     1       1.161   2.467   3.142  0.00  0.00    +0.044 C 
ATOM     25  C   UNL     1       1.099   1.131   2.447  0.00  0.00    -0.050 A 
ATOM     26  C   UNL     1      -0.102   0.451   2.364  0.00  0.00    +0.004 A 
ATOM     27  C   UNL     1      -0.160  -0.774   1.727  0.00  0.00    +0.007 A 
ATOM     28  C   UNL     1       0.983  -1.320   1.172  0.00  0.00    -0.003 A 
ATOM     29  C   UNL     1       2.184  -0.640   1.255  0.00  0.00    +0.007 A 
ATOM     30  C   UNL     1       2.241   0.586   1.892  0.00  0.00    +0.004 A 
ENDBRANCH  23  28
BRANCH  23  31
ATOM     31  C   UNL     1       1.548  -3.708   1.356  0.00  0.00    -0.003 A 
ATOM     32  C   UNL     1       2.893  -3.634   1.669  0.00  0.00    +0.007 A 
ATOM     33  C   UNL     1       3.468  -4.597   2.478  0.00  0.00    +0.004 A 
ATOM     34  C   UNL     1       2.701  -5.638   2.966  0.00  0.00    -0.050 A 
ATOM     35  C   UNL     1       1.357  -5.714   2.649  0.00  0.00    +0.004 A 
ATOM     36  C   UNL     1       0.781  -4.749   1.844  0.00  0.00    +0.007 A 
ATOM     37  C   UNL     1       3.329  -6.690   3.843  0.00  0.00    +0.044 C 
ENDBRANCH  23  31
BRANCH  23  38
ATOM     38  O   UNL     1      -0.444  -2.998   0.227  0.00  0.00    -0.371 OA
ATOM     39  H   UNL     1      -0.690  -3.945  -0.276  0.00  0.00    +0.212 HD
ENDBRANCH  23  38
ENDBRANCH   1  23
TORSDOF 7
