REMARK  Name = ZINC04000116
REMARK  5 active torsions:
REMARK  status: ('A' for Active; 'I' for Inactive)
REMARK    1  A    between atoms: C_1  and  C_2
REMARK    2  A    between atoms: C_8  and  C_25
REMARK    3  A    between atoms: C_8  and  C_26
REMARK    4  A    between atoms: C_9  and  C_16
REMARK    5  A    between atoms: C_17  and  C_18
REMARK                            x       y       z     vdW  Elec       q    Type
REMARK                         _______ _______ _______ _____ _____    ______ ____
ROOT
ATOM      1  C   UNL     1      -0.018   1.503   0.010  0.00  0.00    +0.044 C 
ATOM      2  C   UNL     1       0.002  -0.004   0.002  0.00  0.00    -0.050 A 
ATOM      3  C   UNL     1       0.006  -0.691  -1.198  0.00  0.00    +0.005 A 
ATOM      4  C   UNL     1       0.035  -2.069  -1.209  0.00  0.00    +0.024 A 
ATOM      5  C   UNL     1       0.051  -2.785  -0.011  0.00  0.00    +0.035 A 
ATOM      6  C   UNL     1       0.030  -2.085   1.189  0.00  0.00    -0.016 A 
ATOM      7  C   UNL     1       0.023  -0.704   1.194  0.00  0.00    +0.009 A 
ATOM      8  C   UNL     1      -0.001  -3.081   2.329  0.00  0.00    +0.034 C 
ATOM      9  C   UNL     1      -0.100  -4.445   1.637  0.00  0.00    +0.130 C 
ATOM     10  N   UNL     1       0.121  -4.154   0.211  0.00  0.00    -0.304 N 
ATOM     11  C   UNL     1       0.435  -5.214  -0.760  0.00  0.00    +0.117 C 
ATOM     12  C   UNL     1       1.712  -5.903  -0.263  0.00  0.00    +0.115 C 
ATOM     13  C   UNL     1       1.702  -6.055   1.226  0.00  0.00    +0.216 C 
ATOM     14  O   UNL     1       2.444  -6.889   1.700  0.00  0.00    -0.276 OA
ATOM     15  N   UNL     1       0.952  -5.354   2.079  0.00  0.00    -0.290 N 
ATOM     16  C   UNL     1      -1.225  -2.841   3.215  0.00  0.00    +0.020 C 
ATOM     17  C   UNL     1       1.284  -2.992   3.153  0.00  0.00    +0.020 C 
ATOM     18  H   UNL     1       1.111  -5.454   3.031  0.00  0.00    +0.151 HD
ENDROOT
BRANCH   9  19
ATOM     19  C   UNL     1      -1.458  -5.057   1.867  0.00  0.00    +0.020 C 
ATOM     20  C   UNL     1      -2.240  -5.342   0.836  0.00  0.00    +0.007 C 
BRANCH  20  21
ATOM     21  C   UNL     1      -3.572  -5.942   1.062  0.00  0.00    -0.024 A 
ATOM     22  C   UNL     1      -4.011  -6.205   2.361  0.00  0.00    +0.008 A 
ATOM     23  C   UNL     1      -5.255  -6.765   2.566  0.00  0.00    +0.002 A 
ATOM     24  C   UNL     1      -6.067  -7.067   1.488  0.00  0.00    +0.015 A 
ATOM     25  C   UNL     1      -5.638  -6.809   0.197  0.00  0.00    +0.018 A 
ATOM     26  C   UNL     1      -4.398  -6.244  -0.021  0.00  0.00    +0.023 A 
ATOM     27 BR   UNL     1      -6.757  -7.227  -1.270  0.00  0.00    -0.050 Br
ENDBRANCH  20  21
ENDBRANCH   9  19
TORSDOF 2
