REMARK  Name = ZINC63110318
REMARK  6 active torsions:
REMARK  status: ('A' for Active; 'I' for Inactive)
REMARK    1  A    between atoms: C_1  and  C_2
REMARK    2  A    between atoms: C_2  and  C_3
REMARK    3  A    between atoms: C_2  and  C_4
REMARK    4  A    between atoms: C_6  and  N_10
REMARK    5  A    between atoms: C_11  and  C_13
REMARK    6  A    between atoms: C_16  and  C_21
REMARK                            x       y       z     vdW  Elec       q    Type
REMARK                         _______ _______ _______ _____ _____    ______ ____
ROOT
ATOM      1  C   UNL     1      -5.560  -1.607   3.751  0.00  0.00    +0.101 A 
ATOM      2  C   UNL     1      -5.500  -1.343   5.121  0.00  0.00    +0.020 A 
ATOM      3  C   UNL     1      -6.623  -1.578   5.904  0.00  0.00    +0.027 A 
ATOM      4  C   UNL     1      -7.779  -2.066   5.324  0.00  0.00    +0.049 A 
ATOM      5  N   UNL     1      -7.833  -2.323   3.985  0.00  0.00    -0.321 N 
ATOM      6  H   UNL     1      -8.654  -2.666   3.597  0.00  0.00    +0.169 HD
ATOM      7  C   UNL     1      -6.767  -2.102   3.194  0.00  0.00    +0.261 A 
ATOM      8  O   UNL     1      -6.836  -2.331   1.999  0.00  0.00    -0.267 OA
ENDROOT
BRANCH   4   9
ATOM      9  C   UNL     1      -8.968  -2.313   6.163  0.00  0.00    -0.002 A 
ATOM     10  C   UNL     1      -8.926  -2.049   7.534  0.00  0.00    +0.010 A 
ATOM     11  C   UNL     1     -10.041  -2.282   8.312  0.00  0.00    +0.001 A 
ATOM     12  C   UNL     1     -11.198  -2.777   7.737  0.00  0.00    +0.000 A 
ATOM     13  C   UNL     1     -11.247  -3.041   6.380  0.00  0.00    +0.001 A 
ATOM     14  C   UNL     1     -10.142  -2.806   5.589  0.00  0.00    +0.010 A 
ENDBRANCH   4   9
BRANCH   1  16
ATOM     15  N   UNL     1      -4.489  -1.520   1.560  0.00  0.00    -0.267 N 
ATOM     16  C   UNL     1      -4.389  -1.369   2.896  0.00  0.00    +0.255 C 
ATOM     17  O   UNL     1      -3.330  -1.036   3.394  0.00  0.00    -0.270 OA
ATOM     18  H   UNL     1      -5.309  -1.860   1.170  0.00  0.00    +0.157 HD
BRANCH  15  21
ATOM     19  C   UNL     1      -1.418  -0.503   0.013  0.00  0.00    +0.067 A 
ATOM     20  C   UNL     1      -2.208  -0.702   1.148  0.00  0.00    +0.068 A 
ATOM     21  C   UNL     1      -3.412  -1.187   0.740  0.00  0.00    +0.121 A 
ATOM     22  N   UNL     1      -3.373  -1.288  -0.614  0.00  0.00    -0.264 N 
ATOM     23  H   UNL     1      -4.091  -1.605  -1.185  0.00  0.00    +0.190 HD
ATOM     24  N   UNL     1      -2.114  -0.848  -1.040  0.00  0.00    -0.177 NA
BRANCH  19  26
ATOM     25  C   UNL     1      -0.033   1.553   0.017  0.00  0.00    +0.014 C 
ATOM     26  C   UNL     1      -0.006   0.024   0.003  0.00  0.00    +0.033 C 
ATOM     27  C   UNL     1       0.737  -0.485   1.240  0.00  0.00    +0.014 C 
ENDBRANCH  19  26
ENDBRANCH  15  21
ENDBRANCH   1  16
TORSDOF 4
