REMARK  Name = ZINC49031987
REMARK  3 active torsions:
REMARK  status: ('A' for Active; 'I' for Inactive)
REMARK    1  A    between atoms: C_3  and  C_12
REMARK    2  A    between atoms: C_4  and  S_7
REMARK    3  A    between atoms: S_7  and  C_8
REMARK                            x       y       z     vdW  Elec       q    Type
REMARK                         _______ _______ _______ _____ _____    ______ ____
ROOT
ATOM      1  C   UNL     1       0.165   1.071   0.872  0.00  0.00    +0.020 A 
ATOM      2  C   UNL     1       1.368   1.753   0.889  0.00  0.00    +0.017 A 
ATOM      3  C   UNL     1       2.373   1.351   0.002  0.00  0.00    +0.069 A 
ATOM      4  C   UNL     1       2.118   0.275  -0.867  0.00  0.00    +0.117 A 
ATOM      5  N   UNL     1       0.947  -0.343  -0.841  0.00  0.00    -0.248 NA
ATOM      6  C   UNL     1      -0.012   0.021  -0.012  0.00  0.00    +0.112 A 
ENDROOT
BRANCH   3   7
ATOM      7  C   UNL     1       3.674   2.044  -0.022  0.00  0.00    +0.250 C 
ATOM      8  O   UNL     1       4.705   1.403   0.044  0.00  0.00    -0.270 OA
ATOM      9  N   UNL     1       3.720   3.387  -0.118  0.00  0.00    -0.287 N 
ATOM     10  C   UNL     1       5.002   4.102  -0.245  0.00  0.00    +0.127 C 
ATOM     11  C   UNL     1       5.000   4.851  -1.580  0.00  0.00    +0.123 C 
ATOM     12  N   UNL     1       3.747   5.568  -1.768  0.00  0.00    -0.313 N 
ATOM     13  C   UNL     1       2.603   5.270  -1.149  0.00  0.00    +0.230 C 
ATOM     14  O   UNL     1       1.605   5.891  -1.448  0.00  0.00    -0.274 OA
ATOM     15  C   UNL     1       2.494   4.198  -0.105  0.00  0.00    +0.203 C 
ATOM     16  H   UNL     1       3.743   6.316  -2.386  0.00  0.00    +0.149 HD
ENDBRANCH   3   7
BRANCH   4  17
ATOM     17  S   UNL     1       3.363  -0.254  -1.996  0.00  0.00    +0.005 S 
BRANCH  17  18
ATOM     18  C   UNL     1       2.592  -1.636  -2.883  0.00  0.00    +0.449 C 
ATOM     19  F   UNL     1       1.443  -1.185  -3.540  0.00  0.00    -0.160 F 
ATOM     20  F   UNL     1       3.495  -2.149  -3.821  0.00  0.00    -0.160 F 
ATOM     21  F   UNL     1       2.246  -2.640  -1.972  0.00  0.00    -0.160 F 
ENDBRANCH  17  18
ENDBRANCH   4  17
TORSDOF 3
