REMARK  Name = ZINC10353230
REMARK  8 active torsions:
REMARK  status: ('A' for Active; 'I' for Inactive)
REMARK    1  A    between atoms: C_1  and  C_2
REMARK    2  A    between atoms: C_5  and  N_8
REMARK    3  A    between atoms: C_9  and  C_28
REMARK    4  A    between atoms: C_10  and  C_24
REMARK    5  A    between atoms: C_11  and  C_16
REMARK    6  A    between atoms: C_20  and  C_22
REMARK    7  A    between atoms: C_24  and  O_26
REMARK    8  A    between atoms: O_26  and  C_27
REMARK                            x       y       z     vdW  Elec       q    Type
REMARK                         _______ _______ _______ _____ _____    ______ ____
ROOT
ATOM      1  N   UNL     1      -2.365   6.799  -0.549  0.00  0.00    -0.228 N 
ATOM      2  C   UNL     1      -1.865   5.937  -1.484  0.00  0.00    +0.029 C 
ATOM      3  C   UNL     1      -0.699   5.287  -1.279  0.00  0.00    +0.078 C 
ATOM      4  C   UNL     1       0.033   5.545   0.022  0.00  0.00    +0.144 C 
ATOM      5  N   UNL     1      -0.590   6.491   0.963  0.00  0.00    -0.288 N 
ATOM      6  C   UNL     1      -1.760   7.064   0.616  0.00  0.00    +0.311 C 
ATOM      7  O   UNL     1      -2.282   7.847   1.385  0.00  0.00    -0.252 OA
ATOM      8  C   UNL     1      -2.626   5.709  -2.764  0.00  0.00    +0.062 C 
ATOM      9  H   UNL     1      -0.169   6.697   1.812  0.00  0.00    +0.151 HD
ENDROOT
BRANCH   1  14
ATOM     10  C   UNL     1      -7.283   9.402  -1.664  0.00  0.00    +0.044 C 
ATOM     11  C   UNL     1      -5.977   8.711  -1.367  0.00  0.00    -0.050 A 
ATOM     12  C   UNL     1      -5.961   7.572  -0.584  0.00  0.00    +0.005 A 
ATOM     13  C   UNL     1      -4.766   6.936  -0.311  0.00  0.00    +0.024 A 
ATOM     14  C   UNL     1      -3.579   7.442  -0.824  0.00  0.00    +0.042 A 
ATOM     15  C   UNL     1      -3.597   8.589  -1.605  0.00  0.00    +0.024 A 
ATOM     16  C   UNL     1      -4.796   9.217  -1.880  0.00  0.00    +0.005 A 
ENDBRANCH   1  14
BRANCH   4  17
ATOM     17  C   UNL     1       0.199   4.226   0.731  0.00  0.00    -0.021 A 
ATOM     18  C   UNL     1      -0.856   3.690   1.448  0.00  0.00    +0.006 A 
ATOM     19  C   UNL     1      -0.714   2.477   2.099  0.00  0.00    +0.002 A 
ATOM     20  C   UNL     1       0.486   1.798   2.044  0.00  0.00    +0.019 A 
ATOM     21  C   UNL     1       1.554   2.333   1.322  0.00  0.00    +0.052 A 
ATOM     22  C   UNL     1       1.403   3.555   0.664  0.00  0.00    +0.024 A 
BRANCH  21  23
ATOM     23  C   UNL     1       2.801   1.631   1.257  0.00  0.00    +0.099 C 
ATOM     24  N   UNL     1       3.790   1.074   1.205  0.00  0.00    -0.191 NA
ENDBRANCH  21  23
ENDBRANCH   4  17
BRANCH   3  25
ATOM     25  C   UNL     1      -0.180   4.395  -2.246  0.00  0.00    +0.339 C 
ATOM     26  O   UNL     1      -0.729   4.280  -3.326  0.00  0.00    -0.245 OA
BRANCH  25  27
ATOM     27  O   UNL     1       0.926   3.671  -1.972  0.00  0.00    -0.465 OA
ATOM     28  C   UNL     1       1.395   2.790  -2.995  0.00  0.00    +0.280 C 
ENDBRANCH  25  27
ENDBRANCH   3  25
TORSDOF 5
