REMARK  Name = ZINC50035665
REMARK  4 active torsions:
REMARK  status: ('A' for Active; 'I' for Inactive)
REMARK    1  A    between atoms: C_2  and  C_16
REMARK    2  A    between atoms: C_3  and  N_15
REMARK    3  A    between atoms: C_6  and  S_7
REMARK    4  A    between atoms: S_7  and  C_8
REMARK                            x       y       z     vdW  Elec       q    Type
REMARK                         _______ _______ _______ _____ _____    ______ ____
ROOT
ATOM      1  C   UNL     1      -0.094   1.199  -0.100  0.00  0.00    +0.035 A 
ATOM      2  C   UNL     1       1.002   2.068  -0.158  0.00  0.00    +0.085 A 
ATOM      3  C   UNL     1       2.305   1.553  -0.052  0.00  0.00    +0.042 A 
ATOM      4  C   UNL     1       2.496   0.187   0.108  0.00  0.00    +0.063 A 
ATOM      5  C   UNL     1       1.409  -0.663   0.164  0.00  0.00    +0.139 A 
ATOM      6  C   UNL     1       0.112  -0.158   0.060  0.00  0.00    +0.052 A 
ATOM      7  F   UNL     1       1.602  -1.991   0.319  0.00  0.00    -0.204 F 
ENDROOT
BRANCH   3   8
ATOM      8  N   UNL     1       3.399   2.407  -0.108  0.00  0.00    -0.357 N 
ATOM      9  H   UNL     1       3.264   3.368  -0.134  0.00  0.00    +0.142 HD
ATOM     10  H   UNL     1       4.298   2.044  -0.123  0.00  0.00    +0.142 HD
ENDBRANCH   3   8
BRANCH   2  11
ATOM     11  C   UNL     1       0.791   3.512  -0.328  0.00  0.00    +0.388 C 
ATOM     12  O   UNL     1      -0.335   3.945  -0.536  0.00  0.00    -0.241 OA
ATOM     13  O   UNL     1       1.740   4.282  -0.262  0.00  0.00    -0.241 OA
ENDBRANCH   2  11
BRANCH   6  14
ATOM     14  S   UNL     1      -1.266  -1.253   0.132  0.00  0.00    -0.048 S 
BRANCH  14  15
ATOM     15  C   UNL     1      -1.279  -2.028  -1.450  0.00  0.00    +0.189 A 
ATOM     16  N   UNL     1      -2.105  -3.021  -1.843  0.00  0.00    -0.254 N 
ATOM     17  H   UNL     1      -2.801  -3.442  -1.315  0.00  0.00    +0.191 HD
ATOM     18  N   UNL     1      -1.758  -3.322  -3.170  0.00  0.00    -0.160 NA
ATOM     19  C   UNL     1      -0.776  -2.525  -3.498  0.00  0.00    +0.245 A 
ATOM     20  N   UNL     1      -0.488  -1.737  -2.462  0.00  0.00    -0.209 NA
ENDBRANCH  14  15
ENDBRANCH   6  14
TORSDOF 4
