REMARK  Name = ZINC59187417
REMARK  15 active torsions:
REMARK  status: ('A' for Active; 'I' for Inactive)
REMARK    1  A    between atoms: C_1  and  C_2
REMARK    2  A    between atoms: C_5  and  C_7
REMARK    3  A    between atoms: C_7  and  N_8
REMARK    4  A    between atoms: N_8  and  C_9
REMARK    5  A    between atoms: N_8  and  C_19
REMARK    6  A    between atoms: C_11  and  C_17
REMARK    7  A    between atoms: C_11  and  C_18
REMARK    8  A    between atoms: C_13  and  C_15
REMARK    9  A    between atoms: C_13  and  C_16
REMARK   10  A    between atoms: C_19  and  N_21
REMARK   11  A    between atoms: N_21  and  C_22
REMARK   12  A    between atoms: C_24  and  O_30
REMARK   13  A    between atoms: C_26  and  O_28
REMARK   14  A    between atoms: O_28  and  C_29
REMARK   15  A    between atoms: O_30  and  C_31
REMARK                            x       y       z     vdW  Elec       q    Type
REMARK                         _______ _______ _______ _____ _____    ______ ____
ROOT
ATOM      1  N   UNL     1       1.807  -3.663  -1.408  0.00  0.00    -0.302 N 
ENDROOT
BRANCH   1   2
ATOM      2  C   UNL     1       2.960  -3.054  -2.083  0.00  0.00    +0.073 C 
ATOM      3  C   UNL     1       4.216  -3.287  -1.241  0.00  0.00    +0.009 C 
ATOM      4  C   UNL     1       5.424  -2.647  -1.925  0.00  0.00    -0.072 C 
ATOM      5  N   UNL     1       5.204  -1.239  -2.221  0.00  0.00    +0.386 N 
ATOM      6  C   UNL     1       3.942  -0.868  -2.841  0.00  0.00    -0.072 C 
ATOM      7  C   UNL     1       2.735  -1.547  -2.201  0.00  0.00    +0.009 C 
ATOM      8  C   UNL     1       3.763   0.657  -2.653  0.00  0.00    -0.010 C 
ATOM      9  C   UNL     1       3.952  -1.134  -4.348  0.00  0.00    -0.010 C 
ATOM     10  C   UNL     1       5.809  -3.444  -3.171  0.00  0.00    -0.010 C 
ATOM     11  C   UNL     1       6.610  -2.737  -0.938  0.00  0.00    -0.010 C 
ATOM     12  H   UNL     1       5.303  -0.709  -1.351  0.00  0.00    -0.084 HD
ATOM     13  H   UNL     1       5.966  -0.914  -2.821  0.00  0.00    -0.084 HD
ENDBRANCH   1   2
BRANCH   1  14
ATOM     14  C   UNL     1       1.019  -4.532  -2.072  0.00  0.00    +0.138 C 
ATOM     15  S   UNL     1      -0.397  -5.143  -1.329  0.00  0.00    -0.018 S 
BRANCH  14  16
ATOM     16  N   UNL     1       1.346  -4.919  -3.321  0.00  0.00    -0.297 N 
ATOM     17  H   UNL     1       0.898  -4.522  -4.085  0.00  0.00    +0.154 HD
BRANCH  16  18
ATOM     18  C   UNL     1       2.330  -5.893  -3.516  0.00  0.00    +0.040 A 
ATOM     19  C   UNL     1       2.892  -6.541  -2.424  0.00  0.00    +0.069 A 
ATOM     20  C   UNL     1       3.868  -7.507  -2.619  0.00  0.00    +0.125 A 
ATOM     21  C   UNL     1       4.283  -7.825  -3.903  0.00  0.00    +0.091 A 
ATOM     22  C   UNL     1       3.723  -7.178  -4.994  0.00  0.00    +0.125 A 
ATOM     23  C   UNL     1       2.743  -6.216  -4.802  0.00  0.00    +0.069 A 
BRANCH  22  24
ATOM     24  O   UNL     1       4.131  -7.489  -6.252  0.00  0.00    -0.495 OA
ATOM     25  C   UNL     1       5.141  -8.493  -6.377  0.00  0.00    +0.277 C 
ENDBRANCH  22  24
BRANCH  20  26
ATOM     26  O   UNL     1       4.417  -8.142  -1.550  0.00  0.00    -0.495 OA
ATOM     27  C   UNL     1       5.417  -9.125  -1.824  0.00  0.00    +0.277 C 
ENDBRANCH  20  26
ENDBRANCH  16  18
ENDBRANCH  14  16
ENDBRANCH   1  14
BRANCH   1  28
ATOM     28  C   UNL     1       1.514  -3.328  -0.012  0.00  0.00    +0.181 C 
BRANCH  28  33
ATOM     29  C   UNL     1      -0.111   1.444   0.171  0.00  0.00    +0.086 C 
ATOM     30  C   UNL     1      -0.115  -0.062   0.115  0.00  0.00    +0.102 A 
ATOM     31  C   UNL     1      -1.208  -0.845   0.090  0.00  0.00    +0.045 A 
ATOM     32  C   UNL     1      -0.753  -2.183   0.039  0.00  0.00    +0.046 A 
ATOM     33  C   UNL     1       0.591  -2.137   0.035  0.00  0.00    +0.122 A 
ATOM     34  O   UNL     1       0.972  -0.850   0.075  0.00  0.00    -0.463 OA
ENDBRANCH  28  33
ENDBRANCH   1  28
TORSDOF 8
