REMARK  Name = ZINC40364602
REMARK  8 active torsions:
REMARK  status: ('A' for Active; 'I' for Inactive)
REMARK    1  A    between atoms: C_1  and  C_2
REMARK    2  A    between atoms: C_2  and  C_3
REMARK    3  A    between atoms: C_3  and  C_4
REMARK    4  A    between atoms: C_3  and  C_5
REMARK    5  A    between atoms: C_3  and  N_8
REMARK    6  A    between atoms: C_5  and  N_7
REMARK    7  A    between atoms: N_8  and  S_9
REMARK    8  A    between atoms: S_9  and  C_12
REMARK                            x       y       z     vdW  Elec       q    Type
REMARK                         _______ _______ _______ _____ _____    ______ ____
ROOT
ATOM      1  N   UNL     1      -2.176  -0.004  -0.917  0.00  0.00    -0.178 NA
ATOM      2  H   UNL     1      -2.901   0.508  -0.527  0.00  0.00    +0.149 HD
ENDROOT
BRANCH   1   3
ATOM      3  S   UNL     1      -1.961  -0.019  -2.559  0.00  0.00    +0.060 S 
ATOM      4  O   UNL     1      -1.769  -1.377  -2.931  0.00  0.00    -0.153 OA
ATOM      5  O   UNL     1      -2.995   0.784  -3.111  0.00  0.00    -0.153 OA
BRANCH   3   6
ATOM      6  C   UNL     1      -0.444   0.814  -2.893  0.00  0.00    +0.120 A 
ATOM      7  C   UNL     1       0.628   0.114  -3.414  0.00  0.00    +0.045 A 
ATOM      8  C   UNL     1       1.818   0.767  -3.676  0.00  0.00    +0.020 A 
ATOM      9  C   UNL     1       1.936   2.122  -3.418  0.00  0.00    +0.016 A 
ATOM     10  C   UNL     1       0.864   2.821  -2.898  0.00  0.00    +0.018 A 
ATOM     11  C   UNL     1      -0.329   2.168  -2.640  0.00  0.00    +0.044 A 
ATOM     12 BR   UNL     1      -1.798   3.127  -1.936  0.00  0.00    -0.048 Br
ATOM     13 BR   UNL     1       3.286  -0.190  -4.388  0.00  0.00    -0.050 Br
ENDBRANCH   3   6
ENDBRANCH   1   3
BRANCH   1  14
ATOM     14  C   UNL     1      -1.269  -0.764  -0.053  0.00  0.00    +0.081 C 
ATOM     15  C   UNL     1      -1.200  -2.215  -0.536  0.00  0.00    +0.036 C 
BRANCH  14  17
ATOM     16  C   UNL     1       0.072   1.284   0.446  0.00  0.00    +0.006 C 
ATOM     17  C   UNL     1       0.128  -0.142  -0.106  0.00  0.00    +0.027 C 
ENDBRANCH  14  17
BRANCH  14  18
ATOM     18  C   UNL     1      -1.780  -0.731   1.365  0.00  0.00    +0.068 C 
ATOM     19  S   UNL     1      -3.126   0.060   1.711  0.00  0.00    -0.039 S 
BRANCH  18  20
ATOM     20  N   UNL     1      -1.103  -1.367   2.340  0.00  0.00    -0.354 N 
ATOM     21  H   UNL     1      -0.286  -1.847   2.131  0.00  0.00    +0.143 HD
ATOM     22  H   UNL     1      -1.431  -1.346   3.253  0.00  0.00    +0.143 HD
ENDBRANCH  18  20
ENDBRANCH  14  18
ENDBRANCH   1  14
TORSDOF 6
