REMARK  Name = ZINC02184756
REMARK  6 active torsions:
REMARK  status: ('A' for Active; 'I' for Inactive)
REMARK    1  A    between atoms: C_1  and  C_2
REMARK    2  A    between atoms: C_4  and  C_26
REMARK    3  A    between atoms: C_5  and  N_9
REMARK    4  A    between atoms: C_6  and  C_8
REMARK    5  A    between atoms: N_9  and  S_10
REMARK    6  A    between atoms: S_10  and  C_13
REMARK                            x       y       z     vdW  Elec       q    Type
REMARK                         _______ _______ _______ _____ _____    ______ ____
ROOT
ATOM      1  S   UNL     1      -0.204   1.256  -0.477  0.00  0.00    +0.073 S 
ATOM      2  O   UNL     1      -0.194   1.825   0.825  0.00  0.00    -0.150 OA
ATOM      3  O   UNL     1      -0.410  -0.132  -0.701  0.00  0.00    -0.150 OA
ENDROOT
BRANCH   1   4
ATOM      4  C   UNL     1       1.345   1.660  -1.214  0.00  0.00    +0.116 A 
ATOM      5  C   UNL     1       2.269   2.407  -0.535  0.00  0.00    +0.031 A 
ATOM      6  C   UNL     1       3.512   2.751  -1.065  0.00  0.00    +0.026 A 
ATOM      7  C   UNL     1       3.856   2.344  -2.341  0.00  0.00    +0.042 A 
ATOM      8  C   UNL     1       2.904   1.591  -3.021  0.00  0.00    +0.017 A 
ATOM      9  C   UNL     1       1.656   1.228  -2.514  0.00  0.00    +0.011 A 
ATOM     10  C   UNL     1       0.822   0.463  -3.347  0.00  0.00    +0.010 A 
ATOM     11  C   UNL     1       1.268   0.119  -4.595  0.00  0.00    +0.001 A 
ATOM     12  C   UNL     1       2.519   0.490  -5.087  0.00  0.00    +0.014 A 
ATOM     13  C   UNL     1       3.370   1.243  -4.298  0.00  0.00    +0.047 A 
ATOM     14  C   UNL     1       4.708   1.843  -4.369  0.00  0.00    +0.249 C 
ATOM     15  O   UNL     1       5.471   1.780  -5.315  0.00  0.00    -0.270 OA
ATOM     16  N   UNL     1       4.946   2.480  -3.192  0.00  0.00    -0.281 N 
ATOM     17  H   UNL     1       5.761   2.960  -2.976  0.00  0.00    +0.155 HD
ENDBRANCH   1   4
BRANCH   1  18
ATOM     18  N   UNL     1      -1.376   2.053  -1.333  0.00  0.00    -0.216 N 
ATOM     19  H   UNL     1      -2.018   1.551  -1.860  0.00  0.00    +0.174 HD
BRANCH  18  24
ATOM     20  C   UNL     1      -1.640   7.716  -1.187  0.00  0.00    +0.044 C 
ATOM     21  C   UNL     1      -1.570   6.211  -1.226  0.00  0.00    -0.050 A 
ATOM     22  C   UNL     1      -1.227   5.566  -2.401  0.00  0.00    +0.008 A 
ATOM     23  C   UNL     1      -1.162   4.188  -2.439  0.00  0.00    -0.028 A 
ATOM     24  C   UNL     1      -1.441   3.448  -1.297  0.00  0.00    +0.054 A 
ATOM     25  C   UNL     1      -1.790   4.099  -0.121  0.00  0.00    -0.028 A 
ATOM     26  C   UNL     1      -1.849   5.478  -0.087  0.00  0.00    +0.008 A 
ATOM     27  C   UNL     1      -2.100   3.300   1.119  0.00  0.00    +0.046 C 
ATOM     28  C   UNL     1      -0.788   3.486  -3.720  0.00  0.00    +0.046 C 
ENDBRANCH  18  24
ENDBRANCH   1  18
TORSDOF 3
