REMARK  Name = ZINC04140393
REMARK  4 active torsions:
REMARK  status: ('A' for Active; 'I' for Inactive)
REMARK    1  A    between atoms: C_1  and  O_2
REMARK    2  A    between atoms: O_2  and  C_3
REMARK    3  A    between atoms: C_8  and  C_9
REMARK    4  A    between atoms: C_20  and  N_25
REMARK                            x       y       z     vdW  Elec       q    Type
REMARK                         _______ _______ _______ _____ _____    ______ ____
ROOT
ATOM      1  C   UNL     1      -6.236   3.299   0.092  0.00  0.00    +0.108 C 
ATOM      2  C   UNL     1      -6.008   2.014   0.867  0.00  0.00    +0.029 C 
ATOM      3  C   UNL     1      -7.158   1.003   0.858  0.00  0.00    +0.033 C 
ATOM      4  C   UNL     1      -6.392  -0.309   1.036  0.00  0.00    -0.030 C 
ATOM      5  C   UNL     1      -5.157  -0.181   0.568  0.00  0.00    -0.023 C 
ATOM      6  C   UNL     1      -4.999   1.188   0.015  0.00  0.00    +0.049 C 
ATOM      7  C   UNL     1      -3.700   1.895   0.034  0.00  0.00    -0.017 A 
ATOM      8  C   UNL     1      -2.494   1.229   0.021  0.00  0.00    +0.038 A 
ATOM      9  C   UNL     1      -1.306   1.936   0.019  0.00  0.00    +0.127 A 
ATOM     10  C   UNL     1      -1.325   3.319   0.032  0.00  0.00    +0.034 A 
ATOM     11  C   UNL     1      -2.527   3.996   0.043  0.00  0.00    +0.025 A 
ATOM     12  C   UNL     1      -3.727   3.295   0.054  0.00  0.00    +0.032 A 
ATOM     13  N   UNL     1      -4.934   4.003   0.095  0.00  0.00    -0.336 N 
ATOM     14  H   UNL     1      -4.917   4.972   0.126  0.00  0.00    +0.147 HD
ENDROOT
BRANCH   1  20
ATOM     15  C   UNL     1      -8.628   3.849   0.603  0.00  0.00    +0.125 A 
ATOM     16  C   UNL     1      -9.590   4.625   1.233  0.00  0.00    +0.046 A 
ATOM     17  C   UNL     1      -9.207   5.685   2.032  0.00  0.00    +0.004 A 
ATOM     18  C   UNL     1      -7.865   5.973   2.203  0.00  0.00    +0.001 A 
ATOM     19  C   UNL     1      -6.904   5.198   1.580  0.00  0.00    +0.009 A 
ATOM     20  C   UNL     1      -7.283   4.140   0.776  0.00  0.00    +0.015 A 
BRANCH  15  22
ATOM     21  C   UNL     1     -10.406   2.565  -0.316  0.00  0.00    +0.277 C 
ATOM     22  O   UNL     1      -9.003   2.806  -0.183  0.00  0.00    -0.495 OA
ENDBRANCH  15  22
ENDBRANCH   1  20
BRANCH   9  23
ATOM     23  N   UNL     1      -0.014   1.214   0.009  0.00  0.00    +0.056 N 
ATOM     24  O   UNL     1       0.002  -0.004   0.002  0.00  0.00    -0.126 OA
ATOM     25  O   UNL     1       1.032   1.837   0.002  0.00  0.00    -0.126 OA
ENDBRANCH   9  23
TORSDOF 3
