REMARK  Name = ZINC35040070
REMARK  11 active torsions:
REMARK  status: ('A' for Active; 'I' for Inactive)
REMARK    1  A    between atoms: C_1  and  C_2
REMARK    2  A    between atoms: C_2  and  C_3
REMARK    3  A    between atoms: C_3  and  C_4
REMARK    4  A    between atoms: C_4  and  C_5
REMARK    5  A    between atoms: C_5  and  C_6
REMARK    6  A    between atoms: C_6  and  N_7
REMARK    7  A    between atoms: N_7  and  C_8
REMARK    8  A    between atoms: C_8  and  C_10
REMARK    9  A    between atoms: C_8  and  C_11
REMARK   10  A    between atoms: N_21  and  C_22
REMARK   11  A    between atoms: C_29  and  C_31
REMARK                            x       y       z     vdW  Elec       q    Type
REMARK                         _______ _______ _______ _____ _____    ______ ____
ROOT
ATOM      1  C   UNL     1       3.834  -3.854  -4.779  0.00  0.00    +0.138 A 
ATOM      2  N   UNL     1       2.971  -3.081  -5.365  0.00  0.00    -0.231 NA
ATOM      3  C   UNL     1       3.361  -2.017  -6.111  0.00  0.00    +0.078 A 
ATOM      4  C   UNL     1       2.432  -1.185  -6.740  0.00  0.00    +0.028 A 
ATOM      5  C   UNL     1       2.872  -0.116  -7.488  0.00  0.00    +0.002 A 
ATOM      6  C   UNL     1       4.229   0.146  -7.626  0.00  0.00    +0.001 A 
ATOM      7  C   UNL     1       5.164  -0.660  -7.015  0.00  0.00    +0.015 A 
ATOM      8  C   UNL     1       4.740  -1.747  -6.253  0.00  0.00    +0.065 A 
ATOM      9  C   UNL     1       5.691  -2.641  -5.577  0.00  0.00    +0.266 A 
ATOM     10  O   UNL     1       6.893  -2.464  -5.659  0.00  0.00    -0.267 OA
ATOM     11  N   UNL     1       5.179  -3.666  -4.857  0.00  0.00    -0.263 N 
ENDROOT
BRANCH  11  12
ATOM     12  C   UNL     1       6.043  -4.545  -4.189  0.00  0.00    +0.051 A 
ATOM     13  C   UNL     1       6.886  -5.376  -4.915  0.00  0.00    +0.027 A 
ATOM     14  C   UNL     1       7.736  -6.242  -4.254  0.00  0.00    +0.017 A 
ATOM     15  C   UNL     1       7.747  -6.281  -2.871  0.00  0.00    +0.018 A 
ATOM     16  C   UNL     1       6.908  -5.454  -2.146  0.00  0.00    +0.017 A 
ATOM     17  C   UNL     1       6.061  -4.582  -2.801  0.00  0.00    +0.027 A 
ATOM     18 BR   UNL     1       8.912  -7.468  -1.970  0.00  0.00    -0.050 Br
ENDBRANCH  11  12
BRANCH   1  19
ATOM     19  C   UNL     1       3.320  -5.015  -3.967  0.00  0.00    +0.140 C 
ATOM     20  C   UNL     1       3.918  -6.317  -4.503  0.00  0.00    +0.036 C 
BRANCH  19  21
ATOM     21  N   UNL     1       1.859  -5.071  -4.067  0.00  0.00    -0.285 N 
ATOM     22  C   UNL     1       1.272  -5.229  -5.270  0.00  0.00    +0.282 C 
ATOM     23  O   UNL     1       1.953  -5.416  -6.260  0.00  0.00    -0.267 OA
BRANCH  22  24
ATOM     24  C   UNL     1      -0.190  -5.175  -5.385  0.00  0.00    +0.189 A 
ATOM     25  C   UNL     1      -0.915  -5.426  -6.513  0.00  0.00    +0.054 A 
ATOM     26  C   UNL     1      -2.266  -5.260  -6.170  0.00  0.00    +0.042 A 
ATOM     27  C   UNL     1      -2.305  -4.919  -4.863  0.00  0.00    +0.196 A 
ATOM     28  O   UNL     1      -1.052  -4.873  -4.392  0.00  0.00    -0.458 OA
ENDBRANCH  22  24
BRANCH  21  29
ATOM     29  C   UNL     1       1.037  -4.956  -2.860  0.00  0.00    +0.109 C 
BRANCH  29  30
ATOM     30  C   UNL     1       0.651  -3.491  -2.644  0.00  0.00    +0.019 C 
BRANCH  30  31
ATOM     31  C   UNL     1      -0.207  -3.371  -1.383  0.00  0.00    +0.002 C 
BRANCH  31  32
ATOM     32  C   UNL     1      -0.593  -1.906  -1.167  0.00  0.00    -0.000 C 
BRANCH  32  34
ATOM     33  C   UNL     1      -1.838  -0.321   0.310  0.00  0.00    +0.004 C 
ATOM     34  C   UNL     1      -1.451  -1.786   0.094  0.00  0.00    -0.003 C 
ENDBRANCH  32  34
ENDBRANCH  31  32
ENDBRANCH  30  31
ENDBRANCH  29  30
ENDBRANCH  21  29
ENDBRANCH  19  21
ENDBRANCH   1  19
TORSDOF 9
