REMARK  Name = ZINC63626133
REMARK  7 active torsions:
REMARK  status: ('A' for Active; 'I' for Inactive)
REMARK    1  A    between atoms: C_1  and  C_2
REMARK    2  A    between atoms: C_8  and  C_11
REMARK    3  A    between atoms: C_11  and  C_12
REMARK    4  A    between atoms: C_12  and  N_13
REMARK    5  A    between atoms: N_13  and  C_14
REMARK    6  A    between atoms: N_19  and  C_22
REMARK    7  A    between atoms: C_27  and  C_28
REMARK                            x       y       z     vdW  Elec       q    Type
REMARK                         _______ _______ _______ _____ _____    ______ ____
ROOT
ATOM      1  C   UNL     1      -2.754  -2.652   6.126  0.00  0.00    +0.026 C 
ATOM      2  C   UNL     1      -2.775  -2.459   7.656  0.00  0.00    +0.090 C 
ATOM      3  C   UNL     1      -3.588  -1.196   7.843  0.00  0.00    +0.225 C 
ATOM      4  O   UNL     1      -3.851  -0.682   8.909  0.00  0.00    -0.275 OA
ATOM      5  N   UNL     1      -3.971  -0.737   6.645  0.00  0.00    -0.211 N 
ATOM      6  C   UNL     1      -3.558  -1.480   5.606  0.00  0.00    +0.213 C 
ATOM      7  O   UNL     1      -3.791  -1.251   4.438  0.00  0.00    -0.277 OA
ENDROOT
BRANCH   5   8
ATOM      8  C   UNL     1      -4.741   0.423   6.487  0.00  0.00    +0.055 A 
ATOM      9  C   UNL     1      -4.120   1.655   6.334  0.00  0.00    +0.024 A 
ATOM     10  C   UNL     1      -4.881   2.797   6.180  0.00  0.00    +0.002 A 
ATOM     11  C   UNL     1      -6.262   2.714   6.178  0.00  0.00    +0.001 A 
ATOM     12  C   UNL     1      -6.883   1.489   6.330  0.00  0.00    +0.014 A 
ATOM     13  C   UNL     1      -6.127   0.342   6.479  0.00  0.00    +0.077 A 
BRANCH  13  14
ATOM     14  C   UNL     1      -6.806  -0.994   6.639  0.00  0.00    +0.419 C 
ATOM     15  F   UNL     1      -8.193  -0.820   6.598  0.00  0.00    -0.166 F 
ATOM     16  F   UNL     1      -6.411  -1.844   5.600  0.00  0.00    -0.166 F 
ATOM     17  F   UNL     1      -6.442  -1.558   7.866  0.00  0.00    -0.166 F 
ENDBRANCH  13  14
ENDBRANCH   5   8
BRANCH   1  18
ATOM     18  N   UNL     1      -1.377  -2.600   5.617  0.00  0.00    +0.387 N 
ATOM     19  H   UNL     1      -0.820  -3.302   6.081  0.00  0.00    -0.085 HD
ATOM     20  H   UNL     1      -0.986  -1.687   5.798  0.00  0.00    -0.085 HD
BRANCH  18  21
ATOM     21  C   UNL     1      -1.379  -2.854   4.170  0.00  0.00    -0.077 C 
BRANCH  21  22
ATOM     22  C   UNL     1       0.055  -2.799   3.641  0.00  0.00    +0.014 C 
BRANCH  22  30
ATOM     23  C   UNL     1      -0.018   1.503   0.010  0.00  0.00    +0.044 C 
ATOM     24  C   UNL     1       0.002  -0.004   0.002  0.00  0.00    -0.050 A 
ATOM     25  C   UNL     1       0.005  -0.680  -1.226  0.00  0.00    +0.005 A 
ATOM     26  C   UNL     1       0.023  -2.026  -1.317  0.00  0.00    +0.026 A 
ATOM     27  C   UNL     1       0.039  -2.826  -0.141  0.00  0.00    +0.043 A 
ATOM     28  N   UNL     1       0.057  -4.126   0.030  0.00  0.00    -0.380 N 
ATOM     29  C   UNL     1       0.067  -4.408   1.470  0.00  0.00    +0.144 C 
ATOM     30  C   UNL     1       0.052  -3.060   2.156  0.00  0.00    -0.043 C 
ATOM     31  C   UNL     1       0.036  -2.137   1.168  0.00  0.00    -0.001 A 
ATOM     32  C   UNL     1       0.022  -0.669   1.180  0.00  0.00    +0.013 A 
ATOM     33  H   UNL     1       0.062  -4.790  -0.677  0.00  0.00    +0.160 HD
ENDBRANCH  22  30
ENDBRANCH  21  22
ENDBRANCH  18  21
ENDBRANCH   1  18
TORSDOF 6
