REMARK  Name = ZINC35990736
REMARK  9 active torsions:
REMARK  status: ('A' for Active; 'I' for Inactive)
REMARK    1  A    between atoms: C_1  and  C_2
REMARK    2  A    between atoms: C_2  and  O_3
REMARK    3  A    between atoms: O_3  and  C_4
REMARK    4  A    between atoms: C_4  and  C_6
REMARK    5  A    between atoms: C_7  and  C_23
REMARK    6  A    between atoms: N_8  and  C_22
REMARK    7  A    between atoms: C_12  and  C_14
REMARK    8  A    between atoms: C_16  and  C_21
REMARK    9  A    between atoms: C_19  and  C_20
REMARK                            x       y       z     vdW  Elec       q    Type
REMARK                         _______ _______ _______ _____ _____    ______ ____
ROOT
ATOM      1  C   UNL     1       1.393  -2.436   2.070  0.00  0.00    +0.079 C 
ATOM      2  C   UNL     1       1.774  -3.720   2.246  0.00  0.00    +0.041 C 
ATOM      3  N   UNL     1       2.666  -4.062   3.221  0.00  0.00    -0.261 N 
ATOM      4  C   UNL     1       3.223  -3.180   4.062  0.00  0.00    +0.307 C 
ATOM      5  O   UNL     1       4.008  -3.580   4.899  0.00  0.00    -0.252 OA
ATOM      6  N   UNL     1       2.941  -1.863   4.009  0.00  0.00    -0.288 N 
ATOM      7  C   UNL     1       1.993  -1.390   2.986  0.00  0.00    +0.144 C 
ATOM      8  C   UNL     1       3.035  -5.473   3.357  0.00  0.00    +0.139 C 
ATOM      9  H   UNL     1       3.355  -1.242   4.628  0.00  0.00    +0.151 HD
ENDROOT
BRANCH   7  10
ATOM     10  C   UNL     1       0.862  -0.690   3.696  0.00  0.00    -0.019 A 
ATOM     11  C   UNL     1       0.426  -1.152   4.924  0.00  0.00    +0.009 A 
ATOM     12  C   UNL     1      -0.611  -0.510   5.575  0.00  0.00    -0.050 A 
ATOM     13  C   UNL     1      -1.211   0.593   4.998  0.00  0.00    +0.003 A 
ATOM     14  C   UNL     1      -0.775   1.055   3.771  0.00  0.00    +0.004 A 
ATOM     15  C   UNL     1       0.265   0.416   3.122  0.00  0.00    -0.045 A 
ATOM     16  C   UNL     1       0.745   0.923   1.786  0.00  0.00    +0.044 C 
ATOM     17  C   UNL     1      -1.086  -1.014   6.913  0.00  0.00    +0.044 C 
ENDBRANCH   7  10
BRANCH   1  18
ATOM     18  C   UNL     1       0.469  -2.080   1.059  0.00  0.00    +0.339 C 
ATOM     19  O   UNL     1      -0.702  -1.902   1.340  0.00  0.00    -0.245 OA
BRANCH  18  20
ATOM     20  O   UNL     1       0.885  -1.938  -0.216  0.00  0.00    -0.462 OA
BRANCH  20  22
ATOM     21  C   UNL     1       0.599  -1.275  -2.523  0.00  0.00    +0.048 C 
ATOM     22  C   UNL     1      -0.080  -1.484  -1.167  0.00  0.00    +0.229 C 
ENDBRANCH  20  22
ENDBRANCH  18  20
ENDBRANCH   1  18
BRANCH   2  23
ATOM     23  C   UNL     1       1.205  -4.792   1.353  0.00  0.00    +0.160 C 
ATOM     24 CL   UNL     1      -0.191  -5.582   2.175  0.00  0.00    -0.119 Cl
ENDBRANCH   2  23
TORSDOF 5
