REMARK  Name = ZINC64982838
REMARK  11 active torsions:
REMARK  status: ('A' for Active; 'I' for Inactive)
REMARK    1  A    between atoms: C_1  and  C_2
REMARK    2  A    between atoms: C_2  and  C_4
REMARK    3  A    between atoms: C_2  and  O_17
REMARK    4  A    between atoms: N_6  and  C_7
REMARK    5  A    between atoms: C_10  and  S_13
REMARK    6  A    between atoms: S_13  and  N_16
REMARK    7  A    between atoms: O_17  and  C_18
REMARK    8  A    between atoms: C_23  and  C_24
REMARK    9  A    between atoms: C_24  and  C_25
REMARK   10  A    between atoms: C_24  and  C_26
REMARK   11  A    between atoms: C_24  and  C_27
REMARK                            x       y       z     vdW  Elec       q    Type
REMARK                         _______ _______ _______ _____ _____    ______ ____
ROOT
ATOM      1  C   UNL     1       1.023  -0.440   1.033  0.00  0.00    +0.258 C 
ATOM      2  O   UNL     1       2.194  -0.684   0.832  0.00  0.00    -0.271 OA
ATOM      3  N   UNL     1       0.552  -0.392   2.295  0.00  0.00    -0.282 N 
ATOM      4  H   UNL     1      -0.398  -0.279   2.454  0.00  0.00    +0.155 HD
ENDROOT
BRANCH   3   5
ATOM      5  C   UNL     1       1.433  -0.505   3.376  0.00  0.00    +0.034 A 
ATOM      6  C   UNL     1       1.030  -1.147   4.539  0.00  0.00    +0.025 A 
ATOM      7  C   UNL     1       1.902  -1.256   5.604  0.00  0.00    +0.030 A 
ATOM      8  C   UNL     1       3.177  -0.728   5.513  0.00  0.00    +0.105 A 
ATOM      9  C   UNL     1       3.582  -0.088   4.356  0.00  0.00    +0.030 A 
ATOM     10  C   UNL     1       2.716   0.020   3.285  0.00  0.00    +0.025 A 
BRANCH   8  11
ATOM     11  S   UNL     1       4.287  -0.870   6.873  0.00  0.00    +0.056 S 
ATOM     12  O   UNL     1       5.231   0.183   6.739  0.00  0.00    -0.153 OA
ATOM     13  O   UNL     1       3.486  -1.031   8.036  0.00  0.00    -0.153 OA
BRANCH  11  14
ATOM     14  N   UNL     1       5.125  -2.285   6.676  0.00  0.00    -0.204 NA
ATOM     15  H   UNL     1       4.947  -2.850   5.909  0.00  0.00    +0.144 HD
ATOM     16  H   UNL     1       5.792  -2.548   7.329  0.00  0.00    +0.144 HD
ENDBRANCH  11  14
ENDBRANCH   8  11
ENDBRANCH   3   5
BRANCH   1  18
ATOM     17  C   UNL     1      -0.406   1.254  -0.078  0.00  0.00    +0.062 C 
ATOM     18  C   UNL     1       0.095  -0.191  -0.128  0.00  0.00    +0.256 C 
BRANCH  18  19
ATOM     19  O   UNL     1       0.795  -0.410  -1.353  0.00  0.00    -0.480 OA
BRANCH  19  20
ATOM     20  C   UNL     1       0.049  -0.737  -2.441  0.00  0.00    +0.125 A 
ATOM     21  C   UNL     1      -1.336  -0.731  -2.360  0.00  0.00    +0.046 A 
ATOM     22  C   UNL     1      -2.093  -1.063  -3.467  0.00  0.00    +0.004 A 
ATOM     23  C   UNL     1      -1.471  -1.400  -4.655  0.00  0.00    +0.001 A 
ATOM     24  C   UNL     1      -0.091  -1.407  -4.738  0.00  0.00    +0.008 A 
ATOM     25  C   UNL     1       0.670  -1.070  -3.636  0.00  0.00    -0.000 A 
BRANCH  25  26
ATOM     26  C   UNL     1       2.174  -1.071  -3.729  0.00  0.00    -0.009 C 
ATOM     27  C   UNL     1       2.597  -1.472  -5.144  0.00  0.00    +0.015 C 
ATOM     28  C   UNL     1       2.706   0.328  -3.414  0.00  0.00    +0.015 C 
ATOM     29  C   UNL     1       2.747  -2.072  -2.723  0.00  0.00    +0.015 C 
ENDBRANCH  25  26
ENDBRANCH  19  20
ENDBRANCH  18  19
ENDBRANCH   1  18
TORSDOF 7
