REMARK  Name = ZINC12347872
REMARK  4 active torsions:
REMARK  status: ('A' for Active; 'I' for Inactive)
REMARK    1  A    between atoms: C_1  and  C_2
REMARK    2  A    between atoms: C_2  and  C_26
REMARK    3  A    between atoms: C_6  and  C_16
REMARK    4  A    between atoms: C_13  and  O_14
REMARK                            x       y       z     vdW  Elec       q    Type
REMARK                         _______ _______ _______ _____ _____    ______ ____
ROOT
ATOM      1  C   UNL     1      -0.746   3.121  -1.248  0.00  0.00    +0.011 C 
ATOM      2  C   UNL     1      -0.750   1.591  -1.233  0.00  0.00    -0.023 C 
ATOM      3  C   UNL     1      -0.013   1.086   0.008  0.00  0.00    +0.058 C 
ATOM      4  C   UNL     1      -0.718   1.572   1.254  0.00  0.00    +0.017 C 
ATOM      5  C   UNL     1      -2.052   1.773   1.261  0.00  0.00    +0.024 C 
ATOM      6  C   UNL     1      -2.794   2.256   2.489  0.00  0.00    +0.092 C 
ATOM      7  C   UNL     1      -1.912   2.134   3.694  0.00  0.00    +0.067 A 
ATOM      8  C   UNL     1      -0.563   1.917   3.597  0.00  0.00    +0.126 A 
ATOM      9  N   UNL     1      -0.064   1.866   4.846  0.00  0.00    -0.260 N 
ATOM     10  H   UNL     1       0.895   1.722   5.093  0.00  0.00    +0.190 HD
ATOM     11  N   UNL     1      -1.130   2.050   5.741  0.00  0.00    -0.134 NA
ATOM     12  C   UNL     1      -2.235   2.211   5.046  0.00  0.00    +0.237 A 
ATOM     13  N   UNL     1       0.062   1.789   2.362  0.00  0.00    -0.303 N 
ATOM     14  C   UNL     1      -2.823   1.542   0.107  0.00  0.00    +0.162 C 
ATOM     15  O   UNL     1      -4.024   1.720   0.150  0.00  0.00    -0.292 OA
ATOM     16  C   UNL     1      -2.194   1.079  -1.177  0.00  0.00    +0.086 C 
ATOM     17  C   UNL     1      -0.063   1.061  -2.493  0.00  0.00    +0.011 C 
ATOM     18  H   UNL     1       1.027   1.851   2.286  0.00  0.00    +0.153 HD
ENDROOT
BRANCH   6  19
ATOM     19  C   UNL     1      -3.190   3.697   2.301  0.00  0.00    -0.035 A 
ATOM     20  C   UNL     1      -2.219   4.661   2.103  0.00  0.00    +0.005 A 
ATOM     21  C   UNL     1      -2.582   5.983   1.925  0.00  0.00    +0.015 A 
ATOM     22  C   UNL     1      -3.917   6.343   1.957  0.00  0.00    +0.018 A 
ATOM     23  C   UNL     1      -4.888   5.380   2.160  0.00  0.00    +0.015 A 
ATOM     24  C   UNL     1      -4.525   4.057   2.332  0.00  0.00    +0.005 A 
ATOM     25 BR   UNL     1      -4.414   8.152   1.722  0.00  0.00    -0.050 Br
ENDBRANCH   6  19
BRANCH  12  26
ATOM     26  O   UNL     1      -3.477   2.417   5.559  0.00  0.00    -0.491 OA
ATOM     27  H   UNL     1      -3.428   2.428   6.557  0.00  0.00    +0.294 HD
ENDBRANCH  12  26
TORSDOF 2
