REMARK  Name = ZINC40688805
REMARK  11 active torsions:
REMARK  status: ('A' for Active; 'I' for Inactive)
REMARK    1  A    between atoms: C_1  and  C_2
REMARK    2  A    between atoms: C_2  and  C_3
REMARK    3  A    between atoms: C_3  and  C_5
REMARK    4  A    between atoms: C_3  and  N_6
REMARK    5  A    between atoms: C_8  and  N_33
REMARK    6  A    between atoms: C_9  and  N_13
REMARK    7  A    between atoms: N_13  and  C_14
REMARK    8  A    between atoms: C_17  and  C_21
REMARK    9  A    between atoms: C_19  and  C_20
REMARK   10  A    between atoms: C_21  and  C_23
REMARK   11  A    between atoms: C_21  and  C_25
REMARK                            x       y       z     vdW  Elec       q    Type
REMARK                         _______ _______ _______ _____ _____    ______ ____
ROOT
ATOM      1  C   UNL     1       6.739   1.138   4.801  0.00  0.00    +0.037 A 
ATOM      2  C   UNL     1       6.092   0.873   6.001  0.00  0.00    +0.043 A 
ATOM      3  C   UNL     1       6.757   1.057   7.199  0.00  0.00    +0.047 A 
ATOM      4  C   UNL     1       8.066   1.506   7.202  0.00  0.00    -0.008 A 
ATOM      5  C   UNL     1       8.713   1.771   6.009  0.00  0.00    +0.011 A 
ATOM      6  C   UNL     1       8.055   1.583   4.809  0.00  0.00    -0.029 A 
ATOM      7  C   UNL     1       8.763   1.866   3.509  0.00  0.00    +0.045 C 
ATOM      8 CL   UNL     1       5.949   0.725   8.699  0.00  0.00    -0.083 Cl
ENDROOT
BRANCH   1   9
ATOM      9  N   UNL     1       6.070   0.953   3.589  0.00  0.00    -0.298 N 
ATOM     10  H   UNL     1       6.354   1.438   2.799  0.00  0.00    +0.154 HD
BRANCH   9  14
ATOM     11  N   UNL     1       2.396  -1.074   1.182  0.00  0.00    -0.325 N 
ATOM     12  C   UNL     1       3.177  -0.931   2.323  0.00  0.00    +0.145 A 
ATOM     13  C   UNL     1       4.244  -0.031   2.344  0.00  0.00    +0.105 A 
ATOM     14  C   UNL     1       4.996   0.072   3.515  0.00  0.00    +0.149 A 
ATOM     15  N   UNL     1       4.670  -0.685   4.560  0.00  0.00    -0.219 NA
ATOM     16  C   UNL     1       3.654  -1.522   4.499  0.00  0.00    +0.225 A 
ATOM     17  N   UNL     1       2.916  -1.647   3.414  0.00  0.00    -0.219 NA
ATOM     18  H   UNL     1       2.592  -0.549   0.391  0.00  0.00    +0.148 HD
BRANCH  13  19
ATOM     19  N   UNL     1       4.553   0.747   1.217  0.00  0.00    -0.353 N 
ATOM     20  H   UNL     1       4.022   0.664   0.409  0.00  0.00    +0.143 HD
ATOM     21  H   UNL     1       5.297   1.369   1.246  0.00  0.00    +0.143 HD
ENDBRANCH  13  19
BRANCH  11  22
ATOM     22  C   UNL     1       1.275  -2.017   1.175  0.00  0.00    +0.068 C 
ATOM     23  C   UNL     1       1.786  -3.415   0.821  0.00  0.00    +0.028 C 
BRANCH  22  25
ATOM     24  C   UNL     1      -0.361  -0.232   0.558  0.00  0.00    +0.005 C 
ATOM     25  C   UNL     1       0.242  -1.574   0.137  0.00  0.00    +0.018 C 
ENDBRANCH  22  25
ENDBRANCH  11  22
ENDBRANCH   9  14
ENDBRANCH   1   9
BRANCH   4  26
ATOM     26  C   UNL     1       8.789   1.706   8.510  0.00  0.00    +0.153 C 
BRANCH  26  27
ATOM     27  C   UNL     1       9.057   3.175   8.715  0.00  0.00    -0.026 A 
ATOM     28  C   UNL     1       9.940   3.839   7.884  0.00  0.00    +0.006 A 
ATOM     29  C   UNL     1      10.186   5.186   8.072  0.00  0.00    +0.020 A 
ATOM     30  C   UNL     1       9.548   5.870   9.092  0.00  0.00    +0.041 A 
ATOM     31  C   UNL     1       8.665   5.205   9.923  0.00  0.00    +0.020 A 
ATOM     32  C   UNL     1       8.415   3.859   9.731  0.00  0.00    +0.006 A 
ATOM     33 CL   UNL     1       9.857   7.562   9.329  0.00  0.00    -0.084 Cl
ENDBRANCH  26  27
BRANCH  26  34
ATOM     34  C   UNL     1      10.065   0.974   8.482  0.00  0.00    +0.075 C 
ATOM     35  N   UNL     1      11.050   0.409   8.461  0.00  0.00    -0.196 NA
ENDBRANCH  26  34
ENDBRANCH   4  26
TORSDOF 8
