REMARK  Name = ZINC42015201
REMARK  3 active torsions:
REMARK  status: ('A' for Active; 'I' for Inactive)
REMARK    1  A    between atoms: C_4  and  N_20
REMARK    2  A    between atoms: C_6  and  C_7
REMARK    3  A    between atoms: N_11  and  C_12
REMARK                            x       y       z     vdW  Elec       q    Type
REMARK                         _______ _______ _______ _____ _____    ______ ____
ROOT
ATOM      1  C   UNL     1      -1.284  -0.747   0.133  0.00  0.00    +0.187 A 
ATOM      2  N   UNL     1      -1.415  -2.051   0.264  0.00  0.00    -0.108 NA
ATOM      3  N   UNL     1      -2.634  -2.404   0.066  0.00  0.00    -0.022 NA
ATOM      4  N   UNL     1      -3.365  -1.377  -0.202  0.00  0.00    -0.039 NA
ATOM      5  N   UNL     1      -2.521  -0.253  -0.165  0.00  0.00    -0.190 N 
ENDROOT
BRANCH   5   6
ATOM      6  C   UNL     1      -2.872   1.086  -0.388  0.00  0.00    +0.107 A 
ATOM      7  C   UNL     1      -2.233   1.817  -1.380  0.00  0.00    +0.069 A 
ATOM      8  C   UNL     1      -2.583   3.137  -1.598  0.00  0.00    +0.126 A 
ATOM      9  C   UNL     1      -3.570   3.730  -0.828  0.00  0.00    +0.041 A 
ATOM     10  C   UNL     1      -4.208   3.004   0.161  0.00  0.00    +0.043 A 
ATOM     11  C   UNL     1      -3.867   1.682   0.380  0.00  0.00    +0.149 A 
ATOM     12  F   UNL     1      -4.495   0.972   1.342  0.00  0.00    -0.203 F 
ATOM     13  F   UNL     1      -1.960   3.849  -2.563  0.00  0.00    -0.205 F 
ENDBRANCH   5   6
BRANCH   1  19
ATOM     14  C   UNL     1      -0.095   1.406   0.523  0.00  0.00    +0.013 A 
ATOM     15  C   UNL     1       1.070   2.133   0.664  0.00  0.00    +0.022 A 
ATOM     16  C   UNL     1       2.298   1.503   0.571  0.00  0.00    +0.062 A 
ATOM     17  C   UNL     1       2.366   0.134   0.334  0.00  0.00    +0.044 A 
ATOM     18  C   UNL     1       1.201  -0.603   0.190  0.00  0.00    +0.035 A 
ATOM     19  C   UNL     1      -0.037   0.033   0.285  0.00  0.00    +0.023 A 
ATOM     20 CL   UNL     1       3.759   2.424   0.750  0.00  0.00    -0.082 Cl
BRANCH  17  21
ATOM     21  N   UNL     1       3.609  -0.498   0.239  0.00  0.00    -0.357 N 
ATOM     22  H   UNL     1       4.425   0.018   0.339  0.00  0.00    +0.142 HD
ATOM     23  H   UNL     1       3.656  -1.453   0.073  0.00  0.00    +0.142 HD
ENDBRANCH  17  21
ENDBRANCH   1  19
TORSDOF 3
