REMARK  Name = ZINC19324458
REMARK  2 active torsions:
REMARK  status: ('A' for Active; 'I' for Inactive)
REMARK    1  A    between atoms: C_8  and  N_9
REMARK    2  A    between atoms: N_13  and  C_16
REMARK                            x       y       z     vdW  Elec       q    Type
REMARK                         _______ _______ _______ _____ _____    ______ ____
ROOT
ATOM      1  N   UNL     1       3.573  -3.243  -0.050  0.00  0.00    -0.165 NA
ATOM      2  C   UNL     1       4.892  -3.220  -0.063  0.00  0.00    +0.187 C 
ATOM      3  N   UNL     1       5.605  -2.037  -0.058  0.00  0.00    -0.304 N 
ATOM      4  C   UNL     1       6.791  -1.966  -0.926  0.00  0.00    +0.193 C 
ATOM      5  N   UNL     1       7.613  -3.166  -0.703  0.00  0.00    -0.268 NA
ATOM      6  C   UNL     1       6.834  -4.389  -0.951  0.00  0.00    +0.193 C 
ATOM      7  N   UNL     1       5.646  -4.377  -0.077  0.00  0.00    -0.304 N 
ATOM      8  H   UNL     1       5.403  -5.146   0.463  0.00  0.00    +0.150 HD
ATOM      9  H   UNL     1       5.336  -1.286   0.494  0.00  0.00    +0.150 HD
ENDROOT
BRANCH   1  17
ATOM     10  C   UNL     1      -0.017   1.373   0.010  0.00  0.00    +0.002 A 
ATOM     11  C   UNL     1       1.170   2.091   0.002  0.00  0.00    +0.004 A 
ATOM     12  C   UNL     1       2.385   1.435  -0.013  0.00  0.00    +0.048 A 
ATOM     13  C   UNL     1       2.422   0.051  -0.021  0.00  0.00    +0.157 A 
ATOM     14  C   UNL     1       1.224  -0.680  -0.013  0.00  0.00    +0.111 A 
ATOM     15  C   UNL     1       0.002  -0.004   0.002  0.00  0.00    +0.031 A 
ATOM     16  N   UNL     1       1.567  -1.996  -0.024  0.00  0.00    -0.191 NA
ATOM     17  C   UNL     1       2.879  -2.088  -0.037  0.00  0.00    +0.327 A 
ATOM     18  O   UNL     1       3.426  -0.857  -0.036  0.00  0.00    -0.421 OA
ENDBRANCH   1  17
BRANCH   5  19
ATOM     19  C   UNL     1       8.825  -3.136  -1.532  0.00  0.00    +0.060 C 
ATOM     20  C   UNL     1       8.414  -3.133  -3.018  0.00  0.00    +0.019 C 
ATOM     21  C   UNL     1       9.562  -2.599  -3.831  0.00  0.00    +0.002 C 
ATOM     22  C   UNL     1      10.467  -3.718  -4.380  0.00  0.00    +0.000 C 
ATOM     23  C   UNL     1      10.731  -4.832  -3.349  0.00  0.00    +0.000 C 
ATOM     24  C   UNL     1      10.989  -4.291  -1.969  0.00  0.00    +0.002 C 
ATOM     25  C   UNL     1       9.658  -4.279  -1.190  0.00  0.00    +0.019 C 
ENDBRANCH   5  19
TORSDOF 2
