REMARK  Name = ZINC11441366
REMARK  13 active torsions:
REMARK  status: ('A' for Active; 'I' for Inactive)
REMARK    1  A    between atoms: C_1  and  C_2
REMARK    2  A    between atoms: C_2  and  N_3
REMARK    3  A    between atoms: N_3  and  C_4
REMARK    4  A    between atoms: C_4  and  C_5
REMARK    5  A    between atoms: C_6  and  C_8
REMARK    6  A    between atoms: C_11  and  N_14
REMARK    7  A    between atoms: C_15  and  C_17
REMARK    8  A    between atoms: C_17  and  O_18
REMARK    9  A    between atoms: O_18  and  C_19
REMARK   10  A    between atoms: C_19  and  C_21
REMARK   11  A    between atoms: C_21  and  C_22
REMARK   12  A    between atoms: C_22  and  N_23
REMARK   13  A    between atoms: N_26  and  C_27
REMARK                            x       y       z     vdW  Elec       q    Type
REMARK                         _______ _______ _______ _____ _____    ______ ____
ROOT
ATOM      1  C   UNL     1       4.678   0.194  -1.660  0.00  0.00    +0.309 C 
ATOM      2  O   UNL     1       4.779  -0.996  -1.478  0.00  0.00    -0.251 OA
ENDROOT
BRANCH   1   3
ATOM      3  O   UNL     1       3.485   0.794  -1.526  0.00  0.00    -0.455 OA
BRANCH   3   4
ATOM      4  C   UNL     1       2.360  -0.049  -1.161  0.00  0.00    +0.328 C 
BRANCH   4   6
ATOM      5  N   UNL     1      -0.061   0.221  -0.728  0.00  0.00    -0.283 N 
ATOM      6  C   UNL     1       1.114   0.793  -1.057  0.00  0.00    +0.255 C 
ATOM      7  O   UNL     1       1.169   1.986  -1.271  0.00  0.00    -0.272 OA
ATOM      8  H   UNL     1      -0.117  -0.741  -0.618  0.00  0.00    +0.155 HD
BRANCH   5  12
ATOM      9  C   UNL     1      -3.451   2.582  -0.197  0.00  0.00    +0.037 A 
ATOM     10  C   UNL     1      -3.251   1.454   0.604  0.00  0.00    +0.015 A 
ATOM     11  C   UNL     1      -2.129   0.676   0.426  0.00  0.00    +0.024 A 
ATOM     12  C   UNL     1      -1.196   1.011  -0.550  0.00  0.00    +0.034 A 
ATOM     13  C   UNL     1      -1.389   2.136  -1.345  0.00  0.00    +0.024 A 
ATOM     14  C   UNL     1      -2.511   2.916  -1.175  0.00  0.00    +0.015 A 
BRANCH   9  16
ATOM     15  N   UNL     1      -5.840   2.840   0.262  0.00  0.00    -0.298 N 
ATOM     16  C   UNL     1      -4.653   3.418  -0.009  0.00  0.00    +0.247 C 
ATOM     17  O   UNL     1      -4.572   4.628  -0.098  0.00  0.00    -0.270 OA
BRANCH  15  19
ATOM     18  C   UNL     1      -6.024   0.917   1.762  0.00  0.00    +0.024 C 
ATOM     19  C   UNL     1      -5.951   1.380   0.305  0.00  0.00    +0.104 C 
ENDBRANCH  15  19
BRANCH  15  20
ATOM     20  C   UNL     1      -7.019   3.672   0.513  0.00  0.00    +0.104 C 
ATOM     21  C   UNL     1      -7.742   3.944  -0.808  0.00  0.00    +0.024 C 
ENDBRANCH  15  20
ENDBRANCH   9  16
ENDBRANCH   5  12
ENDBRANCH   4   6
ENDBRANCH   3   4
ENDBRANCH   1   3
BRANCH   1  22
ATOM     22  C   UNL     1       5.891   1.004  -2.038  0.00  0.00    +0.139 C 
BRANCH  22  23
ATOM     23  C   UNL     1       7.111   0.086  -2.123  0.00  0.00    +0.117 C 
BRANCH  23  24
ATOM     24  N   UNL     1       8.291   0.873  -2.490  0.00  0.00    -0.299 N 
ATOM     25  C   UNL     1       9.489   0.271  -2.625  0.00  0.00    +0.300 C 
ATOM     26  O   UNL     1       9.591  -0.927  -2.441  0.00  0.00    -0.253 OA
ATOM     27  N   UNL     1      10.573   0.995  -2.962  0.00  0.00    -0.294 N 
ATOM     28  H   UNL     1       8.209   1.829  -2.637  0.00  0.00    +0.150 HD
ATOM     29  H   UNL     1      10.492   1.951  -3.109  0.00  0.00    +0.151 HD
BRANCH  27  30
ATOM     30  C   UNL     1      11.876   0.340  -3.108  0.00  0.00    +0.037 C 
ATOM     31  C   UNL     1      12.268  -0.317  -1.783  0.00  0.00    +0.029 C 
ATOM     32  C   UNL     1      13.628  -1.001  -1.936  0.00  0.00    -0.008 C 
ATOM     33  C   UNL     1      14.681   0.039  -2.321  0.00  0.00    +0.007 C 
ATOM     34  C   UNL     1      14.289   0.696  -3.646  0.00  0.00    -0.008 C 
ATOM     35  C   UNL     1      12.930   1.380  -3.494  0.00  0.00    +0.029 C 
ATOM     36  C   UNL     1      14.203  -0.372  -4.739  0.00  0.00    +0.007 C 
ATOM     37  C   UNL     1      13.149  -1.412  -4.354  0.00  0.00    -0.008 C 
ATOM     38  C   UNL     1      13.542  -2.068  -3.028  0.00  0.00    +0.007 C 
ATOM     39  C   UNL     1      11.790  -0.728  -4.201  0.00  0.00    +0.029 C 
ENDBRANCH  27  30
ENDBRANCH  23  24
ENDBRANCH  22  23
ENDBRANCH   1  22
TORSDOF 11
