REMARK  Name = ZINC39699565
REMARK  9 active torsions:
REMARK  status: ('A' for Active; 'I' for Inactive)
REMARK    1  A    between atoms: C_1  and  C_2
REMARK    2  A    between atoms: C_2  and  C_14
REMARK    3  A    between atoms: N_3  and  N_4
REMARK    4  A    between atoms: N_4  and  C_5
REMARK    5  A    between atoms: C_17  and  S_20
REMARK    6  A    between atoms: S_20  and  N_23
REMARK    7  A    between atoms: N_23  and  C_24
REMARK    8  A    between atoms: C_24  and  C_25
REMARK    9  A    between atoms: C_28  and  C_31
REMARK                            x       y       z     vdW  Elec       q    Type
REMARK                         _______ _______ _______ _____ _____    ______ ____
ROOT
ATOM      1  C   UNL     1      -0.000  -0.735  -1.279  0.00  0.00    -0.002 A 
ATOM      2  C   UNL     1      -0.015  -0.033  -2.487  0.00  0.00    +0.011 A 
ATOM      3  C   UNL     1      -0.017  -0.723  -3.682  0.00  0.00    +0.029 A 
ATOM      4  C   UNL     1      -0.003  -2.106  -3.685  0.00  0.00    +0.105 A 
ATOM      5  C   UNL     1       0.012  -2.808  -2.493  0.00  0.00    +0.029 A 
ATOM      6  C   UNL     1       0.019  -2.131  -1.291  0.00  0.00    +0.011 A 
ENDROOT
BRANCH   1   8
ATOM      7  C   UNL     1      -0.018   1.503   0.010  0.00  0.00    +0.068 C 
ATOM      8  C   UNL     1       0.002  -0.004   0.002  0.00  0.00    +0.063 C 
ATOM      9  N   UNL     1       0.022  -0.659   1.122  0.00  0.00    -0.188 NA
BRANCH   9  10
ATOM     10  N   UNL     1       0.024   0.035   2.339  0.00  0.00    -0.229 N 
ATOM     11  H   UNL     1       0.011   1.005   2.344  0.00  0.00    +0.172 HD
BRANCH  10  12
ATOM     12  C   UNL     1       0.046  -0.704   3.604  0.00  0.00    +0.283 C 
ATOM     13  N   UNL     1      -1.324  -0.914   4.089  0.00  0.00    -0.347 N 
ATOM     14  C   UNL     1      -1.422  -0.329   5.247  0.00  0.00    +0.061 A 
ATOM     15  C   UNL     1      -2.526  -0.193   6.208  0.00  0.00    +0.027 A 
ATOM     16  C   UNL     1      -2.329   0.486   7.356  0.00  0.00    +0.002 A 
ATOM     17  C   UNL     1      -1.097   1.082   7.682  0.00  0.00    +0.002 A 
ATOM     18  C   UNL     1      -0.022   1.019   6.872  0.00  0.00    +0.027 A 
ATOM     19  C   UNL     1      -0.119   0.302   5.593  0.00  0.00    +0.061 A 
ATOM     20  N   UNL     1       0.735   0.082   4.635  0.00  0.00    -0.347 N 
ATOM     21  H   UNL     1      -2.027  -1.399   3.630  0.00  0.00    +0.163 HD
ATOM     22  H   UNL     1       1.656   0.382   4.607  0.00  0.00    +0.163 HD
ENDBRANCH  10  12
ENDBRANCH   9  10
ENDBRANCH   1   8
BRANCH   4  23
ATOM     23  S   UNL     1      -0.006  -2.979  -5.216  0.00  0.00    +0.059 S 
ATOM     24  O   UNL     1      -0.542  -4.267  -4.948  0.00  0.00    -0.153 OA
ATOM     25  O   UNL     1      -0.572  -2.104  -6.181  0.00  0.00    -0.153 OA
BRANCH  23  26
ATOM     26  N   UNL     1       1.575  -3.206  -5.653  0.00  0.00    -0.186 NA
ATOM     27  H   UNL     1       1.924  -2.780  -6.452  0.00  0.00    +0.148 HD
BRANCH  26  28
ATOM     28  C   UNL     1       2.448  -4.050  -4.833  0.00  0.00    +0.141 C 
BRANCH  28  29
ATOM     29  C   UNL     1       3.691  -4.394  -5.612  0.00  0.00    -0.032 A 
ATOM     30  C   UNL     1       3.715  -5.528  -6.405  0.00  0.00    +0.006 A 
ATOM     31  C   UNL     1       4.849  -5.849  -7.120  0.00  0.00    +0.015 A 
ATOM     32  C   UNL     1       5.976  -5.026  -7.044  0.00  0.00    +0.063 A 
ATOM     33  C   UNL     1       5.944  -3.882  -6.242  0.00  0.00    +0.015 A 
ATOM     34  C   UNL     1       4.801  -3.571  -5.536  0.00  0.00    +0.006 A 
BRANCH  32  35
ATOM     35  C   UNL     1       7.193  -5.363  -7.806  0.00  0.00    +0.387 C 
ATOM     36  O   UNL     1       7.218  -6.365  -8.507  0.00  0.00    -0.241 OA
ATOM     37  O   UNL     1       8.178  -4.641  -7.737  0.00  0.00    -0.241 OA
ENDBRANCH  32  35
ENDBRANCH  28  29
ENDBRANCH  26  28
ENDBRANCH  23  26
ENDBRANCH   4  23
TORSDOF 8
