REMARK  Name = ZINC04181659
REMARK  5 active torsions:
REMARK  status: ('A' for Active; 'I' for Inactive)
REMARK    1  A    between atoms: C_1  and  C_2
REMARK    2  A    between atoms: C_15  and  C_18
REMARK    3  A    between atoms: C_21  and  N_24
REMARK    4  A    between atoms: C_25  and  C_26
REMARK    5  A    between atoms: C_29  and  N_32
REMARK                            x       y       z     vdW  Elec       q    Type
REMARK                         _______ _______ _______ _____ _____    ______ ____
ROOT
ATOM      1  C   UNL     1       1.470  -5.167   1.658  0.00  0.00    -0.027 A 
ATOM      2  C   UNL     1       1.826  -6.321   2.332  0.00  0.00    +0.007 A 
ATOM      3  C   UNL     1       3.125  -6.500   2.761  0.00  0.00    +0.028 A 
ATOM      4  C   UNL     1       4.081  -5.512   2.514  0.00  0.00    +0.064 A 
ATOM      5  C   UNL     1       3.714  -4.350   1.833  0.00  0.00    +0.028 A 
ATOM      6  C   UNL     1       2.413  -4.186   1.405  0.00  0.00    +0.007 A 
ENDROOT
BRANCH   1  19
ATOM      7  C   UNL     1      -0.221   1.583   0.660  0.00  0.00    +0.044 C 
ATOM      8  C   UNL     1      -0.150   0.086   0.502  0.00  0.00    -0.050 A 
ATOM      9  C   UNL     1      -0.110  -0.476  -0.761  0.00  0.00    +0.005 A 
ATOM     10  C   UNL     1      -0.052  -1.846  -0.909  0.00  0.00    +0.023 A 
ATOM     11  C   UNL     1      -0.031  -2.672   0.208  0.00  0.00    +0.031 A 
ATOM     12  C   UNL     1      -0.059  -2.097   1.483  0.00  0.00    -0.019 A 
ATOM     13  C   UNL     1      -0.120  -0.727   1.620  0.00  0.00    +0.009 A 
ATOM     14  C   UNL     1       0.004  -3.009   2.645  0.00  0.00    +0.049 C 
ATOM     15  C   UNL     1      -0.582  -2.647   3.961  0.00  0.00    -0.023 C 
ATOM     16  C   UNL     1      -0.996  -3.756   4.561  0.00  0.00    -0.030 C 
ATOM     17  C   UNL     1      -0.743  -4.965   3.658  0.00  0.00    +0.033 C 
ATOM     18  C   UNL     1      -0.774  -4.308   2.276  0.00  0.00    +0.029 C 
ATOM     19  C   UNL     1       0.049  -4.979   1.191  0.00  0.00    +0.105 C 
ATOM     20  N   UNL     1       0.006  -4.061   0.032  0.00  0.00    -0.336 N 
ATOM     21  H   UNL     1       0.003  -4.428  -0.866  0.00  0.00    +0.147 HD
ENDBRANCH   1  19
BRANCH   4  22
ATOM     22  N   UNL     1       5.371  -5.683   2.938  0.00  0.00    -0.255 NA
ATOM     23  C   UNL     1       6.361  -5.404   2.139  0.00  0.00    +0.119 C 
BRANCH  23  24
ATOM     24  C   UNL     1       7.749  -5.587   2.595  0.00  0.00    -0.007 A 
ATOM     25  C   UNL     1       8.008  -6.066   3.882  0.00  0.00    +0.011 A 
ATOM     26  C   UNL     1       9.311  -6.235   4.302  0.00  0.00    +0.033 A 
ATOM     27  C   UNL     1      10.361  -5.932   3.453  0.00  0.00    +0.126 A 
ATOM     28  C   UNL     1      10.112  -5.457   2.177  0.00  0.00    +0.033 A 
ATOM     29  C   UNL     1       8.815  -5.288   1.741  0.00  0.00    +0.011 A 
BRANCH  27  30
ATOM     30  N   UNL     1      11.756  -6.116   3.911  0.00  0.00    +0.056 N 
ATOM     31  O   UNL     1      11.976  -6.531   5.025  0.00  0.00    -0.126 OA
ATOM     32  O   UNL     1      12.675  -5.852   3.172  0.00  0.00    -0.126 OA
ENDBRANCH  27  30
ENDBRANCH  23  24
ENDBRANCH   4  22
TORSDOF 4
