REMARK  Name = ZINC36584335
REMARK  9 active torsions:
REMARK  status: ('A' for Active; 'I' for Inactive)
REMARK    1  A    between atoms: C_1  and  O_2
REMARK    2  A    between atoms: O_2  and  C_3
REMARK    3  A    between atoms: C_3  and  C_5
REMARK    4  A    between atoms: C_5  and  C_7
REMARK    5  A    between atoms: C_5  and  N_11
REMARK    6  A    between atoms: C_7  and  C_8
REMARK    7  A    between atoms: C_8  and  S_9
REMARK    8  A    between atoms: S_9  and  C_10
REMARK    9  A    between atoms: C_23  and  C_25
REMARK                            x       y       z     vdW  Elec       q    Type
REMARK                         _______ _______ _______ _____ _____    ______ ____
ROOT
ATOM      1  N   UNL     1      -3.060  -2.539  -2.213  0.00  0.00    -0.286 N 
ATOM      2  C   UNL     1      -3.701  -2.916  -1.089  0.00  0.00    +0.304 C 
ATOM      3  O   UNL     1      -3.171  -2.762  -0.006  0.00  0.00    -0.253 OA
ATOM      4  N   UNL     1      -4.931  -3.464  -1.166  0.00  0.00    -0.273 N 
ATOM      5  C   UNL     1      -5.702  -3.756   0.051  0.00  0.00    +0.116 C 
ATOM      6  C   UNL     1      -5.908  -5.272   0.163  0.00  0.00    +0.074 C 
ATOM      7  C   UNL     1      -6.320  -5.807  -1.184  0.00  0.00    +0.040 A 
ATOM      8  C   UNL     1      -6.154  -5.156  -2.356  0.00  0.00    +0.062 A 
ATOM      9  N   UNL     1      -6.630  -5.931  -3.332  0.00  0.00    -0.348 N 
ATOM     10  C   UNL     1      -7.090  -7.040  -2.813  0.00  0.00    +0.171 A 
ATOM     11  N   UNL     1      -6.915  -6.998  -1.472  0.00  0.00    -0.349 N 
ATOM     12  H   UNL     1      -7.165  -7.686  -0.836  0.00  0.00    +0.166 HD
ATOM     13  C   UNL     1      -5.536  -3.779  -2.472  0.00  0.00    +0.159 C 
ATOM     14  H   UNL     1      -3.462  -2.706  -3.080  0.00  0.00    +0.151 HD
ATOM     15  H   UNL     1      -6.635  -5.708  -4.276  0.00  0.00    +0.167 HD
ENDROOT
BRANCH  13  16
ATOM     16  C   UNL     1      -6.598  -2.762  -2.804  0.00  0.00    +0.015 A 
ATOM     17  C   UNL     1      -7.925  -3.033  -2.525  0.00  0.00    +0.028 A 
ATOM     18  C   UNL     1      -8.900  -2.099  -2.829  0.00  0.00    +0.041 A 
ATOM     19  C   UNL     1      -8.548  -0.895  -3.411  0.00  0.00    +0.023 A 
ATOM     20  C   UNL     1      -7.222  -0.623  -3.690  0.00  0.00    +0.040 A 
ATOM     21  C   UNL     1      -6.245  -1.555  -3.381  0.00  0.00    +0.129 A 
ATOM     22  F   UNL     1      -4.948  -1.288  -3.649  0.00  0.00    -0.205 F 
ATOM     23 CL   UNL     1     -10.566  -2.440  -2.479  0.00  0.00    -0.084 Cl
ENDBRANCH  13  16
BRANCH   1  24
ATOM     24  C   UNL     1      -1.756  -1.879  -2.126  0.00  0.00    +0.184 C 
BRANCH  24  25
ATOM     25  C   UNL     1      -0.662  -2.913  -2.210  0.00  0.00    +0.327 C 
ATOM     26  O   UNL     1      -0.944  -4.081  -2.331  0.00  0.00    -0.249 OA
BRANCH  25  28
ATOM     27  C   UNL     1       1.608  -3.568  -2.238  0.00  0.00    +0.280 C 
ATOM     28  O   UNL     1       0.624  -2.535  -2.151  0.00  0.00    -0.467 OA
ENDBRANCH  25  28
ENDBRANCH  24  25
BRANCH  24  29
ATOM     29  C   UNL     1      -1.609  -0.885  -3.280  0.00  0.00    +0.044 C 
BRANCH  29  30
ATOM     30  C   UNL     1      -2.595   0.269  -3.088  0.00  0.00    +0.071 C 
BRANCH  30  31
ATOM     31  S   UNL     1      -2.541   1.357  -4.539  0.00  0.00    -0.164 S 
ATOM     32  C   UNL     1      -3.750   2.655  -4.158  0.00  0.00    +0.084 C 
ENDBRANCH  30  31
ENDBRANCH  29  30
ENDBRANCH  24  29
ENDBRANCH   1  24
TORSDOF 7
