REMARK  Name = ZINC25055158
REMARK  7 active torsions:
REMARK  status: ('A' for Active; 'I' for Inactive)
REMARK    1  A    between atoms: C_1  and  C_2
REMARK    2  A    between atoms: C_2  and  C_3
REMARK    3  A    between atoms: C_4  and  C_25
REMARK    4  A    between atoms: C_5  and  N_24
REMARK    5  A    between atoms: C_7  and  S_9
REMARK    6  A    between atoms: S_9  and  C_10
REMARK    7  A    between atoms: C_10  and  C_11
REMARK                            x       y       z     vdW  Elec       q    Type
REMARK                         _______ _______ _______ _____ _____    ______ ____
ROOT
ATOM      1  C   UNL     1      -3.385   1.084  -1.058  0.00  0.00    +0.055 A 
ATOM      2  C   UNL     1      -2.505   1.003   0.019  0.00  0.00    +0.043 A 
ATOM      3  C   UNL     1      -2.861   0.190   1.111  0.00  0.00    +0.129 A 
ATOM      4  N   UNL     1      -4.013  -0.469   1.072  0.00  0.00    -0.207 NA
ATOM      5  C   UNL     1      -4.817  -0.365   0.023  0.00  0.00    +0.191 A 
ATOM      6  N   UNL     1      -4.512   0.392  -1.022  0.00  0.00    -0.226 NA
ENDROOT
BRANCH   2   7
ATOM      7  C   UNL     1      -1.228   1.758   0.017  0.00  0.00    -0.013 A 
ATOM      8  C   UNL     1      -0.013   1.076   0.008  0.00  0.00    +0.010 A 
ATOM      9  C   UNL     1       1.172   1.783   0.000  0.00  0.00    +0.020 A 
ATOM     10  C   UNL     1       1.155   3.167   0.008  0.00  0.00    +0.041 A 
ATOM     11  C   UNL     1      -0.050   3.849   0.022  0.00  0.00    +0.020 A 
ATOM     12  C   UNL     1      -1.240   3.151   0.030  0.00  0.00    +0.010 A 
ATOM     13 CL   UNL     1       2.649   4.051  -0.002  0.00  0.00    -0.084 Cl
ENDBRANCH   2   7
BRANCH   3  14
ATOM     14  N   UNL     1      -2.025   0.079   2.208  0.00  0.00    -0.343 N 
ATOM     15  H   UNL     1      -2.312  -0.559   3.057  0.00  0.00    +0.144 HD
ATOM     16  H   UNL     1      -1.072   0.628   2.231  0.00  0.00    +0.144 HD
ENDBRANCH   3  14
BRANCH   1  18
ATOM     17  C   UNL     1      -2.283   1.117  -3.278  0.00  0.00    +0.010 C 
ATOM     18  C   UNL     1      -3.055   1.945  -2.250  0.00  0.00    +0.053 C 
ENDBRANCH   1  18
BRANCH   5  19
ATOM     19  S   UNL     1      -6.336  -1.258   0.018  0.00  0.00    -0.078 S 
BRANCH  19  20
ATOM     20  C   UNL     1      -6.224  -2.078   1.627  0.00  0.00    +0.151 C 
BRANCH  20  21
ATOM     21  C   UNL     1      -7.452  -2.924   1.847  0.00  0.00    +0.121 A 
ATOM     22  N   UNL     1      -7.554  -3.623   3.007  0.00  0.00    -0.310 N 
ATOM     23  H   UNL     1      -6.751  -3.564   3.757  0.00  0.00    +0.170 HD
ATOM     24  C   UNL     1      -8.637  -4.397   3.253  0.00  0.00    +0.259 A 
ATOM     25  O   UNL     1      -8.741  -5.029   4.288  0.00  0.00    -0.267 OA
ATOM     26  C   UNL     1      -9.683  -4.444   2.221  0.00  0.00    +0.065 A 
ATOM     27  C   UNL     1     -10.837  -5.209   2.376  0.00  0.00    +0.017 A 
ATOM     28  C   UNL     1     -11.780  -5.219   1.386  0.00  0.00    +0.021 A 
ATOM     29  C   UNL     1     -11.600  -4.473   0.227  0.00  0.00    +0.043 A 
ATOM     30  C   UNL     1     -10.467  -3.708   0.050  0.00  0.00    +0.048 A 
ATOM     31  C   UNL     1      -9.490  -3.683   1.047  0.00  0.00    +0.080 A 
ATOM     32  N   UNL     1      -8.361  -2.942   0.920  0.00  0.00    -0.233 NA
ATOM     33 CL   UNL     1     -12.815  -4.506  -1.012  0.00  0.00    -0.083 Cl
ENDBRANCH  20  21
ENDBRANCH  19  20
ENDBRANCH   5  19
TORSDOF 6
