REMARK  Name = ZINC15509145
REMARK  7 active torsions:
REMARK  status: ('A' for Active; 'I' for Inactive)
REMARK    1  A    between atoms: C_4  and  C_7
REMARK    2  A    between atoms: C_7  and  C_9
REMARK    3  A    between atoms: C_7  and  N_21
REMARK    4  A    between atoms: C_9  and  C_11
REMARK    5  A    between atoms: N_21  and  N_22
REMARK    6  A    between atoms: C_23  and  C_25
REMARK    7  A    between atoms: C_25  and  C_26
REMARK                            x       y       z     vdW  Elec       q    Type
REMARK                         _______ _______ _______ _____ _____    ______ ____
ROOT
ATOM      1  C   UNL     1       3.711  -0.707  -0.038  0.00  0.00    +0.173 C 
ENDROOT
BRANCH   1   5
ATOM      2  C   UNL     1      -0.017   1.378   0.010  0.00  0.00    +0.000 A 
ATOM      3  C   UNL     1       1.171   2.086   0.002  0.00  0.00    +0.000 A 
ATOM      4  C   UNL     1       2.377   1.411  -0.013  0.00  0.00    +0.005 A 
ATOM      5  C   UNL     1       2.396   0.029  -0.020  0.00  0.00    -0.021 A 
ATOM      6  C   UNL     1       1.208  -0.679  -0.012  0.00  0.00    +0.005 A 
ATOM      7  C   UNL     1       0.002  -0.004   0.002  0.00  0.00    +0.000 A 
ENDBRANCH   1   5
BRANCH   1   8
ATOM      8  C   UNL     1       4.044  -1.175   1.356  0.00  0.00    +0.188 C 
ATOM      9  O   UNL     1       3.918  -2.346   1.649  0.00  0.00    -0.290 OA
BRANCH   8  10
ATOM     10  C   UNL     1       4.503  -0.247   2.324  0.00  0.00    +0.044 A 
ATOM     11  C   UNL     1       4.691   1.108   2.149  0.00  0.00    +0.095 A 
ATOM     12  N   UNL     1       5.136   1.655   3.296  0.00  0.00    -0.360 N 
ATOM     13  H   UNL     1       5.340   2.595   3.416  0.00  0.00    +0.165 HD
ATOM     14  C   UNL     1       5.263   0.693   4.278  0.00  0.00    +0.047 A 
ATOM     15  C   UNL     1       4.870  -0.535   3.724  0.00  0.00    +0.010 A 
ATOM     16  C   UNL     1       4.893  -1.691   4.499  0.00  0.00    +0.011 A 
ATOM     17  C   UNL     1       5.299  -1.623   5.815  0.00  0.00    +0.001 A 
ATOM     18  C   UNL     1       5.685  -0.410   6.365  0.00  0.00    +0.002 A 
ATOM     19  C   UNL     1       5.675   0.741   5.606  0.00  0.00    +0.026 A 
ENDBRANCH   8  10
ENDBRANCH   1   8
BRANCH   1  20
ATOM     20  N   UNL     1       3.611  -1.868  -0.933  0.00  0.00    -0.226 NA
ATOM     21  H   UNL     1       2.684  -2.264  -0.908  0.00  0.00    +0.145 HD
BRANCH  20  22
ATOM     22  N   UNL     1       3.968  -1.534  -2.208  0.00  0.00    -0.250 N 
ATOM     23  C   UNL     1       3.942  -2.467  -3.181  0.00  0.00    +0.231 C 
ATOM     24  O   UNL     1       3.602  -3.602  -2.924  0.00  0.00    -0.274 OA
ATOM     25  H   UNL     1       4.240  -0.626  -2.414  0.00  0.00    +0.169 HD
BRANCH  23  26
ATOM     26  C   UNL     1       4.335  -2.099  -4.588  0.00  0.00    +0.132 C 
BRANCH  26  27
ATOM     27  C   UNL     1       4.220  -3.312  -5.476  0.00  0.00    -0.038 A 
ATOM     28  C   UNL     1       5.303  -4.156  -5.635  0.00  0.00    +0.005 A 
ATOM     29  C   UNL     1       5.199  -5.269  -6.448  0.00  0.00    +0.020 A 
ATOM     30  C   UNL     1       4.010  -5.537  -7.103  0.00  0.00    +0.041 A 
ATOM     31  C   UNL     1       2.926  -4.691  -6.944  0.00  0.00    +0.020 A 
ATOM     32  C   UNL     1       3.031  -3.582  -6.125  0.00  0.00    +0.005 A 
ATOM     33 CL   UNL     1       3.878  -6.934  -8.126  0.00  0.00    -0.084 Cl
ENDBRANCH  26  27
ENDBRANCH  23  26
ENDBRANCH  20  22
ENDBRANCH   1  20
TORSDOF 7
