REMARK  Name = ZINC44942626
REMARK  6 active torsions:
REMARK  status: ('A' for Active; 'I' for Inactive)
REMARK    1  A    between atoms: C_1  and  C_2
REMARK    2  A    between atoms: C_2  and  C_38
REMARK    3  A    between atoms: C_7  and  C_12
REMARK    4  A    between atoms: C_12  and  N_13
REMARK    5  A    between atoms: C_14  and  C_16
REMARK    6  A    between atoms: C_22  and  C_24
REMARK                            x       y       z     vdW  Elec       q    Type
REMARK                         _______ _______ _______ _____ _____    ______ ____
ROOT
ATOM      1  C   UNL     1       4.266  -5.729   0.398  0.00  0.00    +0.087 C 
ATOM      2  C   UNL     1       3.211  -6.629  -0.249  0.00  0.00    +0.013 C 
ATOM      3  C   UNL     1       3.601  -8.095  -0.052  0.00  0.00    +0.001 C 
ATOM      4  C   UNL     1       4.961  -8.353  -0.704  0.00  0.00    +0.001 C 
ATOM      5  C   UNL     1       6.016  -7.454  -0.056  0.00  0.00    +0.013 C 
ATOM      6  C   UNL     1       5.626  -5.988  -0.253  0.00  0.00    +0.087 C 
ENDROOT
BRANCH   6   7
ATOM      7  C   UNL     1       6.665  -5.102   0.385  0.00  0.00    +0.219 C 
ATOM      8  O   UNL     1       6.496  -4.683   1.510  0.00  0.00    -0.275 OA
ATOM      9  N   UNL     1       7.781  -4.775  -0.296  0.00  0.00    -0.298 N 
ATOM     10  C   UNL     1       7.951  -5.187  -1.696  0.00  0.00    +0.126 C 
ATOM     11  C   UNL     1       8.232  -3.939  -2.543  0.00  0.00    +0.125 C 
ATOM     12  N   UNL     1       9.301  -3.164  -1.898  0.00  0.00    -0.314 N 
ATOM     13  C   UNL     1       9.131  -2.753  -0.498  0.00  0.00    +0.125 C 
ATOM     14  C   UNL     1       8.848  -3.995   0.347  0.00  0.00    +0.126 C 
ATOM     15  C   UNL     1      10.453  -2.827  -2.600  0.00  0.00    +0.099 A 
ATOM     16  C   UNL     1      10.537  -3.106  -3.961  0.00  0.00    +0.042 A 
ATOM     17  C   UNL     1      11.689  -2.765  -4.646  0.00  0.00    +0.005 A 
ATOM     18  C   UNL     1      12.721  -2.155  -3.946  0.00  0.00    +0.018 A 
ATOM     19  C   UNL     1      12.569  -1.908  -2.597  0.00  0.00    +0.084 A 
ATOM     20  N   UNL     1      11.457  -2.239  -1.969  0.00  0.00    -0.350 N 
ATOM     21  H   UNL     1      11.375  -2.050  -1.021  0.00  0.00    +0.166 HD
ENDBRANCH   6   7
BRANCH   1  23
ATOM     22  N   UNL     1       2.715  -3.825   0.697  0.00  0.00    -0.315 N 
ATOM     23  C   UNL     1       3.882  -4.285   0.204  0.00  0.00    +0.217 C 
ATOM     24  O   UNL     1       4.624  -3.536  -0.397  0.00  0.00    -0.275 OA
ATOM     25  H   UNL     1       2.122  -4.424   1.177  0.00  0.00    +0.149 HD
BRANCH  22  26
ATOM     26  C   UNL     1       2.342  -2.421   0.508  0.00  0.00    +0.108 C 
BRANCH  26  32
ATOM     27  C   UNL     1      -0.091   1.464   0.020  0.00  0.00    +0.011 C 
ATOM     28  C   UNL     1      -0.051  -0.075   0.019  0.00  0.00    -0.029 C 
ATOM     29  C   UNL     1      -1.307  -0.709   0.642  0.00  0.00    -0.005 C 
ATOM     30  C   UNL     1      -1.433  -2.199   0.321  0.00  0.00    +0.004 C 
ATOM     31  C   UNL     1      -0.115  -2.949   0.461  0.00  0.00    +0.005 C 
ATOM     32  C   UNL     1       0.981  -2.163   1.160  0.00  0.00    +0.010 C 
ATOM     33  C   UNL     1       0.681  -0.666   1.225  0.00  0.00    -0.000 C 
ATOM     34  C   UNL     1      -0.641  -0.454   2.006  0.00  0.00    +0.008 C 
ATOM     35  C   UNL     1       0.330  -0.617  -1.355  0.00  0.00    +0.011 C 
ENDBRANCH  26  32
ENDBRANCH  22  26
ENDBRANCH   1  23
TORSDOF 4
