REMARK  Name = ZINC09257979
REMARK  6 active torsions:
REMARK  status: ('A' for Active; 'I' for Inactive)
REMARK    1  A    between atoms: C_1  and  C_2
REMARK    2  A    between atoms: C_2  and  C_4
REMARK    3  A    between atoms: C_2  and  N_16
REMARK    4  A    between atoms: C_7  and  C_10
REMARK    5  A    between atoms: C_17  and  C_19
REMARK    6  A    between atoms: C_19  and  N_20
REMARK                            x       y       z     vdW  Elec       q    Type
REMARK                         _______ _______ _______ _____ _____    ______ ____
ROOT
ATOM      1  N   UNL     1       2.342   5.088   0.896  0.00  0.00    -0.307 N 
ATOM      2  C   UNL     1       3.451   5.620   1.449  0.00  0.00    +0.231 C 
ATOM      3  O   UNL     1       4.539   5.144   1.204  0.00  0.00    -0.274 OA
ATOM      4  H   UNL     1       1.472   5.469   1.092  0.00  0.00    +0.149 HD
ENDROOT
BRANCH   1   6
ATOM      5  C   UNL     1       2.750   4.417  -1.420  0.00  0.00    +0.033 C 
ATOM      6  C   UNL     1       2.452   3.933   0.001  0.00  0.00    +0.100 C 
BRANCH   6   7
ATOM      7  C   UNL     1       1.155   3.167   0.009  0.00  0.00    -0.027 A 
ATOM      8  C   UNL     1       1.172   1.783   0.000  0.00  0.00    +0.006 A 
ATOM      9  C   UNL     1      -0.013   1.076   0.008  0.00  0.00    +0.009 A 
ATOM     10  C   UNL     1      -1.228   1.757   0.017  0.00  0.00    -0.018 A 
ATOM     11  C   UNL     1      -1.239   3.151   0.031  0.00  0.00    +0.009 A 
ATOM     12  C   UNL     1      -0.048   3.848   0.023  0.00  0.00    +0.006 A 
BRANCH  10  13
ATOM     13  C   UNL     1      -2.505   1.002   0.019  0.00  0.00    -0.018 A 
ATOM     14  C   UNL     1      -2.494  -0.391   0.005  0.00  0.00    +0.008 A 
ATOM     15  C   UNL     1      -3.685  -1.089   0.011  0.00  0.00    +0.001 A 
ATOM     16  C   UNL     1      -4.888  -0.407   0.021  0.00  0.00    +0.000 A 
ATOM     17  C   UNL     1      -4.905   0.976   0.029  0.00  0.00    +0.001 A 
ATOM     18  C   UNL     1      -3.720   1.683   0.028  0.00  0.00    +0.008 A 
ENDBRANCH  10  13
ENDBRANCH   6   7
ENDBRANCH   1   6
BRANCH   2  19
ATOM     19  C   UNL     1       3.338   6.807   2.370  0.00  0.00    +0.213 C 
BRANCH  19  20
ATOM     20  N   UNL     1       4.672   7.194   2.834  0.00  0.00    -0.215 N 
ATOM     21  C   UNL     1       5.468   8.081   2.202  0.00  0.00    +0.251 C 
ATOM     22  O   UNL     1       5.227   8.687   1.180  0.00  0.00    -0.272 OA
ATOM     23  C   UNL     1       6.723   8.159   3.036  0.00  0.00    +0.139 C 
ATOM     24  C   UNL     1       7.944   7.744   2.229  0.00  0.00    +0.040 C 
ATOM     25  C   UNL     1       9.220   7.984   3.043  0.00  0.00    +0.008 C 
ATOM     26  C   UNL     1       9.436   9.497   3.194  0.00  0.00    +0.043 C 
ATOM     27  C   UNL     1       8.148  10.123   3.620  0.00  0.00    -0.005 A 
ATOM     28  C   UNL     1       6.904   9.569   3.572  0.00  0.00    -0.005 A 
ATOM     29  C   UNL     1       5.853  10.362   4.031  0.00  0.00    +0.014 A 
ATOM     30  C   UNL     1       6.096  11.610   4.494  0.00  0.00    +0.046 A 
ATOM     31  S   UNL     1       7.868  11.735   4.301  0.00  0.00    -0.101 S 
ATOM     32  N   UNL     1       6.481   7.229   4.143  0.00  0.00    -0.281 N 
ATOM     33  C   UNL     1       5.251   6.714   3.942  0.00  0.00    +0.310 C 
ATOM     34  O   UNL     1       4.729   5.904   4.682  0.00  0.00    -0.252 OA
ATOM     35  H   UNL     1       7.083   7.028   4.876  0.00  0.00    +0.152 HD
ENDBRANCH  19  20
ENDBRANCH   2  19
TORSDOF 5
