REMARK  Name = ZINC36595246
REMARK  13 active torsions:
REMARK  status: ('A' for Active; 'I' for Inactive)
REMARK    1  A    between atoms: C_1  and  C_2
REMARK    2  A    between atoms: C_5  and  C_7
REMARK    3  A    between atoms: C_7  and  N_8
REMARK    4  A    between atoms: N_8  and  C_9
REMARK    5  A    between atoms: C_9  and  C_11
REMARK    6  A    between atoms: C_9  and  C_18
REMARK    7  A    between atoms: C_15  and  O_17
REMARK    8  A    between atoms: N_20  and  C_21
REMARK    9  A    between atoms: C_21  and  C_22
REMARK   10  A    between atoms: C_21  and  C_23
REMARK   11  A    between atoms: C_21  and  C_24
REMARK   12  A    between atoms: C_25  and  C_27
REMARK   13  A    between atoms: C_32  and  O_33
REMARK                            x       y       z     vdW  Elec       q    Type
REMARK                         _______ _______ _______ _____ _____    ______ ____
ROOT
ATOM      1  N   UNL     1       2.932  -4.771  -0.844  0.00  0.00    -0.275 N 
ATOM      2  C   UNL     1       1.770  -4.770  -0.162  0.00  0.00    +0.251 C 
ATOM      3  O   UNL     1       0.954  -5.652  -0.349  0.00  0.00    -0.270 OA
ENDROOT
BRANCH   2   4
ATOM      4  C   UNL     1       1.487  -3.700   0.813  0.00  0.00    +0.078 A 
ATOM      5  C   UNL     1       1.569  -2.359   0.428  0.00  0.00    +0.017 A 
ATOM      6  C   UNL     1       1.303  -1.364   1.343  0.00  0.00    +0.001 A 
ATOM      7  C   UNL     1       0.955  -1.686   2.645  0.00  0.00    +0.004 A 
ATOM      8  C   UNL     1       0.870  -3.006   3.039  0.00  0.00    +0.046 A 
ATOM      9  C   UNL     1       1.129  -4.021   2.129  0.00  0.00    +0.129 A 
BRANCH   9  10
ATOM     10  O   UNL     1       1.041  -5.319   2.514  0.00  0.00    -0.506 OA
ATOM     11  H   UNL     1       1.867  -5.684   2.860  0.00  0.00    +0.292 HD
ENDBRANCH   9  10
ENDBRANCH   2   4
BRANCH   1  12
ATOM     12  C   UNL     1       3.266  -5.895  -1.722  0.00  0.00    +0.183 C 
BRANCH  12  17
ATOM     13  C   UNL     1       4.741  -9.663   1.290  0.00  0.00    +0.086 C 
ATOM     14  C   UNL     1       3.889  -8.814   0.382  0.00  0.00    +0.102 A 
ATOM     15  C   UNL     1       2.629  -9.092  -0.001  0.00  0.00    +0.045 A 
ATOM     16  C   UNL     1       2.216  -8.036  -0.845  0.00  0.00    +0.046 A 
ATOM     17  C   UNL     1       3.247  -7.176  -0.927  0.00  0.00    +0.122 A 
ATOM     18  O   UNL     1       4.255  -7.649  -0.177  0.00  0.00    -0.463 OA
ENDBRANCH  12  17
ENDBRANCH   1  12
BRANCH   1  19
ATOM     19  C   UNL     1       3.862  -3.647  -0.707  0.00  0.00    +0.193 C 
BRANCH  19  20
ATOM     20  C   UNL     1       4.089  -3.016  -2.056  0.00  0.00    -0.015 A 
ATOM     21  C   UNL     1       3.204  -3.259  -3.090  0.00  0.00    +0.006 A 
ATOM     22  C   UNL     1       3.409  -2.681  -4.329  0.00  0.00    +0.004 A 
ATOM     23  C   UNL     1       4.501  -1.860  -4.538  0.00  0.00    +0.045 A 
ATOM     24  C   UNL     1       5.391  -1.616  -3.502  0.00  0.00    +0.117 A 
ATOM     25  C   UNL     1       5.179  -2.192  -2.258  0.00  0.00    +0.051 A 
BRANCH  24  26
ATOM     26  O   UNL     1       6.465  -0.809  -3.705  0.00  0.00    -0.507 OA
ATOM     27  H   UNL     1       6.297   0.125  -3.517  0.00  0.00    +0.292 HD
ENDBRANCH  24  26
ENDBRANCH  19  20
BRANCH  19  28
ATOM     28  C   UNL     1       5.174  -4.145  -0.158  0.00  0.00    +0.239 C 
ATOM     29  O   UNL     1       5.493  -5.306  -0.307  0.00  0.00    -0.273 OA
ATOM     30  N   UNL     1       5.994  -3.301   0.498  0.00  0.00    -0.309 N 
ATOM     31  H   UNL     1       5.740  -2.372   0.617  0.00  0.00    +0.149 HD
BRANCH  30  32
ATOM     32  C   UNL     1       7.270  -3.785   1.032  0.00  0.00    +0.026 C 
ATOM     33  C   UNL     1       8.131  -4.321  -0.113  0.00  0.00    +0.031 C 
ATOM     34  C   UNL     1       8.002  -2.634   1.725  0.00  0.00    +0.031 C 
ATOM     35  C   UNL     1       7.009  -4.905   2.041  0.00  0.00    +0.031 C 
ENDBRANCH  30  32
ENDBRANCH  19  28
ENDBRANCH   1  19
TORSDOF 9
