REMARK  Name = ZINC01764823
REMARK  0 active torsions:
REMARK  status: ('A' for Active; 'I' for Inactive)
REMARK                            x       y       z     vdW  Elec       q    Type
REMARK                         _______ _______ _______ _____ _____    ______ ____
ROOT
ATOM      1  C   UNL     1      -0.019   1.530   0.011  0.00  0.00    +0.023 C 
ATOM      2  C   UNL     1       1.355   2.236   0.001  0.00  0.00    +0.082 C 
ATOM      3  S   UNL     1       2.279   1.355  -1.344  0.00  0.00    -0.093 S 
ATOM      4  S   UNL     1       1.462  -0.533  -0.993  0.00  0.00    -0.093 S 
ATOM      5  C   UNL     1       0.002  -0.004   0.002  0.00  0.00    +0.082 C 
ENDROOT
TORSDOF 0
