REMARK  Name = ZINC65791451
REMARK  7 active torsions:
REMARK  status: ('A' for Active; 'I' for Inactive)
REMARK    1  A    between atoms: C_1  and  C_2
REMARK    2  A    between atoms: C_5  and  S_7
REMARK    3  A    between atoms: S_7  and  C_8
REMARK    4  A    between atoms: C_11  and  N_14
REMARK    5  A    between atoms: C_15  and  C_17
REMARK    6  A    between atoms: C_17  and  C_18
REMARK    7  A    between atoms: C_17  and  N_19
REMARK                            x       y       z     vdW  Elec       q    Type
REMARK                         _______ _______ _______ _____ _____    ______ ____
ROOT
ATOM      1  C   UNL     1       0.098  -4.786   1.878  0.00  0.00    +0.015 A 
ATOM      2  C   UNL     1       0.171  -5.016   0.509  0.00  0.00    +0.017 A 
ATOM      3  C   UNL     1       0.182  -6.308   0.026  0.00  0.00    +0.024 A 
ATOM      4  C   UNL     1       0.119  -7.380   0.907  0.00  0.00    +0.034 A 
ATOM      5  C   UNL     1       0.045  -7.151   2.275  0.00  0.00    +0.024 A 
ATOM      6  C   UNL     1       0.041  -5.858   2.759  0.00  0.00    +0.017 A 
ENDROOT
BRANCH   4   7
ATOM      7  N   UNL     1       0.129  -8.692   0.416  0.00  0.00    -0.284 N 
ATOM      8  C   UNL     1      -0.590  -9.649   1.036  0.00  0.00    +0.237 C 
ATOM      9  O   UNL     1      -1.179  -9.394   2.066  0.00  0.00    -0.273 OA
ATOM     10  H   UNL     1       0.653  -8.912  -0.369  0.00  0.00    +0.155 HD
BRANCH   8  11
ATOM     11  C   UNL     1      -0.663 -11.035   0.450  0.00  0.00    +0.158 C 
ATOM     12  C   UNL     1       0.746 -11.628   0.365  0.00  0.00    +0.038 C 
BRANCH  11  13
ATOM     13  N   UNL     1      -1.498 -11.883   1.303  0.00  0.00    -0.289 N 
ATOM     14  C   UNL     1      -2.122 -12.958   0.781  0.00  0.00    +0.298 C 
ATOM     15  O   UNL     1      -1.991 -13.224  -0.398  0.00  0.00    -0.253 OA
ATOM     16  N   UNL     1      -2.891 -13.738   1.566  0.00  0.00    -0.313 N 
ATOM     17  H   UNL     1      -1.603 -11.671   2.244  0.00  0.00    +0.151 HD
ATOM     18  H   UNL     1      -2.996 -13.526   2.507  0.00  0.00    +0.146 HD
ATOM     19  H   UNL     1      -3.340 -14.512   1.191  0.00  0.00    +0.146 HD
ENDBRANCH  11  13
ENDBRANCH   8  11
ENDBRANCH   4   7
BRANCH   1  20
ATOM     20  S   UNL     1       0.084  -3.136   2.495  0.00  0.00    -0.063 S 
BRANCH  20  25
ATOM     21  C   UNL     1      -4.132  -0.341   3.887  0.00  0.00    +0.066 C 
ATOM     22  C   UNL     1      -3.491  -1.569   3.295  0.00  0.00    +0.047 A 
ATOM     23  C   UNL     1      -4.237  -2.597   2.821  0.00  0.00    +0.070 A 
ATOM     24  S   UNL     1      -2.956  -3.712   2.271  0.00  0.00    -0.069 S 
ATOM     25  C   UNL     1      -1.628  -2.770   2.696  0.00  0.00    +0.139 A 
ATOM     26  N   UNL     1      -2.179  -1.690   3.210  0.00  0.00    -0.238 NA
ENDBRANCH  20  25
ENDBRANCH   1  20
TORSDOF 5
