REMARK  Name = ZINC63899837
REMARK  11 active torsions:
REMARK  status: ('A' for Active; 'I' for Inactive)
REMARK    1  A    between atoms: C_1  and  C_2
REMARK    2  A    between atoms: C_4  and  O_29
REMARK    3  A    between atoms: C_5  and  S_9
REMARK    4  A    between atoms: C_7  and  C_8
REMARK    5  A    between atoms: S_9  and  N_12
REMARK    6  A    between atoms: N_12  and  C_13
REMARK    7  A    between atoms: C_13  and  C_14
REMARK    8  A    between atoms: C_14  and  C_15
REMARK    9  A    between atoms: C_21  and  O_27
REMARK   10  A    between atoms: O_27  and  C_28
REMARK   11  A    between atoms: O_29  and  C_30
REMARK                            x       y       z     vdW  Elec       q    Type
REMARK                         _______ _______ _______ _____ _____    ______ ____
ROOT
ATOM      1  C   UNL     1      -1.669  -4.746  -2.076  0.00  0.00    +0.107 C 
ENDROOT
BRANCH   1   2
ATOM      2  N   UNL     1      -1.366  -5.041  -0.673  0.00  0.00    -0.190 NA
ATOM      3  H   UNL     1      -2.003  -5.534  -0.133  0.00  0.00    +0.148 HD
BRANCH   2   4
ATOM      4  S   UNL     1       0.065  -4.534  -0.011  0.00  0.00    +0.062 S 
ATOM      5  O   UNL     1       1.091  -4.924  -0.913  0.00  0.00    -0.153 OA
ATOM      6  O   UNL     1       0.050  -4.944   1.350  0.00  0.00    -0.153 OA
BRANCH   4  11
ATOM      7  C   UNL     1      -0.018   1.503   0.010  0.00  0.00    +0.044 C 
ATOM      8  C   UNL     1       0.002  -0.004   0.002  0.00  0.00    -0.044 A 
ATOM      9  C   UNL     1       0.006  -0.688  -1.199  0.00  0.00    +0.051 A 
ATOM     10  C   UNL     1       0.025  -2.075  -1.206  0.00  0.00    +0.147 A 
ATOM     11  C   UNL     1       0.041  -2.772  -0.006  0.00  0.00    +0.147 A 
ATOM     12  C   UNL     1       0.037  -2.084   1.192  0.00  0.00    +0.036 A 
ATOM     13  C   UNL     1       0.023  -0.701   1.196  0.00  0.00    -0.045 A 
ATOM     14  C   UNL     1       0.025   0.047   2.504  0.00  0.00    +0.044 C 
BRANCH  10  15
ATOM     15  O   UNL     1       0.028  -2.749  -2.385  0.00  0.00    -0.493 OA
ATOM     16  C   UNL     1       0.011  -1.966  -3.580  0.00  0.00    +0.277 C 
ENDBRANCH  10  15
ENDBRANCH   4  11
ENDBRANCH   2   4
ENDBRANCH   1   2
BRANCH   1  17
ATOM     17  C   UNL     1      -2.836  -5.619  -2.540  0.00  0.00    +0.033 C 
BRANCH  17  18
ATOM     18  C   UNL     1      -3.153  -5.311  -4.005  0.00  0.00    +0.100 C 
ATOM     19  C   UNL     1      -4.156  -6.339  -4.490  0.00  0.00    -0.005 C 
ATOM     20  C   UNL     1      -5.340  -5.877  -4.974  0.00  0.00    -0.007 A 
ATOM     21  C   UNL     1      -6.362  -6.806  -5.462  0.00  0.00    +0.013 A 
ATOM     22  C   UNL     1      -7.530  -6.310  -5.936  0.00  0.00    +0.046 A 
ATOM     23  C   UNL     1      -7.776  -4.929  -5.968  0.00  0.00    +0.122 A 
ATOM     24  C   UNL     1      -6.854  -4.007  -5.523  0.00  0.00    +0.069 A 
ATOM     25  C   UNL     1      -5.617  -4.429  -5.016  0.00  0.00    +0.044 A 
ATOM     26  N   UNL     1      -4.731  -3.527  -4.588  0.00  0.00    -0.284 N 
ATOM     27  C   UNL     1      -3.550  -3.855  -4.097  0.00  0.00    +0.224 C 
ATOM     28  O   UNL     1      -2.783  -2.988  -3.721  0.00  0.00    -0.275 OA
ATOM     29  H   UNL     1      -4.966  -2.587  -4.639  0.00  0.00    +0.155 HD
BRANCH  23  30
ATOM     30  O   UNL     1      -8.961  -4.487  -6.452  0.00  0.00    -0.495 OA
ATOM     31  C   UNL     1      -9.888  -5.477  -6.902  0.00  0.00    +0.277 C 
ENDBRANCH  23  30
ENDBRANCH  17  18
ENDBRANCH   1  17
TORSDOF 7
