REMARK  Name = ZINC11558156
REMARK  7 active torsions:
REMARK  status: ('A' for Active; 'I' for Inactive)
REMARK    1  A    between atoms: C_3  and  C_6
REMARK    2  A    between atoms: C_6  and  C_8
REMARK    3  A    between atoms: C_6  and  N_59
REMARK    4  A    between atoms: C_8  and  N_9
REMARK    5  A    between atoms: C_10  and  C_12
REMARK    6  A    between atoms: C_12  and  C_13
REMARK    7  A    between atoms: C_13  and  C_14
REMARK                            x       y       z     vdW  Elec       q    Type
REMARK                         _______ _______ _______ _____ _____    ______ ____
ROOT
ATOM      1  N   UNL     1      -0.293   1.235  -2.445  0.00  0.00    -0.316 N 
ATOM      2  C   UNL     1      -0.711   1.567  -1.207  0.00  0.00    +0.213 C 
ATOM      3  O   UNL     1      -1.627   2.349  -1.066  0.00  0.00    -0.276 OA
ATOM      4  H   UNL     1       0.440   0.610  -2.558  0.00  0.00    +0.149 HD
ENDROOT
BRANCH   1   5
ATOM      5  C   UNL     1      -0.947   1.817  -3.620  0.00  0.00    +0.096 C 
BRANCH   5   6
ATOM      6  C   UNL     1      -0.213   1.370  -4.886  0.00  0.00    +0.016 C 
BRANCH   6  11
ATOM      7  C   UNL     1      -0.669   3.529  -5.915  0.00  0.00    -0.078 C 
ATOM      8  C   UNL     1      -0.811   4.032  -7.374  0.00  0.00    -0.020 C 
ATOM      9  C   UNL     1      -0.060   2.953  -8.187  0.00  0.00    -0.020 C 
ATOM     10  C   UNL     1      -0.054   1.704  -7.287  0.00  0.00    -0.078 C 
ATOM     11  N   UNL     1      -0.786   2.071  -6.074  0.00  0.00    +0.387 N 
ATOM     12  H   UNL     1      -1.774   1.812  -6.174  0.00  0.00    -0.081 HD
ENDBRANCH   6  11
BRANCH   6  15
ATOM     13  C   UNL     1       0.005  -2.305  -5.051  0.00  0.00    +0.041 A 
ATOM     14  C   UNL     1       0.558  -1.044  -4.727  0.00  0.00    +0.043 A 
ATOM     15  C   UNL     1      -0.363  -0.120  -5.054  0.00  0.00    +0.093 A 
ATOM     16  O   UNL     1      -1.440  -0.750  -5.551  0.00  0.00    -0.469 OA
ATOM     17  C   UNL     1      -1.220  -2.075  -5.556  0.00  0.00    +0.195 A 
ENDBRANCH   6  15
ENDBRANCH   5   6
ENDBRANCH   1   5
BRANCH   2  18
ATOM     18  C   UNL     1      -0.038   0.969   0.001  0.00  0.00    +0.103 C 
BRANCH  18  19
ATOM     19  C   UNL     1      -0.698   1.508   1.272  0.00  0.00    +0.083 C 
BRANCH  19  20
ATOM     20  C   UNL     1      -0.025   0.909   2.480  0.00  0.00    +0.111 A 
ATOM     21  N   UNL     1      -0.455   1.253   3.721  0.00  0.00    -0.310 N 
ATOM     22  H   UNL     1      -1.190   1.880   3.813  0.00  0.00    +0.170 HD
ATOM     23  C   UNL     1       0.118   0.742   4.827  0.00  0.00    +0.260 A 
ATOM     24  O   UNL     1      -0.280   1.060   5.934  0.00  0.00    -0.267 OA
ATOM     25  C   UNL     1       1.203  -0.183   4.680  0.00  0.00    +0.075 A 
ATOM     26  C   UNL     1       1.969  -0.858   5.728  0.00  0.00    -0.023 A 
ATOM     27  C   UNL     1       2.952  -1.691   5.327  0.00  0.00    -0.004 A 
ATOM     28  S   UNL     1       2.915  -1.627   3.556  0.00  0.00    -0.073 S 
ATOM     29  C   UNL     1       1.576  -0.478   3.360  0.00  0.00    +0.116 A 
ATOM     30  N   UNL     1       0.958   0.065   2.314  0.00  0.00    -0.227 NA
ATOM     31  C   UNL     1       3.872  -2.494   6.195  0.00  0.00    +0.043 C 
ATOM     32  C   UNL     1       3.781  -1.950   7.628  0.00  0.00    +0.005 C 
ATOM     33  C   UNL     1       2.304  -1.797   8.004  0.00  0.00    +0.005 C 
ATOM     34  C   UNL     1       1.685  -0.644   7.212  0.00  0.00    +0.037 C 
ENDBRANCH  19  20
ENDBRANCH  18  19
ENDBRANCH   2  18
TORSDOF 7
