REMARK  Name = ZINC22473065
REMARK  12 active torsions:
REMARK  status: ('A' for Active; 'I' for Inactive)
REMARK    1  A    between atoms: C_1  and  C_2
REMARK    2  A    between atoms: C_2  and  C_3
REMARK    3  A    between atoms: C_2  and  C_4
REMARK    4  A    between atoms: C_2  and  C_5
REMARK    5  A    between atoms: C_8  and  C_11
REMARK    6  A    between atoms: N_13  and  C_14
REMARK    7  A    between atoms: N_13  and  C_29
REMARK    8  A    between atoms: C_14  and  C_15
REMARK    9  A    between atoms: C_15  and  C_16
REMARK   10  A    between atoms: C_16  and  N_17
REMARK   11  A    between atoms: C_20  and  O_21
REMARK   12  A    between atoms: C_29  and  C_30
REMARK                            x       y       z     vdW  Elec       q    Type
REMARK                         _______ _______ _______ _____ _____    ______ ____
ROOT
ATOM      1  C   UNL     1      -6.822   2.814   1.115  0.00  0.00    +0.247 C 
ATOM      2  O   UNL     1      -7.561   3.771   0.986  0.00  0.00    -0.270 OA
ATOM      3  N   UNL     1      -6.369   2.162   0.026  0.00  0.00    -0.293 N 
ENDROOT
BRANCH   1   7
ATOM      4  C   UNL     1      -5.668   1.527   4.995  0.00  0.00    -0.042 A 
ATOM      5  C   UNL     1      -6.831   2.259   4.829  0.00  0.00    +0.005 A 
ATOM      6  C   UNL     1      -7.211   2.680   3.572  0.00  0.00    +0.013 A 
ATOM      7  C   UNL     1      -6.420   2.366   2.465  0.00  0.00    +0.037 A 
ATOM      8  C   UNL     1      -5.252   1.623   2.639  0.00  0.00    +0.013 A 
ATOM      9  C   UNL     1      -4.880   1.213   3.902  0.00  0.00    +0.005 A 
BRANCH   4  11
ATOM     10  C   UNL     1      -6.351   0.172   6.956  0.00  0.00    +0.015 C 
ATOM     11  C   UNL     1      -5.259   1.070   6.371  0.00  0.00    -0.013 C 
ATOM     12  C   UNL     1      -3.948   0.286   6.280  0.00  0.00    +0.015 C 
ATOM     13  C   UNL     1      -5.063   2.289   7.276  0.00  0.00    +0.015 C 
ENDBRANCH   4  11
ENDBRANCH   1   7
BRANCH   3  14
ATOM     14  C   UNL     1      -5.548   0.959   0.182  0.00  0.00    +0.110 C 
BRANCH  14  15
ATOM     15  C   UNL     1      -4.090   1.291  -0.141  0.00  0.00    +0.040 C 
BRANCH  15  16
ATOM     16  C   UNL     1      -3.232   0.035   0.022  0.00  0.00    +0.114 C 
BRANCH  16  17
ATOM     17  N   UNL     1      -1.836   0.353  -0.286  0.00  0.00    -0.384 N 
ATOM     18  C   UNL     1      -0.872  -0.627  -0.208  0.00  0.00    +0.053 A 
ATOM     19  C   UNL     1      -1.196  -1.909   0.157  0.00  0.00    +0.113 A 
ATOM     20  C   UNL     1      -0.194  -2.886   0.222  0.00  0.00    +0.286 A 
ATOM     21  O   UNL     1       1.088  -2.608  -0.063  0.00  0.00    -0.425 OA
ATOM     22  C   UNL     1       1.481  -1.369  -0.430  0.00  0.00    +0.141 A 
ATOM     23  C   UNL     1       0.537  -0.334  -0.519  0.00  0.00    +0.041 A 
ATOM     24  C   UNL     1       0.939   0.948  -0.898  0.00  0.00    +0.013 A 
ATOM     25  C   UNL     1       2.265   1.189  -1.183  0.00  0.00    +0.001 A 
ATOM     26  C   UNL     1       3.197   0.167  -1.095  0.00  0.00    +0.004 A 
ATOM     27  C   UNL     1       2.813  -1.104  -0.721  0.00  0.00    +0.047 A 
ATOM     28  H   UNL     1      -1.557   1.376  -0.581  0.00  0.00    +0.160 HD
BRANCH  20  29
ATOM     29  O   UNL     1      -0.495  -4.021   0.548  0.00  0.00    -0.480 OA
ATOM     30  H   UNL     1       0.279  -4.801   0.604  0.00  0.00    +0.295 HD
ENDBRANCH  20  29
ENDBRANCH  16  17
ENDBRANCH  15  16
ENDBRANCH  14  15
ENDBRANCH   3  14
BRANCH   3  31
ATOM     31  C   UNL     1      -6.698   2.655  -1.313  0.00  0.00    +0.143 C 
BRANCH  31  32
ATOM     32  C   UNL     1      -8.015   2.070  -1.755  0.00  0.00    -0.030 A 
ATOM     33  C   UNL     1      -8.038   0.910  -2.507  0.00  0.00    +0.005 A 
ATOM     34  C   UNL     1      -9.245   0.370  -2.908  0.00  0.00    +0.000 A 
ATOM     35  C   UNL     1     -10.430   0.996  -2.566  0.00  0.00    +0.000 A 
ATOM     36  C   UNL     1     -10.406   2.159  -1.820  0.00  0.00    +0.000 A 
ATOM     37  C   UNL     1      -9.199   2.696  -1.414  0.00  0.00    +0.005 A 
ENDBRANCH  31  32
ENDBRANCH   3  31
TORSDOF 9
