REMARK  Name = ZINC40961321
REMARK  7 active torsions:
REMARK  status: ('A' for Active; 'I' for Inactive)
REMARK    1  A    between atoms: C_6  and  C_7
REMARK    2  A    between atoms: C_8  and  C_9
REMARK    3  A    between atoms: N_11  and  C_12
REMARK    4  A    between atoms: N_15  and  C_18
REMARK    5  A    between atoms: C_18  and  C_19
REMARK    6  A    between atoms: C_21  and  C_24
REMARK    7  A    between atoms: C_27  and  C_30
REMARK                            x       y       z     vdW  Elec       q    Type
REMARK                         _______ _______ _______ _____ _____    ______ ____
ROOT
ATOM      1  C   UNL     1      -3.729  -4.961   0.013  0.00  0.00    +0.070 C 
ATOM      2  C   UNL     1      -4.213  -5.133   1.455  0.00  0.00    +0.004 C 
ATOM      3  C   UNL     1      -5.483  -5.987   1.463  0.00  0.00    -0.076 C 
ATOM      4  N   UNL     1      -5.194  -7.304   0.882  0.00  0.00    +0.386 N 
ATOM      5  C   UNL     1      -4.798  -7.153  -0.523  0.00  0.00    -0.076 C 
ATOM      6  C   UNL     1      -3.502  -6.343  -0.607  0.00  0.00    +0.004 C 
ATOM      7  H   UNL     1      -4.444  -7.740   1.397  0.00  0.00    -0.081 HD
ENDROOT
BRANCH   1  10
ATOM      8  C   UNL     1      -2.494  -2.861   0.011  0.00  0.00    +0.237 C 
ATOM      9  O   UNL     1      -3.557  -2.269   0.025  0.00  0.00    -0.271 OA
ATOM     10  N   UNL     1      -2.472  -4.208   0.004  0.00  0.00    -0.309 N 
ATOM     11  H   UNL     1      -1.624  -4.680  -0.007  0.00  0.00    +0.149 HD
BRANCH   8  13
ATOM     12  C   UNL     1      -1.260  -0.760   0.011  0.00  0.00    +0.013 C 
ATOM     13  C   UNL     1      -1.238  -2.109   0.003  0.00  0.00    +0.068 C 
BRANCH  12  19
ATOM     14  C   UNL     1      -0.017   1.395   0.010  0.00  0.00    +0.011 A 
ATOM     15  C   UNL     1       1.169   2.097   0.002  0.00  0.00    +0.039 A 
ATOM     16  C   UNL     1       2.379   1.420  -0.013  0.00  0.00    +0.123 A 
ATOM     17  C   UNL     1       2.405   0.033  -0.021  0.00  0.00    +0.039 A 
ATOM     18  C   UNL     1       1.226  -0.681  -0.014  0.00  0.00    +0.011 A 
ATOM     19  C   UNL     1       0.002  -0.004   0.002  0.00  0.00    -0.025 A 
ATOM     20  F   UNL     1       3.538   2.114  -0.020  0.00  0.00    -0.205 F 
ENDBRANCH  12  19
ENDBRANCH   8  13
ENDBRANCH   1  10
BRANCH   4  21
ATOM     21  C   UNL     1      -6.395  -8.147   0.963  0.00  0.00    +0.022 C 
BRANCH  21  22
ATOM     22  C   UNL     1      -6.066  -9.536   0.480  0.00  0.00    +0.211 A 
ATOM     23  N   UNL     1      -5.643 -10.519   1.223  0.00  0.00    -0.193 NA
ATOM     24  C   UNL     1      -5.450 -11.616   0.468  0.00  0.00    +0.202 A 
ATOM     25  N   UNL     1      -5.755 -11.329  -0.773  0.00  0.00    -0.056 NA
ATOM     26  O   UNL     1      -6.166  -9.970  -0.782  0.00  0.00    -0.340 OA
BRANCH  24  27
ATOM     27  C   UNL     1      -4.971 -12.932   0.960  0.00  0.00    +0.022 A 
ATOM     28  C   UNL     1      -4.684 -13.111   2.312  0.00  0.00    +0.012 A 
ATOM     29  C   UNL     1      -4.239 -14.337   2.764  0.00  0.00    +0.013 A 
ATOM     30  C   UNL     1      -4.077 -15.386   1.877  0.00  0.00    +0.055 A 
ATOM     31  C   UNL     1      -4.360 -15.214   0.534  0.00  0.00    +0.013 A 
ATOM     32  C   UNL     1      -4.812 -13.994   0.073  0.00  0.00    +0.012 A 
BRANCH  30  33
ATOM     33  C   UNL     1      -3.589 -16.722   2.376  0.00  0.00    +0.417 C 
ATOM     34  F   UNL     1      -4.685 -17.509   2.746  0.00  0.00    -0.166 F 
ATOM     35  F   UNL     1      -2.873 -17.366   1.362  0.00  0.00    -0.166 F 
ATOM     36  F   UNL     1      -2.757 -16.530   3.485  0.00  0.00    -0.166 F 
ENDBRANCH  30  33
ENDBRANCH  24  27
ENDBRANCH  21  22
ENDBRANCH   4  21
TORSDOF 7
