REMARK  Name = ZINC33810426
REMARK  10 active torsions:
REMARK  status: ('A' for Active; 'I' for Inactive)
REMARK    1  A    between atoms: C_1  and  C_2
REMARK    2  A    between atoms: C_2  and  C_3
REMARK    3  A    between atoms: C_2  and  S_4
REMARK    4  A    between atoms: S_4  and  C_5
REMARK    5  A    between atoms: C_12  and  C_24
REMARK    6  A    between atoms: C_18  and  C_22
REMARK    7  A    between atoms: C_18  and  C_23
REMARK    8  A    between atoms: C_27  and  O_32
REMARK    9  A    between atoms: C_28  and  O_30
REMARK   10  A    between atoms: O_30  and  C_31
REMARK                            x       y       z     vdW  Elec       q    Type
REMARK                         _______ _______ _______ _____ _____    ______ ____
ROOT
ATOM      1  C   UNL     1      -1.606   4.350   3.586  0.00  0.00    +0.171 A 
ATOM      2  N   UNL     1      -1.317   4.987   2.417  0.00  0.00    -0.208 NA
ATOM      3  C   UNL     1      -1.228   4.274   1.250  0.00  0.00    +0.135 A 
ATOM      4  C   UNL     1      -1.430   2.930   1.274  0.00  0.00    +0.069 A 
ATOM      5  C   UNL     1      -1.732   2.308   2.505  0.00  0.00    +0.258 A 
ATOM      6  O   UNL     1      -1.923   1.101   2.554  0.00  0.00    -0.267 OA
ATOM      7  N   UNL     1      -1.807   3.049   3.621  0.00  0.00    -0.302 N 
ATOM      8  C   UNL     1      -1.333   2.112   0.020  0.00  0.00    +0.093 C 
ATOM      9  C   UNL     1      -1.423   2.981  -1.209  0.00  0.00    +0.024 C 
ATOM     10  C   UNL     1      -1.218   4.314  -1.134  0.00  0.00    +0.017 C 
ATOM     11  N   UNL     1      -0.938   4.910   0.066  0.00  0.00    -0.302 N 
ATOM     12  C   UNL     1      -1.288   5.181  -2.367  0.00  0.00    +0.058 C 
ATOM     13  C   UNL     1      -2.288   4.586  -3.359  0.00  0.00    -0.023 C 
ATOM     14  C   UNL     1      -1.841   3.161  -3.704  0.00  0.00    +0.086 C 
ATOM     15  C   UNL     1      -1.726   2.363  -2.434  0.00  0.00    +0.162 C 
ATOM     16  O   UNL     1      -1.899   1.161  -2.469  0.00  0.00    -0.292 OA
ATOM     17  C   UNL     1      -3.680   4.548  -2.726  0.00  0.00    +0.011 C 
ATOM     18  C   UNL     1      -2.323   5.439  -4.629  0.00  0.00    +0.011 C 
ATOM     19  H   UNL     1      -0.475   5.908   0.076  0.00  0.00    +0.153 HD
ATOM     20  H   UNL     1      -2.041   2.554   4.575  0.00  0.00    +0.171 HD
ENDROOT
BRANCH   8  21
ATOM     21  C   UNL     1      -0.017   1.378   0.010  0.00  0.00    -0.032 A 
ATOM     22  C   UNL     1       1.169   2.089   0.002  0.00  0.00    +0.008 A 
ATOM     23  C   UNL     1       2.379   1.420  -0.013  0.00  0.00    +0.049 A 
ATOM     24  C   UNL     1       2.405   0.035  -0.021  0.00  0.00    +0.158 A 
ATOM     25  C   UNL     1       1.211  -0.680  -0.013  0.00  0.00    +0.162 A 
ATOM     26  C   UNL     1       0.002  -0.004   0.002  0.00  0.00    +0.054 A 
BRANCH  25  27
ATOM     27  O   UNL     1       1.232  -2.040  -0.021  0.00  0.00    -0.491 OA
ATOM     28  C   UNL     1      -0.032  -2.708  -0.013  0.00  0.00    +0.277 C 
ENDBRANCH  25  27
BRANCH  24  29
ATOM     29  O   UNL     1       3.594  -0.625  -0.036  0.00  0.00    -0.503 OA
ATOM     30  H   UNL     1       3.613  -1.724  -0.042  0.00  0.00    +0.292 HD
ENDBRANCH  24  29
ENDBRANCH   8  21
BRANCH   1  31
ATOM     31  S   UNL     1      -1.714   5.283   5.077  0.00  0.00    -0.085 S 
BRANCH  31  33
ATOM     32  C   UNL     1      -0.928   2.989   6.336  0.00  0.00    +0.019 C 
ATOM     33  C   UNL     1      -2.107   3.960   6.248  0.00  0.00    +0.048 C 
ATOM     34  C   UNL     1      -2.374   4.563   7.628  0.00  0.00    +0.019 C 
ENDBRANCH  31  33
ENDBRANCH   1  31
TORSDOF 5
