REMARK  Name = ZINC16345556
REMARK  5 active torsions:
REMARK  status: ('A' for Active; 'I' for Inactive)
REMARK    1  A    between atoms: C_1  and  C_2
REMARK    2  A    between atoms: C_5  and  C_8
REMARK    3  A    between atoms: C_8  and  S_9
REMARK    4  A    between atoms: S_9  and  C_10
REMARK    5  A    between atoms: C_21  and  C_23
REMARK                            x       y       z     vdW  Elec       q    Type
REMARK                         _______ _______ _______ _____ _____    ______ ____
ROOT
ATOM      1  C   UNL     1       1.708   2.135  -0.003  0.00  0.00    +0.171 A 
ATOM      2  N   UNL     1       2.142   3.427  -0.006  0.00  0.00    -0.302 N 
ATOM      3  H   UNL     1       1.498   4.153  -0.001  0.00  0.00    +0.171 HD
ATOM      4  C   UNL     1       3.464   3.698  -0.010  0.00  0.00    +0.258 A 
ATOM      5  O   UNL     1       3.862   4.852  -0.008  0.00  0.00    -0.267 OA
ATOM      6  C   UNL     1       4.370   2.631  -0.023  0.00  0.00    +0.069 A 
ATOM      7  C   UNL     1       3.878   1.337  -0.027  0.00  0.00    +0.135 A 
ATOM      8  N   UNL     1       2.557   1.127  -0.016  0.00  0.00    -0.208 NA
ATOM      9  N   UNL     1       4.756   0.272  -0.047  0.00  0.00    -0.302 N 
ATOM     10  C   UNL     1       6.051   0.445  -0.453  0.00  0.00    +0.017 C 
ATOM     11  C   UNL     1       6.616   1.670  -0.467  0.00  0.00    +0.024 C 
ATOM     12  C   UNL     1       5.847   2.891  -0.029  0.00  0.00    +0.092 C 
ATOM     13  C   UNL     1       7.947   1.849  -0.885  0.00  0.00    +0.162 C 
ATOM     14  O   UNL     1       8.419   2.969  -0.908  0.00  0.00    -0.292 OA
ATOM     15  C   UNL     1       8.797   0.682  -1.306  0.00  0.00    +0.080 C 
ATOM     16  C   UNL     1       8.313  -0.575  -0.575  0.00  0.00    +0.014 C 
ATOM     17  C   UNL     1       6.829  -0.774  -0.889  0.00  0.00    +0.051 C 
ATOM     18  H   UNL     1       4.452  -0.607   0.231  0.00  0.00    +0.153 HD
ENDROOT
BRANCH  12  19
ATOM     19  C   UNL     1       6.285   3.279   1.359  0.00  0.00    -0.035 A 
ATOM     20  C   UNL     1       6.129   2.391   2.407  0.00  0.00    +0.006 A 
ATOM     21  C   UNL     1       6.536   2.744   3.679  0.00  0.00    +0.020 A 
ATOM     22  C   UNL     1       7.090   3.992   3.907  0.00  0.00    +0.041 A 
ATOM     23  C   UNL     1       7.242   4.882   2.859  0.00  0.00    +0.020 A 
ATOM     24  C   UNL     1       6.839   4.525   1.585  0.00  0.00    +0.006 A 
ATOM     25 CL   UNL     1       7.595   4.439   5.506  0.00  0.00    -0.084 Cl
ENDBRANCH  12  19
BRANCH   1  26
ATOM     26  S   UNL     1      -0.022   1.806   0.012  0.00  0.00    -0.083 S 
BRANCH  26  27
ATOM     27  C   UNL     1       0.002  -0.004   0.002  0.00  0.00    +0.112 C 
BRANCH  27  32
ATOM     28  C   UNL     1      -5.419  -2.005   0.043  0.00  0.00    +0.044 C 
ATOM     29  C   UNL     1      -4.005  -1.483   0.032  0.00  0.00    -0.050 A 
ATOM     30  C   UNL     1      -3.369  -1.237  -1.170  0.00  0.00    +0.003 A 
ATOM     31  C   UNL     1      -2.072  -0.758  -1.179  0.00  0.00    +0.005 A 
ATOM     32  C   UNL     1      -1.412  -0.526   0.013  0.00  0.00    -0.037 A 
ATOM     33  C   UNL     1      -2.047  -0.777   1.215  0.00  0.00    +0.005 A 
ATOM     34  C   UNL     1      -3.345  -1.251   1.224  0.00  0.00    +0.003 A 
ENDBRANCH  27  32
ENDBRANCH  26  27
ENDBRANCH   1  26
TORSDOF 4
