REMARK  Name = ZINC59039081
REMARK  8 active torsions:
REMARK  status: ('A' for Active; 'I' for Inactive)
REMARK    1  A    between atoms: C_1  and  C_2
REMARK    2  A    between atoms: C_2  and  C_4
REMARK    3  A    between atoms: C_2  and  N_11
REMARK    4  A    between atoms: N_9  and  C_10
REMARK    5  A    between atoms: N_14  and  C_17
REMARK    6  A    between atoms: C_17  and  C_18
REMARK    7  A    between atoms: C_21  and  C_23
REMARK    8  A    between atoms: C_28  and  N_29
REMARK                            x       y       z     vdW  Elec       q    Type
REMARK                         _______ _______ _______ _____ _____    ______ ____
ROOT
ATOM      1  N   UNL     1      -1.267  -0.587  -0.453  0.00  0.00    -0.289 NA
ATOM      2  C   UNL     1      -1.210  -2.055  -0.433  0.00  0.00    +0.100 C 
ATOM      3  C   UNL     1      -2.520  -2.621  -0.988  0.00  0.00    +0.100 C 
ATOM      4  N   UNL     1      -3.644  -2.129  -0.180  0.00  0.00    -0.295 NA
ATOM      5  C   UNL     1      -3.701  -0.661  -0.200  0.00  0.00    +0.100 C 
ATOM      6  C   UNL     1      -2.392  -0.095   0.355  0.00  0.00    +0.100 C 
ENDROOT
BRANCH   1   8
ATOM      7  C   UNL     1       0.101  -0.124   1.524  0.00  0.00    +0.034 C 
ATOM      8  C   UNL     1       0.002  -0.004   0.002  0.00  0.00    +0.140 C 
BRANCH   8   9
ATOM      9  C   UNL     1       0.058   1.449  -0.392  0.00  0.00    +0.237 C 
ATOM     10  O   UNL     1      -0.951   2.021  -0.744  0.00  0.00    -0.274 OA
ATOM     11  N   UNL     1       1.230   2.113  -0.354  0.00  0.00    -0.239 N 
ATOM     12  C   UNL     1       1.280   3.413  -0.707  0.00  0.00    +0.306 C 
ATOM     13  O   UNL     1       0.268   3.986  -1.060  0.00  0.00    -0.252 OA
ATOM     14  N   UNL     1       2.452   4.077  -0.668  0.00  0.00    -0.302 N 
ATOM     15  C   UNL     1       2.507   5.490  -1.052  0.00  0.00    +0.129 C 
ATOM     16  H   UNL     1       2.038   1.656  -0.072  0.00  0.00    +0.159 HD
ATOM     17  H   UNL     1       3.260   3.620  -0.387  0.00  0.00    +0.150 HD
ENDBRANCH   8   9
ENDBRANCH   1   8
BRANCH   4  18
ATOM     18  C   UNL     1      -4.914  -2.712  -0.635  0.00  0.00    +0.127 C 
BRANCH  18  19
ATOM     19  C   UNL     1      -6.001  -2.385   0.356  0.00  0.00    +0.004 A 
ATOM     20  C   UNL     1      -6.837  -1.315   0.384  0.00  0.00    +0.013 A 
ATOM     21  C   UNL     1      -7.768  -1.217   1.395  0.00  0.00    +0.016 A 
ATOM     22  C   UNL     1      -7.818  -2.205   2.342  0.00  0.00    +0.022 A 
ATOM     23  S   UNL     1      -6.526  -3.307   1.792  0.00  0.00    -0.092 S 
BRANCH  22  24
ATOM     24  C   UNL     1      -8.714  -2.330   3.511  0.00  0.00    +0.019 A 
ATOM     25  C   UNL     1      -8.877  -1.256   4.387  0.00  0.00    +0.011 A 
ATOM     26  C   UNL     1      -9.714  -1.379   5.476  0.00  0.00    +0.001 A 
ATOM     27  C   UNL     1     -10.391  -2.564   5.702  0.00  0.00    +0.002 A 
ATOM     28  C   UNL     1     -10.234  -3.633   4.838  0.00  0.00    +0.033 A 
ATOM     29  C   UNL     1      -9.404  -3.521   3.741  0.00  0.00    +0.134 A 
BRANCH  29  30
ATOM     30  N   UNL     1      -9.242  -4.663   2.813  0.00  0.00    +0.057 N 
ATOM     31  O   UNL     1      -9.841  -5.694   3.014  0.00  0.00    -0.126 OA
ATOM     32  O   UNL     1      -8.511  -4.565   1.856  0.00  0.00    -0.126 OA
ENDBRANCH  29  30
ENDBRANCH  22  24
ENDBRANCH  18  19
ENDBRANCH   4  18
TORSDOF 6
