REMARK  Name = ZINC24725808
REMARK  13 active torsions:
REMARK  status: ('A' for Active; 'I' for Inactive)
REMARK    1  A    between atoms: C_1  and  C_2
REMARK    2  A    between atoms: C_2  and  O_3
REMARK    3  A    between atoms: O_3  and  C_4
REMARK    4  A    between atoms: C_4  and  C_6
REMARK    5  A    between atoms: C_7  and  C_22
REMARK    6  A    between atoms: C_12  and  C_14
REMARK    7  A    between atoms: C_17  and  O_20
REMARK    8  A    between atoms: O_20  and  C_21
REMARK    9  A    between atoms: C_22  and  O_23
REMARK   10  A    between atoms: O_23  and  C_24
REMARK   11  A    between atoms: C_24  and  C_26
REMARK   12  A    between atoms: C_29  and  N_33
REMARK   13  A    between atoms: C_31  and  N_32
REMARK                            x       y       z     vdW  Elec       q    Type
REMARK                         _______ _______ _______ _____ _____    ______ ____
ROOT
ATOM      1  C   UNL     1       1.205  -2.267  -2.486  0.00  0.00    +0.081 C 
ATOM      2  C   UNL     1       1.529  -3.573  -2.592  0.00  0.00    +0.061 C 
ATOM      3  N   UNL     1       2.253  -4.036  -3.654  0.00  0.00    -0.269 N 
ATOM      4  C   UNL     1       2.689  -3.256  -4.651  0.00  0.00    +0.304 C 
ATOM      5  O   UNL     1       3.327  -3.760  -5.555  0.00  0.00    -0.252 OA
ATOM      6  N   UNL     1       2.445  -1.931  -4.685  0.00  0.00    -0.288 N 
ATOM      7  C   UNL     1       1.666  -1.334  -3.587  0.00  0.00    +0.144 C 
ATOM      8  H   UNL     1       2.462  -4.982  -3.688  0.00  0.00    +0.156 HD
ATOM      9  H   UNL     1       2.771  -1.385  -5.417  0.00  0.00    +0.151 HD
ENDROOT
BRANCH   7  10
ATOM     10  C   UNL     1       2.509  -0.254  -2.959  0.00  0.00    -0.022 A 
ATOM     11  C   UNL     1       3.832  -0.506  -2.647  0.00  0.00    +0.009 A 
ATOM     12  C   UNL     1       4.607   0.481  -2.071  0.00  0.00    +0.046 A 
ATOM     13  C   UNL     1       4.057   1.727  -1.806  0.00  0.00    +0.120 A 
ATOM     14  C   UNL     1       2.730   1.978  -2.121  0.00  0.00    +0.046 A 
ATOM     15  C   UNL     1       1.960   0.988  -2.701  0.00  0.00    +0.009 A 
BRANCH  13  16
ATOM     16  O   UNL     1       4.818   2.700  -1.239  0.00  0.00    -0.495 OA
ATOM     17  C   UNL     1       4.185   3.958  -0.995  0.00  0.00    +0.277 C 
ENDBRANCH  13  16
ENDBRANCH   7  10
BRANCH   1  18
ATOM     18  C   UNL     1       0.455  -1.786  -1.387  0.00  0.00    +0.339 C 
ATOM     19  O   UNL     1      -0.721  -1.506  -1.528  0.00  0.00    -0.245 OA
BRANCH  18  20
ATOM     20  O   UNL     1       1.044  -1.638  -0.181  0.00  0.00    -0.462 OA
BRANCH  20  22
ATOM     21  C   UNL     1       1.062  -1.048   2.162  0.00  0.00    +0.048 C 
ATOM     22  C   UNL     1       0.227  -1.149   0.884  0.00  0.00    +0.229 C 
ENDBRANCH  20  22
ENDBRANCH  18  20
ENDBRANCH   1  18
BRANCH   2  23
ATOM     23  C   UNL     1       1.086  -4.536  -1.521  0.00  0.00    +0.283 C 
BRANCH  23  24
ATOM     24  O   UNL     1       0.154  -5.467  -2.074  0.00  0.00    -0.455 OA
BRANCH  24  25
ATOM     25  C   UNL     1      -0.343  -6.404  -1.241  0.00  0.00    +0.341 C 
ATOM     26  O   UNL     1       0.006  -6.428  -0.077  0.00  0.00    -0.245 OA
BRANCH  25  27
ATOM     27  C   UNL     1      -1.309  -7.396  -1.742  0.00  0.00    +0.080 A 
ATOM     28  C   UNL     1      -1.619  -7.452  -3.103  0.00  0.00    +0.019 A 
ATOM     29  C   UNL     1      -2.524  -8.382  -3.565  0.00  0.00    +0.033 A 
ATOM     30  C   UNL     1      -3.129  -9.267  -2.686  0.00  0.00    +0.128 A 
ATOM     31  C   UNL     1      -2.834  -9.225  -1.339  0.00  0.00    +0.056 A 
ATOM     32  C   UNL     1      -1.920  -8.297  -0.855  0.00  0.00    +0.041 A 
BRANCH  32  33
ATOM     33  N   UNL     1      -1.616  -8.258   0.499  0.00  0.00    -0.357 N 
ATOM     34  H   UNL     1      -0.920  -7.665   0.823  0.00  0.00    +0.142 HD
ATOM     35  H   UNL     1      -2.100  -8.823   1.122  0.00  0.00    +0.142 HD
ENDBRANCH  32  33
BRANCH  30  36
ATOM     36  N   UNL     1      -4.099 -10.261  -3.195  0.00  0.00    +0.056 N 
ATOM     37  O   UNL     1      -4.362 -10.301  -4.375  0.00  0.00    -0.126 OA
ATOM     38  O   UNL     1      -4.630 -11.035  -2.432  0.00  0.00    -0.126 OA
ENDBRANCH  30  36
ENDBRANCH  25  27
ENDBRANCH  24  25
ENDBRANCH  23  24
ENDBRANCH   2  23
TORSDOF 11
