REMARK  Name = ZINC10127135
REMARK  8 active torsions:
REMARK  status: ('A' for Active; 'I' for Inactive)
REMARK    1  A    between atoms: C_1  and  O_2
REMARK    2  A    between atoms: O_2  and  C_3
REMARK    3  A    between atoms: C_8  and  N_9
REMARK    4  A    between atoms: N_9  and  S_10
REMARK    5  A    between atoms: S_10  and  C_13
REMARK    6  A    between atoms: C_16  and  O_32
REMARK    7  A    between atoms: C_17  and  N_19
REMARK    8  A    between atoms: C_20  and  C_22
REMARK                            x       y       z     vdW  Elec       q    Type
REMARK                         _______ _______ _______ _____ _____    ______ ____
ROOT
ATOM      1  C   UNL     1      -2.361  -0.221   2.462  0.00  0.00    +0.110 A 
ATOM      2  C   UNL     1      -3.499  -0.002   3.216  0.00  0.00    +0.032 A 
ATOM      3  C   UNL     1      -3.401   0.207   4.579  0.00  0.00    +0.049 A 
ATOM      4  C   UNL     1      -2.159   0.198   5.193  0.00  0.00    +0.138 A 
ATOM      5  C   UNL     1      -1.012  -0.022   4.435  0.00  0.00    +0.077 A 
ATOM      6  C   UNL     1      -1.119  -0.236   3.068  0.00  0.00    +0.055 A 
ENDROOT
BRANCH   5   7
ATOM      7  N   UNL     1       0.247  -0.032   5.051  0.00  0.00    -0.282 N 
ATOM      8  C   UNL     1       1.272  -0.693   4.479  0.00  0.00    +0.231 C 
ATOM      9  O   UNL     1       1.083  -1.360   3.483  0.00  0.00    -0.274 OA
ATOM     10  H   UNL     1       0.380   0.437   5.889  0.00  0.00    +0.155 HD
BRANCH   8  11
ATOM     11  C   UNL     1       2.653  -0.605   5.075  0.00  0.00    +0.142 C 
ATOM     12  C   UNL     1       3.533  -1.798   4.640  0.00  0.00    +0.060 C 
ATOM     13  C   UNL     1       4.310  -1.492   3.383  0.00  0.00    -0.032 A 
ATOM     14  C   UNL     1       4.891  -2.421   2.516  0.00  0.00    +0.005 A 
ATOM     15  C   UNL     1       5.606  -2.014   1.413  0.00  0.00    +0.000 A 
ATOM     16  C   UNL     1       5.771  -0.670   1.130  0.00  0.00    +0.001 A 
ATOM     17  C   UNL     1       5.200   0.267   1.970  0.00  0.00    +0.015 A 
ATOM     18  C   UNL     1       4.478  -0.144   3.075  0.00  0.00    +0.012 A 
ATOM     19  S   UNL     1       3.618   0.775   4.332  0.00  0.00    -0.112 S 
ENDBRANCH   8  11
ENDBRANCH   5   7
BRANCH   1  20
ATOM     20  S   UNL     1      -2.494  -0.487   0.725  0.00  0.00    +0.073 S 
ATOM     21  O   UNL     1      -3.808  -0.972   0.488  0.00  0.00    -0.150 OA
ATOM     22  O   UNL     1      -1.334  -1.209   0.335  0.00  0.00    -0.150 OA
BRANCH  20  23
ATOM     23  N   UNL     1      -2.397   0.996  -0.006  0.00  0.00    -0.213 N 
ATOM     24  H   UNL     1      -3.134   1.318  -0.548  0.00  0.00    +0.174 HD
BRANCH  23  30
ATOM     25  C   UNL     1      -1.364   3.169   0.246  0.00  0.00    +0.142 A 
ATOM     26  C   UNL     1      -0.226   3.944   0.401  0.00  0.00    +0.047 A 
ATOM     27  C   UNL     1       1.016   3.342   0.474  0.00  0.00    +0.004 A 
ATOM     28  C   UNL     1       1.128   1.966   0.393  0.00  0.00    +0.002 A 
ATOM     29  C   UNL     1      -0.002   1.186   0.238  0.00  0.00    +0.028 A 
ATOM     30  C   UNL     1      -1.252   1.784   0.158  0.00  0.00    +0.090 A 
BRANCH  25  32
ATOM     31  C   UNL     1      -2.625   5.186   0.265  0.00  0.00    +0.277 C 
ATOM     32  O   UNL     1      -2.587   3.760   0.174  0.00  0.00    -0.493 OA
ENDBRANCH  25  32
ENDBRANCH  23  30
ENDBRANCH  20  23
ENDBRANCH   1  20
BRANCH   4  33
ATOM     33  O   UNL     1      -2.061   0.405   6.534  0.00  0.00    -0.505 OA
ATOM     34  H   UNL     1      -2.107  -0.405   7.061  0.00  0.00    +0.292 HD
ENDBRANCH   4  33
TORSDOF 7
