REMARK  Name = ZINC28606534
REMARK  7 active torsions:
REMARK  status: ('A' for Active; 'I' for Inactive)
REMARK    1  A    between atoms: C_1  and  C_2
REMARK    2  A    between atoms: C_2  and  N_3
REMARK    3  A    between atoms: C_13  and  S_14
REMARK    4  A    between atoms: S_14  and  C_15
REMARK    5  A    between atoms: C_15  and  C_16
REMARK    6  A    between atoms: N_18  and  C_19
REMARK    7  A    between atoms: C_22  and  N_26
REMARK                            x       y       z     vdW  Elec       q    Type
REMARK                         _______ _______ _______ _____ _____    ______ ____
ROOT
ATOM      1  C   UNL     1      -3.801  -1.496   0.051  0.00  0.00    +0.173 C 
ENDROOT
BRANCH   1   2
ATOM      2  C   UNL     1      -5.219  -2.006   0.051  0.00  0.00    +0.228 C 
ATOM      3  O   UNL     1      -5.435  -3.199   0.043  0.00  0.00    -0.275 OA
ATOM      4  N   UNL     1      -6.248  -1.135   0.060  0.00  0.00    -0.284 N 
ATOM      5  H   UNL     1      -6.054  -0.055   0.141  0.00  0.00    +0.155 HD
BRANCH   4   6
ATOM      6  C   UNL     1      -7.563  -1.605  -0.035  0.00  0.00    +0.048 A 
ATOM      7  C   UNL     1      -7.915  -2.812   0.553  0.00  0.00    +0.026 A 
ATOM      8  C   UNL     1      -9.213  -3.273   0.458  0.00  0.00    +0.034 A 
ATOM      9  C   UNL     1     -10.163  -2.533  -0.222  0.00  0.00    +0.127 A 
ATOM     10  C   UNL     1      -9.817  -1.330  -0.810  0.00  0.00    +0.049 A 
ATOM     11  C   UNL     1      -8.521  -0.861  -0.714  0.00  0.00    +0.041 A 
ATOM     12 BR   UNL     1      -8.049   0.788  -1.510  0.00  0.00    -0.048 Br
BRANCH   9  13
ATOM     13  N   UNL     1     -11.554  -3.030  -0.321  0.00  0.00    +0.056 N 
ATOM     14  O   UNL     1     -11.861  -4.089   0.196  0.00  0.00    -0.126 OA
ATOM     15  O   UNL     1     -12.392  -2.379  -0.920  0.00  0.00    -0.126 OA
ENDBRANCH   9  13
ENDBRANCH   4   6
ENDBRANCH   1   2
BRANCH   1  16
ATOM     16  S   UNL     1      -2.656  -2.899   0.038  0.00  0.00    -0.078 S 
BRANCH  16  27
ATOM     17  N   UNL     1       0.036  -2.768   0.032  0.00  0.00    -0.288 N 
ATOM     18  C   UNL     1       1.239  -2.149   0.033  0.00  0.00    +0.262 A 
ATOM     19  O   UNL     1       2.277  -2.785   0.027  0.00  0.00    -0.267 OA
ATOM     20  C   UNL     1       1.246  -0.680   0.043  0.00  0.00    +0.065 A 
ATOM     21  C   UNL     1       2.433   0.051   0.046  0.00  0.00    +0.015 A 
ATOM     22  C   UNL     1       2.382   1.418   0.056  0.00  0.00    +0.001 A 
ATOM     23  C   UNL     1       1.163   2.083   0.064  0.00  0.00    +0.002 A 
ATOM     24  C   UNL     1      -0.016   1.391   0.061  0.00  0.00    +0.028 A 
ATOM     25  C   UNL     1       0.003  -0.007   0.051  0.00  0.00    +0.079 A 
ATOM     26  N   UNL     1      -1.136  -0.728   0.048  0.00  0.00    -0.223 NA
ATOM     27  C   UNL     1      -1.119  -2.038   0.040  0.00  0.00    +0.173 A 
BRANCH  17  29
ATOM     28  C   UNL     1      -0.049  -4.751   1.461  0.00  0.00    +0.027 C 
ATOM     29  C   UNL     1      -0.029  -4.232   0.022  0.00  0.00    +0.124 C 
ENDBRANCH  17  29
ENDBRANCH  16  27
ENDBRANCH   1  16
TORSDOF 6
