REMARK  Name = ZINC27753920
REMARK  6 active torsions:
REMARK  status: ('A' for Active; 'I' for Inactive)
REMARK    1  A    between atoms: C_1  and  C_2
REMARK    2  A    between atoms: C_5  and  C_8
REMARK    3  A    between atoms: C_8  and  O_32
REMARK    4  A    between atoms: C_9  and  C_26
REMARK    5  A    between atoms: C_11  and  C_17
REMARK    6  A    between atoms: C_26  and  C_28
REMARK                            x       y       z     vdW  Elec       q    Type
REMARK                         _______ _______ _______ _____ _____    ______ ____
ROOT
ATOM      1  C   UNL     1      -2.538  -4.944   2.259  0.00  0.00    +0.172 C 
ATOM      2  C   UNL     1      -1.519  -3.834   1.979  0.00  0.00    +0.144 C 
ATOM      3  C   UNL     1      -1.754  -3.302   0.561  0.00  0.00    +0.120 C 
ATOM      4  N   UNL     1      -1.689  -4.415  -0.387  0.00  0.00    -0.292 N 
ATOM      5  C   UNL     1      -2.027  -5.662  -0.024  0.00  0.00    +0.302 C 
ATOM      6  O   UNL     1      -1.966  -6.548  -0.853  0.00  0.00    -0.253 OA
ATOM      7  N   UNL     1      -2.431  -5.968   1.218  0.00  0.00    -0.267 N 
ATOM      8  H   UNL     1      -1.358  -4.239  -1.421  0.00  0.00    +0.151 HD
ATOM      9  H   UNL     1      -2.683  -7.014   1.448  0.00  0.00    +0.153 HD
ENDROOT
BRANCH   3  10
ATOM     10  C   UNL     1      -0.692  -2.288   0.221  0.00  0.00    -0.023 A 
ATOM     11  C   UNL     1       0.561  -2.711  -0.182  0.00  0.00    +0.009 A 
ATOM     12  C   UNL     1       1.538  -1.785  -0.495  0.00  0.00    +0.050 A 
ATOM     13  C   UNL     1       1.264  -0.430  -0.404  0.00  0.00    +0.166 A 
ATOM     14  C   UNL     1       0.002  -0.004   0.002  0.00  0.00    +0.167 A 
ATOM     15  C   UNL     1      -0.973  -0.938   0.314  0.00  0.00    +0.055 A 
ATOM     16  O   UNL     1      -0.016   1.361   0.009  0.00  0.00    -0.453 OA
ATOM     17  C   UNL     1       1.366   1.764  -0.002  0.00  0.00    +0.466 C 
ATOM     18  O   UNL     1       2.037   0.668  -0.651  0.00  0.00    -0.453 OA
ENDBRANCH   3  10
BRANCH   1  23
ATOM     19  C   UNL     1      -7.871  -2.717   2.240  0.00  0.00    +0.044 C 
ATOM     20  C   UNL     1      -6.481  -3.298   2.245  0.00  0.00    -0.050 A 
ATOM     21  C   UNL     1      -5.968  -3.875   1.098  0.00  0.00    +0.004 A 
ATOM     22  C   UNL     1      -4.692  -4.407   1.102  0.00  0.00    +0.008 A 
ATOM     23  C   UNL     1      -3.929  -4.363   2.254  0.00  0.00    +0.003 A 
ATOM     24  C   UNL     1      -4.444  -3.792   3.402  0.00  0.00    +0.008 A 
ATOM     25  C   UNL     1      -5.718  -3.255   3.397  0.00  0.00    +0.004 A 
ENDBRANCH   1  23
BRANCH   2  26
ATOM     26  C   UNL     1      -0.123  -4.391   2.085  0.00  0.00    +0.245 C 
ATOM     27  O   UNL     1       0.084  -5.554   1.833  0.00  0.00    -0.287 OA
BRANCH  26  28
ATOM     28  C   UNL     1       1.015  -3.497   2.506  0.00  0.00    +0.451 C 
ATOM     29  F   UNL     1       1.976  -3.457   1.490  0.00  0.00    -0.163 F 
ATOM     30  F   UNL     1       0.531  -2.205   2.741  0.00  0.00    -0.163 F 
ATOM     31  F   UNL     1       1.594  -3.998   3.676  0.00  0.00    -0.163 F 
ENDBRANCH  26  28
ENDBRANCH   2  26
BRANCH   1  32
ATOM     32  O   UNL     1      -2.269  -5.529   3.534  0.00  0.00    -0.367 OA
ATOM     33  H   UNL     1      -1.297  -6.005   3.727  0.00  0.00    +0.212 HD
ENDBRANCH   1  32
TORSDOF 5
