REMARK  Name = ZINC06195649
REMARK  10 active torsions:
REMARK  status: ('A' for Active; 'I' for Inactive)
REMARK    1  A    between atoms: C_1  and  C_2
REMARK    2  A    between atoms: C_5  and  C_41
REMARK    3  A    between atoms: C_6  and  N_8
REMARK    4  A    between atoms: C_13  and  C_15
REMARK    5  A    between atoms: C_13  and  C_29
REMARK    6  A    between atoms: C_13  and  N_76
REMARK    7  A    between atoms: C_18  and  C_28
REMARK    8  A    between atoms: C_21  and  C_27
REMARK    9  A    between atoms: N_33  and  C_34
REMARK   10  A    between atoms: C_34  and  C_35
REMARK                            x       y       z     vdW  Elec       q    Type
REMARK                         _______ _______ _______ _____ _____    ______ ____
ROOT
ATOM      1  C   UNL     1       2.862   4.731   1.950  0.00  0.00    +0.039 C 
ENDROOT
BRANCH   1   2
ATOM      2  C   UNL     1       3.002   3.944   3.227  0.00  0.00    +0.011 A 
ATOM      3  C   UNL     1       3.764   2.823   3.250  0.00  0.00    +0.018 A 
ATOM      4  C   UNL     1       3.880   2.081   4.507  0.00  0.00    +0.002 A 
ATOM      5  C   UNL     1       4.652   0.918   4.593  0.00  0.00    -0.041 A 
ATOM      6  C   UNL     1       4.740   0.249   5.780  0.00  0.00    +0.004 A 
ATOM      7  C   UNL     1       4.070   0.714   6.904  0.00  0.00    +0.005 A 
ATOM      8  C   UNL     1       3.304   1.858   6.843  0.00  0.00    -0.026 A 
ATOM      9  C   UNL     1       3.199   2.556   5.644  0.00  0.00    +0.052 A 
ATOM     10  N   UNL     1       2.441   3.703   5.555  0.00  0.00    -0.322 N 
ATOM     11  H   UNL     1       1.972   4.029   6.340  0.00  0.00    +0.169 HD
ATOM     12  C   UNL     1       2.345   4.380   4.397  0.00  0.00    +0.251 A 
ATOM     13  O   UNL     1       1.669   5.394   4.356  0.00  0.00    -0.268 OA
ATOM     14  C   UNL     1       2.583   2.352   8.071  0.00  0.00    +0.046 C 
ATOM     15  C   UNL     1       5.384   0.405   3.379  0.00  0.00    +0.044 C 
ENDBRANCH   1   2
BRANCH   1  21
ATOM     16  N   UNL     1       4.729   8.517   1.800  0.00  0.00    -0.333 N 
ATOM     17  C   UNL     1       4.915   7.705   3.011  0.00  0.00    +0.086 C 
ATOM     18  C   UNL     1       4.603   6.241   2.693  0.00  0.00    -0.058 C 
ATOM     19  C   UNL     1       3.039   6.944   0.984  0.00  0.00    -0.058 C 
ATOM     20  C   UNL     1       3.351   8.409   1.303  0.00  0.00    +0.086 C 
ATOM     21  N   UNL     1       3.208   6.143   2.215  0.00  0.00    +0.391 N 
ATOM     22  H   UNL     1       2.580   6.510   2.940  0.00  0.00    -0.080 HD
BRANCH  16  28
ATOM     23  C   UNL     1       3.898  12.751   4.151  0.00  0.00    +0.044 C 
ATOM     24  C   UNL     1       4.689  11.927   3.168  0.00  0.00    -0.049 A 
ATOM     25  C   UNL     1       5.757  12.491   2.495  0.00  0.00    +0.004 A 
ATOM     26  C   UNL     1       6.485  11.739   1.593  0.00  0.00    +0.005 A 
ATOM     27  C   UNL     1       6.147  10.420   1.359  0.00  0.00    -0.029 A 
ATOM     28  C   UNL     1       5.074   9.850   2.034  0.00  0.00    +0.033 A 
ATOM     29  C   UNL     1       4.342  10.611   2.937  0.00  0.00    +0.026 A 
ATOM     30  C   UNL     1       6.941   9.600   0.375  0.00  0.00    +0.045 C 
ENDBRANCH  16  28
ENDBRANCH   1  21
BRANCH   1  31
ATOM     31  C   UNL     1       1.435   4.658   1.469  0.00  0.00    +0.143 A 
ATOM     32  N   UNL     1       0.406   5.296   1.971  0.00  0.00    -0.115 NA
ATOM     33  N   UNL     1      -0.636   4.971   1.287  0.00  0.00    -0.023 NA
ATOM     34  N   UNL     1      -0.298   4.146   0.359  0.00  0.00    -0.044 NA
ATOM     35  N   UNL     1       0.970   3.923   0.441  0.00  0.00    -0.228 N 
BRANCH  35  36
ATOM     36  C   UNL     1       1.757   3.042  -0.424  0.00  0.00    +0.178 C 
BRANCH  36  37
ATOM     37  C   UNL     1       1.785   1.633   0.172  0.00  0.00    +0.140 C 
ATOM     38  C   UNL     1       2.623   0.680  -0.717  0.00  0.00    +0.035 C 
ATOM     39  C   UNL     1       2.030  -0.704  -0.357  0.00  0.00    +0.031 C 
ATOM     40  C   UNL     1       0.642  -0.380   0.228  0.00  0.00    +0.160 C 
ATOM     41  O   UNL     1       0.467   1.044   0.149  0.00  0.00    -0.375 OA
ENDBRANCH  36  37
ENDBRANCH  35  36
ENDBRANCH   1  31
TORSDOF 6
