REMARK  Name = ZINC41586336
REMARK  9 active torsions:
REMARK  status: ('A' for Active; 'I' for Inactive)
REMARK    1  A    between atoms: C_1  and  C_2
REMARK    2  A    between atoms: C_2  and  O_3
REMARK    3  A    between atoms: O_3  and  C_4
REMARK    4  A    between atoms: C_4  and  C_6
REMARK    5  A    between atoms: N_11  and  C_13
REMARK    6  A    between atoms: C_13  and  C_14
REMARK    7  A    between atoms: C_15  and  O_34
REMARK    8  A    between atoms: C_17  and  C_33
REMARK    9  A    between atoms: C_22  and  C_23
REMARK                            x       y       z     vdW  Elec       q    Type
REMARK                         _______ _______ _______ _____ _____    ______ ____
ROOT
ATOM      1  C   UNL     1      -5.916  -5.734   0.140  0.00  0.00    +0.020 A 
ATOM      2  C   UNL     1      -6.551  -5.799   1.370  0.00  0.00    +0.122 A 
ATOM      3  C   UNL     1      -7.774  -6.451   1.503  0.00  0.00    +0.050 A 
ATOM      4  C   UNL     1      -8.361  -7.035   0.416  0.00  0.00    -0.033 A 
ATOM      5  C   UNL     1      -7.734  -6.977  -0.829  0.00  0.00    +0.071 A 
ATOM      6  C   UNL     1      -6.503  -6.317  -0.976  0.00  0.00    +0.145 A 
ATOM      7  O   UNL     1      -6.100  -6.387  -2.263  0.00  0.00    -0.451 OA
ATOM      8  C   UNL     1      -6.988  -7.058  -3.033  0.00  0.00    +0.176 C 
ATOM      9  C   UNL     1      -6.874  -7.299  -4.364  0.00  0.00    +0.059 C 
ATOM     10  C   UNL     1      -8.092  -7.491  -2.163  0.00  0.00    +0.232 C 
ATOM     11  O   UNL     1      -9.086  -8.121  -2.478  0.00  0.00    -0.283 OA
ATOM     12  C   UNL     1      -9.685  -7.740   0.562  0.00  0.00    +0.045 C 
ENDROOT
BRANCH   9  13
ATOM     13  C   UNL     1      -5.763  -6.711  -5.124  0.00  0.00    -0.003 A 
ATOM     14  C   UNL     1      -4.638  -6.213  -4.456  0.00  0.00    +0.011 A 
ATOM     15  C   UNL     1      -3.601  -5.663  -5.176  0.00  0.00    +0.020 A 
ATOM     16  C   UNL     1      -3.668  -5.600  -6.559  0.00  0.00    +0.042 A 
ATOM     17  C   UNL     1      -4.777  -6.089  -7.229  0.00  0.00    +0.040 A 
ATOM     18  C   UNL     1      -5.822  -6.649  -6.523  0.00  0.00    +0.050 A 
ATOM     19 CL   UNL     1      -7.208  -7.269  -7.364  0.00  0.00    -0.083 Cl
ATOM     20 CL   UNL     1      -2.356  -4.903  -7.457  0.00  0.00    -0.083 Cl
ENDBRANCH   9  13
BRANCH   2  21
ATOM     21  O   UNL     1      -5.975  -5.222   2.455  0.00  0.00    -0.506 OA
ATOM     22  H   UNL     1      -6.230  -4.299   2.592  0.00  0.00    +0.292 HD
ENDBRANCH   2  21
BRANCH   1  23
ATOM     23  C   UNL     1      -4.593  -5.025   0.011  0.00  0.00    -0.036 C 
BRANCH  23  28
ATOM     24  C   UNL     1      -3.786  -1.402  -0.547  0.00  0.00    +0.081 C 
ATOM     25  C   UNL     1      -4.472  -1.220  -1.904  0.00  0.00    +0.011 C 
ATOM     26  C   UNL     1      -5.771  -2.031  -1.921  0.00  0.00    -0.018 C 
ATOM     27  C   UNL     1      -5.454  -3.498  -1.624  0.00  0.00    -0.078 C 
ATOM     28  N   UNL     1      -4.824  -3.609  -0.302  0.00  0.00    +0.383 N 
ATOM     29  C   UNL     1      -3.543  -2.893  -0.300  0.00  0.00    -0.064 C 
ATOM     30  H   UNL     1      -5.434  -3.207   0.394  0.00  0.00    -0.081 HD
BRANCH  24  31
ATOM     31  C   UNL     1      -2.469  -0.670  -0.547  0.00  0.00    +0.308 C 
ATOM     32  O   UNL     1      -1.440  -1.278  -0.366  0.00  0.00    -0.251 OA
BRANCH  31  33
ATOM     33  O   UNL     1      -2.438   0.656  -0.748  0.00  0.00    -0.465 OA
BRANCH  33  35
ATOM     34  C   UNL     1      -1.320   2.786  -0.980  0.00  0.00    +0.048 C 
ATOM     35  C   UNL     1      -1.155   1.285  -0.736  0.00  0.00    +0.229 C 
ENDBRANCH  33  35
ENDBRANCH  31  33
ENDBRANCH  24  31
ENDBRANCH  23  28
ENDBRANCH   1  23
TORSDOF 7
