REMARK  Name = ZINC27836172
REMARK  6 active torsions:
REMARK  status: ('A' for Active; 'I' for Inactive)
REMARK    1  A    between atoms: C_1  and  C_2
REMARK    2  A    between atoms: C_2  and  C_3
REMARK    3  A    between atoms: C_10  and  C_14
REMARK    4  A    between atoms: C_10  and  O_18
REMARK    5  A    between atoms: C_19  and  C_21
REMARK    6  A    between atoms: C_25  and  N_27
REMARK                            x       y       z     vdW  Elec       q    Type
REMARK                         _______ _______ _______ _____ _____    ______ ____
ROOT
ATOM      1  C   UNL     1      -2.137   1.105   1.308  0.00  0.00    -0.010 C 
ATOM      2  C   UNL     1      -2.891   1.742   0.142  0.00  0.00    +0.009 C 
ATOM      3  C   UNL     1      -4.310   1.158   0.044  0.00  0.00    +0.053 C 
ATOM      4  C   UNL     1      -4.924   1.285   1.423  0.00  0.00    +0.045 C 
ATOM      5  N   UNL     1      -6.026   1.796   1.760  0.00  0.00    -0.183 NA
ATOM      6  N   UNL     1      -6.240   1.848   3.138  0.00  0.00    -0.148 N 
ATOM      7  C   UNL     1      -5.055   1.296   3.821  0.00  0.00    +0.259 C 
ATOM      8  C   UNL     1      -4.194   0.782   2.661  0.00  0.00    +0.097 C 
ATOM      9  C   UNL     1      -2.808   1.430   2.646  0.00  0.00    +0.018 C 
ATOM     10  C   UNL     1      -7.346   2.324   3.744  0.00  0.00    +0.269 C 
ATOM     11  O   UNL     1      -7.455   2.252   4.953  0.00  0.00    -0.268 OA
ENDROOT
BRANCH  10  12
ATOM     12  C   UNL     1      -8.426   2.933   2.940  0.00  0.00    +0.041 A 
ATOM     13  C   UNL     1      -8.357   2.914   1.546  0.00  0.00    +0.013 A 
ATOM     14  C   UNL     1      -9.371   3.480   0.800  0.00  0.00    +0.003 A 
ATOM     15  C   UNL     1     -10.449   4.074   1.432  0.00  0.00    +0.033 A 
ATOM     16  C   UNL     1     -10.521   4.100   2.813  0.00  0.00    +0.127 A 
ATOM     17  C   UNL     1      -9.517   3.534   3.571  0.00  0.00    +0.045 A 
BRANCH  16  18
ATOM     18  N   UNL     1     -11.679   4.738   3.481  0.00  0.00    +0.056 N 
ATOM     19  O   UNL     1     -11.743   4.762   4.697  0.00  0.00    -0.126 OA
ATOM     20  O   UNL     1     -12.566   5.239   2.813  0.00  0.00    -0.126 OA
ENDBRANCH  16  18
ENDBRANCH  10  12
BRANCH   7  21
ATOM     21  C   UNL     1      -5.453   0.147   4.749  0.00  0.00    +0.438 C 
ATOM     22  F   UNL     1      -4.301  -0.450   5.272  0.00  0.00    -0.166 F 
ATOM     23  F   UNL     1      -6.236   0.644   5.797  0.00  0.00    -0.166 F 
ATOM     24  F   UNL     1      -6.185  -0.803   4.029  0.00  0.00    -0.166 F 
ENDBRANCH   7  21
BRANCH   1  26
ATOM     25  C   UNL     1       0.029   1.170   0.063  0.00  0.00    +0.004 C 
ATOM     26  C   UNL     1      -0.701   1.635   1.325  0.00  0.00    +0.000 C 
ENDBRANCH   1  26
BRANCH   7  27
ATOM     27  O   UNL     1      -4.366   2.316   4.548  0.00  0.00    -0.363 OA
ATOM     28  H   UNL     1      -3.457   2.068   5.115  0.00  0.00    +0.212 HD
ENDBRANCH   7  27
TORSDOF 5
