REMARK  Name = ZINC34925785
REMARK  4 active torsions:
REMARK  status: ('A' for Active; 'I' for Inactive)
REMARK    1  A    between atoms: C_1  and  O_2
REMARK    2  A    between atoms: O_2  and  C_3
REMARK    3  A    between atoms: C_3  and  C_5
REMARK    4  A    between atoms: C_18  and  C_21
REMARK                            x       y       z     vdW  Elec       q    Type
REMARK                         _______ _______ _______ _____ _____    ______ ____
ROOT
ATOM      1  C   UNL     1       0.693  -2.090  -1.095  0.00  0.00    +0.169 C 
ATOM      2  C   UNL     1      -0.659  -2.589  -1.625  0.00  0.00    +0.067 C 
ATOM      3  C   UNL     1      -0.511  -4.048  -1.976  0.00  0.00    -0.015 A 
ATOM      4  C   UNL     1      -1.534  -5.041  -2.216  0.00  0.00    +0.003 A 
ATOM      5  C   UNL     1      -2.932  -4.988  -2.205  0.00  0.00    +0.010 A 
ATOM      6  C   UNL     1      -3.600  -6.154  -2.485  0.00  0.00    +0.001 A 
ATOM      7  C   UNL     1      -2.933  -7.335  -2.768  0.00  0.00    +0.002 A 
ATOM      8  C   UNL     1      -1.552  -7.416  -2.785  0.00  0.00    +0.026 A 
ATOM      9  C   UNL     1      -0.846  -6.248  -2.504  0.00  0.00    +0.047 A 
ATOM     10  N   UNL     1       0.491  -5.980  -2.438  0.00  0.00    -0.356 N 
ATOM     11  H   UNL     1       1.198  -6.626  -2.592  0.00  0.00    +0.166 HD
ATOM     12  C   UNL     1       0.685  -4.663  -2.122  0.00  0.00    +0.042 A 
ATOM     13  C   UNL     1       2.004  -3.948  -1.951  0.00  0.00    +0.135 C 
ATOM     14  N   UNL     1       1.761  -2.498  -2.018  0.00  0.00    -0.292 NA
ATOM     15  H   UNL     1       1.553  -2.209  -2.962  0.00  0.00    +0.124 HD
ENDROOT
BRANCH  13  16
ATOM     16  C   UNL     1       2.948  -4.358  -3.052  0.00  0.00    +0.011 A 
ATOM     17  C   UNL     1       3.029  -3.607  -4.209  0.00  0.00    +0.008 A 
ATOM     18  C   UNL     1       3.896  -3.983  -5.218  0.00  0.00    +0.000 A 
ATOM     19  C   UNL     1       4.682  -5.111  -5.072  0.00  0.00    +0.003 A 
ATOM     20  C   UNL     1       4.603  -5.863  -3.916  0.00  0.00    +0.039 A 
ATOM     21  C   UNL     1       3.739  -5.484  -2.901  0.00  0.00    +0.128 A 
ATOM     22  F   UNL     1       3.665  -6.216  -1.768  0.00  0.00    -0.205 F 
ENDBRANCH  13  16
BRANCH   1  23
ATOM     23  C   UNL     1       0.667  -0.587  -0.989  0.00  0.00    +0.324 C 
ATOM     24  O   UNL     1       1.179   0.088  -1.850  0.00  0.00    -0.249 OA
BRANCH  23  26
ATOM     25  C   UNL     1       0.088   1.430   0.098  0.00  0.00    +0.280 C 
ATOM     26  O   UNL     1       0.075   0.002   0.062  0.00  0.00    -0.467 OA
ENDBRANCH  23  26
ENDBRANCH   1  23
TORSDOF 3
