REMARK  Name = ZINC10334002
REMARK  7 active torsions:
REMARK  status: ('A' for Active; 'I' for Inactive)
REMARK    1  A    between atoms: C_10  and  C_11
REMARK    2  A    between atoms: C_11  and  C_13
REMARK    3  A    between atoms: C_11  and  N_60
REMARK    4  A    between atoms: C_13  and  N_14
REMARK    5  A    between atoms: C_15  and  C_17
REMARK    6  A    between atoms: N_19  and  C_20
REMARK    7  A    between atoms: C_20  and  C_21
REMARK                            x       y       z     vdW  Elec       q    Type
REMARK                         _______ _______ _______ _____ _____    ______ ____
ROOT
ATOM      1  C   UNL     1      10.562  -2.167  -0.257  0.00  0.00    +0.094 C 
ENDROOT
BRANCH   1   2
ATOM      2  N   UNL     1       9.629  -1.870   0.833  0.00  0.00    -0.309 N 
ATOM      3  C   UNL     1       8.324  -1.666   0.566  0.00  0.00    +0.299 C 
ATOM      4  O   UNL     1       7.921  -1.727  -0.577  0.00  0.00    -0.265 OA
ATOM      5  H   UNL     1       9.950  -1.821   1.747  0.00  0.00    +0.149 HD
BRANCH   3   6
ATOM      6  C   UNL     1       7.372  -1.364   1.678  0.00  0.00    +0.299 C 
ATOM      7  O   UNL     1       7.774  -1.302   2.821  0.00  0.00    -0.265 OA
ATOM      8  N   UNL     1       6.067  -1.159   1.411  0.00  0.00    -0.303 N 
ATOM      9  H   UNL     1       5.745  -1.208   0.498  0.00  0.00    +0.149 HD
BRANCH   8  10
ATOM     10  C   UNL     1       5.134  -0.863   2.502  0.00  0.00    +0.140 C 
BRANCH  10  11
ATOM     11  C   UNL     1       3.748  -0.679   1.940  0.00  0.00    -0.027 A 
ATOM     12  C   UNL     1       2.902  -1.765   1.821  0.00  0.00    +0.009 A 
ATOM     13  C   UNL     1       1.629  -1.601   1.306  0.00  0.00    +0.050 A 
ATOM     14  C   UNL     1       1.199  -0.346   0.908  0.00  0.00    +0.166 A 
ATOM     15  C   UNL     1       2.051   0.749   1.029  0.00  0.00    +0.167 A 
ATOM     16  C   UNL     1       3.325   0.577   1.546  0.00  0.00    +0.054 A 
ATOM     17  O   UNL     1       1.401   1.860   0.575  0.00  0.00    -0.453 OA
ATOM     18  C   UNL     1       0.004   1.508   0.557  0.00  0.00    +0.466 C 
ATOM     19  O   UNL     1       0.015   0.079   0.379  0.00  0.00    -0.453 OA
ENDBRANCH  10  11
ENDBRANCH   8  10
ENDBRANCH   3   6
ENDBRANCH   1   2
BRANCH   1  20
ATOM     20  C   UNL     1      11.987  -2.230   0.295  0.00  0.00    -0.020 C 
BRANCH  20  30
ATOM     21  C   UNL     1      13.927  -6.247  -2.217  0.00  0.00    +0.001 A 
ATOM     22  C   UNL     1      13.027  -6.090  -1.164  0.00  0.00    +0.001 A 
ATOM     23  C   UNL     1      12.698  -4.853  -0.702  0.00  0.00    +0.009 A 
ATOM     24  C   UNL     1      13.273  -3.714  -1.292  0.00  0.00    -0.016 A 
ATOM     25  C   UNL     1      14.184  -3.873  -2.366  0.00  0.00    -0.018 A 
ATOM     26  C   UNL     1      14.495  -5.167  -2.820  0.00  0.00    +0.008 A 
ATOM     27  C   UNL     1      14.764  -2.736  -2.952  0.00  0.00    +0.008 A 
ATOM     28  C   UNL     1      14.439  -1.498  -2.486  0.00  0.00    +0.001 A 
ATOM     29  C   UNL     1      13.539  -1.342  -1.434  0.00  0.00    +0.003 A 
ATOM     30  C   UNL     1      12.958  -2.421  -0.842  0.00  0.00    -0.052 A 
ENDBRANCH  20  30
BRANCH  20  35
ATOM     31  C   UNL     1      13.761  -0.824   1.191  0.00  0.00    -0.078 C 
ATOM     32  C   UNL     1      13.928   0.698   1.433  0.00  0.00    -0.020 C 
ATOM     33  C   UNL     1      12.889   1.317   0.471  0.00  0.00    -0.020 C 
ATOM     34  C   UNL     1      11.869   0.195   0.204  0.00  0.00    -0.078 C 
ATOM     35  N   UNL     1      12.308  -0.953   1.000  0.00  0.00    +0.385 N 
ATOM     36  H   UNL     1      11.836  -0.944   1.912  0.00  0.00    -0.081 HD
ENDBRANCH  20  35
ENDBRANCH   1  20
TORSDOF 7
