REMARK  Name = ZINC39685725
REMARK  12 active torsions:
REMARK  status: ('A' for Active; 'I' for Inactive)
REMARK    1  A    between atoms: C_1  and  C_2
REMARK    2  A    between atoms: C_2  and  C_3
REMARK    3  A    between atoms: C_2  and  C_4
REMARK    4  A    between atoms: C_4  and  C_6
REMARK    5  A    between atoms: C_4  and  N_13
REMARK    6  A    between atoms: N_8  and  C_9
REMARK    7  A    between atoms: C_9  and  C_10
REMARK    8  A    between atoms: C_9  and  C_11
REMARK    9  A    between atoms: C_9  and  C_12
REMARK   10  A    between atoms: C_14  and  C_16
REMARK   11  A    between atoms: C_27  and  C_29
REMARK   12  A    between atoms: C_32  and  C_35
REMARK                            x       y       z     vdW  Elec       q    Type
REMARK                         _______ _______ _______ _____ _____    ______ ____
ROOT
ATOM      1  C   UNL     1       0.572  -4.337   1.816  0.00  0.00    +0.100 C 
ATOM      2  C   UNL     1       1.779  -4.109   0.878  0.00  0.00    +0.121 C 
ATOM      3  N   UNL     1       2.878  -3.687   1.778  0.00  0.00    -0.296 N 
ATOM      4  C   UNL     1       2.716  -4.537   2.982  0.00  0.00    +0.115 C 
ATOM      5  C   UNL     1       1.191  -4.620   3.195  0.00  0.00    -0.004 C 
ATOM      6  C   UNL     1       0.800  -6.016   3.672  0.00  0.00    -0.010 C 
ATOM      7  C   UNL     1       1.378  -6.253   5.070  0.00  0.00    -0.082 C 
ATOM      8  N   UNL     1       0.863  -5.235   5.994  0.00  0.00    +0.379 N 
ATOM      9  C   UNL     1       1.322  -3.904   5.579  0.00  0.00    -0.082 C 
ATOM     10  C   UNL     1       0.741  -3.568   4.203  0.00  0.00    -0.010 C 
ATOM     11  C   UNL     1       3.814  -2.744   1.553  0.00  0.00    +0.247 C 
ATOM     12  O   UNL     1       3.748  -2.047   0.559  0.00  0.00    -0.270 OA
ATOM     13  H   UNL     1      -0.146  -5.258   5.989  0.00  0.00    -0.086 HD
ATOM     14  H   UNL     1       1.197  -5.429   6.926  0.00  0.00    -0.086 HD
ENDROOT
BRANCH  11  15
ATOM     15  C   UNL     1       4.921  -2.556   2.515  0.00  0.00    +0.037 A 
ATOM     16  C   UNL     1       5.286  -3.593   3.375  0.00  0.00    +0.013 A 
ATOM     17  C   UNL     1       6.320  -3.412   4.270  0.00  0.00    +0.013 A 
ATOM     18  C   UNL     1       6.994  -2.204   4.317  0.00  0.00    +0.055 A 
ATOM     19  C   UNL     1       6.636  -1.171   3.468  0.00  0.00    +0.013 A 
ATOM     20  C   UNL     1       5.608  -1.342   2.564  0.00  0.00    +0.013 A 
BRANCH  18  21
ATOM     21  C   UNL     1       8.122  -2.013   5.298  0.00  0.00    +0.417 C 
ATOM     22  F   UNL     1       9.328  -2.397   4.702  0.00  0.00    -0.166 F 
ATOM     23  F   UNL     1       8.193  -0.666   5.670  0.00  0.00    -0.166 F 
ATOM     24  F   UNL     1       7.891  -2.798   6.433  0.00  0.00    -0.166 F 
ENDBRANCH  18  21
ENDBRANCH  11  15
BRANCH   1  26
ATOM     25  N   UNL     1      -1.601  -3.206   2.163  0.00  0.00    -0.303 N 
ATOM     26  C   UNL     1      -0.289  -3.101   1.871  0.00  0.00    +0.219 C 
ATOM     27  O   UNL     1       0.199  -2.012   1.654  0.00  0.00    -0.275 OA
ATOM     28  H   UNL     1      -1.990  -4.077   2.337  0.00  0.00    +0.149 HD
BRANCH  25  29
ATOM     29  C   UNL     1      -2.438  -2.005   2.217  0.00  0.00    +0.161 C 
BRANCH  29  30
ATOM     30  C   UNL     1      -3.622  -2.258   3.114  0.00  0.00    +0.234 C 
ATOM     31  O   UNL     1      -3.970  -3.395   3.353  0.00  0.00    -0.274 OA
ATOM     32  N   UNL     1      -4.295  -1.221   3.650  0.00  0.00    -0.309 N 
ATOM     33  H   UNL     1      -3.976  -0.315   3.516  0.00  0.00    +0.149 HD
BRANCH  32  34
ATOM     34  C   UNL     1      -5.507  -1.462   4.437  0.00  0.00    +0.026 C 
ATOM     35  C   UNL     1      -5.167  -2.344   5.640  0.00  0.00    +0.031 C 
ATOM     36  C   UNL     1      -6.071  -0.127   4.927  0.00  0.00    +0.031 C 
ATOM     37  C   UNL     1      -6.548  -2.168   3.566  0.00  0.00    +0.031 C 
ENDBRANCH  32  34
ENDBRANCH  29  30
BRANCH  29  39
ATOM     38  C   UNL     1      -1.734  -1.280  -0.068  0.00  0.00    +0.009 C 
ATOM     39  C   UNL     1      -2.928  -1.661   0.809  0.00  0.00    +0.012 C 
ATOM     40  C   UNL     1      -3.637  -2.876   0.205  0.00  0.00    +0.009 C 
ENDBRANCH  29  39
ENDBRANCH  25  29
ENDBRANCH   1  26
TORSDOF 7
