REMARK  Name = ZINC37063959
REMARK  4 active torsions:
REMARK  status: ('A' for Active; 'I' for Inactive)
REMARK    1  A    between atoms: C_1  and  C_2
REMARK    2  A    between atoms: N_8  and  S_9
REMARK    3  A    between atoms: S_9  and  C_12
REMARK    4  A    between atoms: C_15  and  N_19
REMARK                            x       y       z     vdW  Elec       q    Type
REMARK                         _______ _______ _______ _____ _____    ______ ____
ROOT
ATOM      1  S   UNL     1       0.045  -1.881   3.766  0.00  0.00    +0.103 S 
ATOM      2  O   UNL     1       1.282  -1.184   3.835  0.00  0.00    -0.146 OA
ATOM      3  O   UNL     1      -1.209  -1.217   3.846  0.00  0.00    -0.146 OA
ENDROOT
BRANCH   1  11
ATOM      4  C   UNL     1      -0.018   1.503   0.010  0.00  0.00    +0.063 C 
ATOM      5  C   UNL     1       0.002  -0.004   0.002  0.00  0.00    +0.015 A 
ATOM      6  C   UNL     1       0.005  -0.665  -1.175  0.00  0.00    +0.021 A 
ATOM      7  C   UNL     1       0.024  -2.070  -1.202  0.00  0.00    +0.005 A 
ATOM      8  C   UNL     1       0.039  -2.765  -0.034  0.00  0.00    +0.048 A 
ATOM      9  C   UNL     1       0.036  -2.058   1.192  0.00  0.00    +0.153 A 
ATOM     10  N   UNL     1       0.022  -0.684   1.183  0.00  0.00    -0.343 N 
ATOM     11  N   UNL     1       0.050  -2.713   2.334  0.00  0.00    -0.111 NA
ATOM     12  H   UNL     1       0.024  -0.196   2.021  0.00  0.00    +0.167 HD
ENDBRANCH   1  11
BRANCH   1  13
ATOM     13  C   UNL     1       0.067  -3.074   5.062  0.00  0.00    +0.140 A 
ATOM     14  C   UNL     1      -1.124  -3.562   5.572  0.00  0.00    +0.048 A 
ATOM     15  C   UNL     1      -1.110  -4.498   6.588  0.00  0.00    +0.040 A 
ATOM     16  C   UNL     1       0.101  -4.949   7.099  0.00  0.00    +0.027 A 
ATOM     17  C   UNL     1       1.294  -4.458   6.585  0.00  0.00    +0.040 A 
ATOM     18  C   UNL     1       1.274  -3.526   5.564  0.00  0.00    +0.048 A 
ATOM     19 BR   UNL     1       2.898  -2.862   4.859  0.00  0.00    -0.048 Br
ATOM     20 BR   UNL     1      -2.771  -2.947   4.876  0.00  0.00    -0.048 Br
BRANCH  16  21
ATOM     21  N   UNL     1       0.118  -5.894   8.127  0.00  0.00    -0.358 N 
ATOM     22  H   UNL     1      -0.716  -6.236   8.485  0.00  0.00    +0.142 HD
ATOM     23  H   UNL     1       0.964  -6.209   8.483  0.00  0.00    +0.142 HD
ENDBRANCH  16  21
ENDBRANCH   1  13
TORSDOF 3
