REMARK  Name = ZINC19776336
REMARK  5 active torsions:
REMARK  status: ('A' for Active; 'I' for Inactive)
REMARK    1  A    between atoms: C_4  and  C_7
REMARK    2  A    between atoms: C_10  and  N_23
REMARK    3  A    between atoms: C_11  and  C_12
REMARK    4  A    between atoms: C_12  and  C_14
REMARK    5  A    between atoms: C_18  and  N_20
REMARK                            x       y       z     vdW  Elec       q    Type
REMARK                         _______ _______ _______ _____ _____    ______ ____
ROOT
ATOM      1  C   UNL     1       1.005   7.588   0.080  0.00  0.00    +0.002 A 
ATOM      2  C   UNL     1       2.178   8.270   0.070  0.00  0.00    +0.056 A 
ATOM      3  S   UNL     1       3.402   6.981  -0.027  0.00  0.00    -0.081 S 
ATOM      4  C   UNL     1       2.369   5.593  -0.045  0.00  0.00    +0.074 A 
ATOM      5  C   UNL     1       1.090   6.140   0.024  0.00  0.00    +0.058 A 
ENDROOT
BRANCH   1   9
ATOM      6  C   UNL     1      -2.738   9.594   0.281  0.00  0.00    +0.000 A 
ATOM      7  C   UNL     1      -1.735   9.914   1.179  0.00  0.00    +0.001 A 
ATOM      8  C   UNL     1      -0.518   9.267   1.118  0.00  0.00    +0.008 A 
ATOM      9  C   UNL     1      -0.300   8.287   0.150  0.00  0.00    -0.017 A 
ATOM     10  C   UNL     1      -1.312   7.973  -0.756  0.00  0.00    +0.008 A 
ATOM     11  C   UNL     1      -2.527   8.622  -0.681  0.00  0.00    +0.001 A 
ENDBRANCH   1   9
BRANCH   4  12
ATOM     12  N   UNL     1       2.726   4.262  -0.113  0.00  0.00    -0.352 N 
ATOM     13  H   UNL     1       1.949   3.483  -0.115  0.00  0.00    +0.143 HD
ATOM     14  H   UNL     1       3.788   3.979  -0.163  0.00  0.00    +0.143 HD
ENDBRANCH   4  12
BRANCH   5  15
ATOM     15  C   UNL     1      -0.070   5.324   0.033  0.00  0.00    +0.196 C 
ATOM     16  O   UNL     1      -0.547   4.931  -1.016  0.00  0.00    -0.287 OA
BRANCH  15  17
ATOM     17  C   UNL     1      -0.701   4.950   1.318  0.00  0.00    +0.025 A 
ATOM     18  C   UNL     1      -0.095   5.302   2.525  0.00  0.00    +0.012 A 
ATOM     19  C   UNL     1      -0.689   4.950   3.720  0.00  0.00    +0.003 A 
ATOM     20  C   UNL     1      -1.883   4.251   3.723  0.00  0.00    +0.033 A 
ATOM     21  C   UNL     1      -2.486   3.894   2.530  0.00  0.00    +0.127 A 
ATOM     22  C   UNL     1      -1.905   4.245   1.328  0.00  0.00    +0.044 A 
BRANCH  21  23
ATOM     23  N   UNL     1      -3.760   3.141   2.542  0.00  0.00    +0.056 N 
ATOM     24  O   UNL     1      -4.276   2.835   3.603  0.00  0.00    -0.126 OA
ATOM     25  O   UNL     1      -4.292   2.826   1.493  0.00  0.00    -0.126 OA
ENDBRANCH  21  23
ENDBRANCH  15  17
ENDBRANCH   5  15
TORSDOF 5
