REMARK  Name = ZINC03505106
REMARK  8 active torsions:
REMARK  status: ('A' for Active; 'I' for Inactive)
REMARK    1  A    between atoms: C_1  and  C_2
REMARK    2  A    between atoms: C_5  and  C_34
REMARK    3  A    between atoms: C_6  and  N_8
REMARK    4  A    between atoms: C_17  and  S_18
REMARK    5  A    between atoms: S_18  and  C_19
REMARK    6  A    between atoms: C_19  and  C_21
REMARK    7  A    between atoms: C_19  and  C_22
REMARK    8  A    between atoms: C_29  and  C_33
REMARK                            x       y       z     vdW  Elec       q    Type
REMARK                         _______ _______ _______ _____ _____    ______ ____
ROOT
ATOM      1  N   UNL     1       0.057  -4.063  -1.904  0.00  0.00    -0.255 N 
ATOM      2  C   UNL     1      -0.058  -2.886  -1.245  0.00  0.00    +0.268 A 
ATOM      3  O   UNL     1      -0.844  -2.733  -0.326  0.00  0.00    -0.267 OA
ATOM      4  C   UNL     1       0.801  -1.831  -1.694  0.00  0.00    +0.076 A 
ATOM      5  C   UNL     1       0.873  -0.481  -1.157  0.00  0.00    -0.023 A 
ATOM      6  C   UNL     1       1.763   0.356  -1.737  0.00  0.00    -0.004 A 
ATOM      7  S   UNL     1       2.540  -0.602  -3.014  0.00  0.00    -0.073 S 
ATOM      8  C   UNL     1       1.673  -2.120  -2.768  0.00  0.00    +0.117 A 
ATOM      9  N   UNL     1       1.738  -3.299  -3.374  0.00  0.00    -0.215 NA
ATOM     10  C   UNL     1       0.930  -4.254  -2.934  0.00  0.00    +0.178 A 
ATOM     11  C   UNL     1       2.034   1.784  -1.377  0.00  0.00    +0.046 C 
ATOM     12  C   UNL     1       1.415   2.064  -0.000  0.00  0.00    -0.009 C 
ATOM     13  C   UNL     1      -0.019   1.524   0.010  0.00  0.00    +0.008 C 
ATOM     14  C   UNL     1       0.002  -0.004   0.002  0.00  0.00    +0.037 C 
ATOM     15  C   UNL     1       1.397   3.572   0.258  0.00  0.00    +0.008 C 
ENDROOT
BRANCH   1  21
ATOM     16  C   UNL     1      -0.647  -8.032   0.912  0.00  0.00    +0.044 C 
ATOM     17  C   UNL     1      -1.122  -7.072  -0.147  0.00  0.00    -0.048 A 
ATOM     18  C   UNL     1      -2.364  -7.245  -0.730  0.00  0.00    +0.004 A 
ATOM     19  C   UNL     1      -2.804  -6.366  -1.702  0.00  0.00    +0.005 A 
ATOM     20  C   UNL     1      -2.006  -5.307  -2.089  0.00  0.00    -0.026 A 
ATOM     21  C   UNL     1      -0.757  -5.133  -1.509  0.00  0.00    +0.055 A 
ATOM     22  C   UNL     1      -0.318  -6.018  -0.533  0.00  0.00    +0.030 A 
ATOM     23  C   UNL     1      -2.489  -4.344  -3.143  0.00  0.00    +0.046 C 
ENDBRANCH   1  21
BRANCH  10  24
ATOM     24  S   UNL     1       0.986  -5.834  -3.712  0.00  0.00    -0.075 S 
BRANCH  24  25
ATOM     25  C   UNL     1       2.265  -5.527  -4.955  0.00  0.00    +0.137 C 
ATOM     26  C   UNL     1       3.599  -5.252  -4.258  0.00  0.00    +0.029 C 
BRANCH  25  27
ATOM     27  C   UNL     1       2.403  -6.736  -5.844  0.00  0.00    +0.233 C 
ATOM     28  O   UNL     1       1.998  -7.815  -5.466  0.00  0.00    -0.274 OA
ATOM     29  N   UNL     1       2.975  -6.618  -7.058  0.00  0.00    -0.239 N 
ATOM     30  C   UNL     1       3.098  -7.700  -7.853  0.00  0.00    +0.303 C 
ATOM     31  O   UNL     1       2.693  -8.781  -7.475  0.00  0.00    -0.253 OA
ATOM     32  N   UNL     1       3.671  -7.582  -9.068  0.00  0.00    -0.313 N 
ATOM     33  H   UNL     1       3.299  -5.755  -7.361  0.00  0.00    +0.159 HD
ATOM     34  H   UNL     1       3.994  -6.719  -9.370  0.00  0.00    +0.146 HD
ATOM     35  H   UNL     1       3.760  -8.361  -9.639  0.00  0.00    +0.146 HD
ENDBRANCH  25  27
ENDBRANCH  24  25
ENDBRANCH  10  24
TORSDOF 4
