REMARK  Name = ZINC09673551
REMARK  8 active torsions:
REMARK  status: ('A' for Active; 'I' for Inactive)
REMARK    1  A    between atoms: C_4  and  C_7
REMARK    2  A    between atoms: C_7  and  N_8
REMARK    3  A    between atoms: C_21  and  C_22
REMARK    4  A    between atoms: C_22  and  C_23
REMARK    5  A    between atoms: C_23  and  C_24
REMARK    6  A    between atoms: N_26  and  C_27
REMARK    7  A    between atoms: C_32  and  C_33
REMARK    8  A    between atoms: C_32  and  N_71
REMARK                            x       y       z     vdW  Elec       q    Type
REMARK                         _______ _______ _______ _____ _____    ______ ____
ROOT
ATOM      1  N   UNL     1       0.023  -0.542   1.365  0.00  0.00    -0.272 N 
ATOM      2  C   UNL     1      -1.141  -0.822   1.987  0.00  0.00    +0.263 A 
ATOM      3  O   UNL     1      -2.203  -0.652   1.419  0.00  0.00    -0.267 OA
ATOM      4  C   UNL     1      -1.104  -1.336   3.368  0.00  0.00    +0.064 A 
ATOM      5  C   UNL     1      -2.275  -1.642   4.060  0.00  0.00    +0.015 A 
ATOM      6  C   UNL     1      -2.198  -2.122   5.351  0.00  0.00    +0.001 A 
ATOM      7  C   UNL     1      -0.966  -2.299   5.960  0.00  0.00    +0.002 A 
ATOM      8  C   UNL     1       0.201  -2.000   5.285  0.00  0.00    +0.027 A 
ATOM      9  C   UNL     1       0.144  -1.517   3.987  0.00  0.00    +0.063 A 
ATOM     10  N   UNL     1       1.299  -1.206   3.281  0.00  0.00    -0.264 N 
ATOM     11  C   UNL     1       1.234  -0.737   2.001  0.00  0.00    +0.240 A 
ATOM     12  N   UNL     1       2.473  -0.534   1.608  0.00  0.00    -0.110 NA
ATOM     13  N   UNL     1       3.288  -0.853   2.550  0.00  0.00    -0.132 NA
ATOM     14  C   UNL     1       2.627  -1.270   3.594  0.00  0.00    +0.140 A 
ENDROOT
BRANCH   1  15
ATOM     15  C   UNL     1       0.003  -0.031  -0.008  0.00  0.00    +0.163 C 
BRANCH  15  19
ATOM     16  C   UNL     1      -0.170   4.237   0.065  0.00  0.00    +0.000 A 
ATOM     17  C   UNL     1       1.055   3.595   0.054  0.00  0.00    +0.000 A 
ATOM     18  C   UNL     1       1.110   2.214   0.031  0.00  0.00    +0.005 A 
ATOM     19  C   UNL     1      -0.058   1.475   0.018  0.00  0.00    -0.028 A 
ATOM     20  C   UNL     1      -1.282   2.117   0.024  0.00  0.00    +0.005 A 
ATOM     21  C   UNL     1      -1.338   3.498   0.053  0.00  0.00    +0.000 A 
ENDBRANCH  15  19
ENDBRANCH   1  15
BRANCH  14  22
ATOM     22  C   UNL     1       3.217  -1.733   4.901  0.00  0.00    +0.086 C 
BRANCH  22  23
ATOM     23  C   UNL     1       3.314  -3.260   4.904  0.00  0.00    +0.103 C 
BRANCH  23  24
ATOM     24  C   UNL     1       3.905  -3.723   6.210  0.00  0.00    +0.214 C 
ATOM     25  O   UNL     1       4.216  -2.912   7.056  0.00  0.00    -0.276 OA
ATOM     26  N   UNL     1       4.086  -5.039   6.439  0.00  0.00    -0.313 N 
ATOM     27  H   UNL     1       3.836  -5.688   5.763  0.00  0.00    +0.149 HD
BRANCH  26  28
ATOM     28  C   UNL     1       4.660  -5.489   7.710  0.00  0.00    +0.069 C 
ATOM     29  C   UNL     1       6.188  -5.451   7.623  0.00  0.00    +0.003 C 
ATOM     30  C   UNL     1       6.781  -5.980   8.931  0.00  0.00    -0.077 C 
ATOM     31  C   UNL     1       4.859  -7.410   9.292  0.00  0.00    -0.077 C 
ATOM     32  C   UNL     1       4.208  -6.924   7.995  0.00  0.00    +0.003 C 
ATOM     33  N   UNL     1       6.328  -7.372   9.135  0.00  0.00    +0.382 N 
ATOM     34  H   UNL     1       6.590  -7.931   8.314  0.00  0.00    -0.081 HD
BRANCH  33  35
ATOM     35  C   UNL     1       6.979  -7.944  10.332  0.00  0.00    -0.043 C 
BRANCH  35  36
ATOM     36  C   UNL     1       8.453  -8.095  10.058  0.00  0.00    -0.064 A 
ATOM     37  C   UNL     1       8.935  -9.263   9.496  0.00  0.00    +0.002 A 
ATOM     38  C   UNL     1      10.287  -9.399   9.240  0.00  0.00    +0.000 A 
ATOM     39  C   UNL     1      11.157  -8.373   9.555  0.00  0.00    +0.000 A 
ATOM     40  C   UNL     1      10.675  -7.208  10.122  0.00  0.00    +0.000 A 
ATOM     41  C   UNL     1       9.323  -7.069  10.373  0.00  0.00    +0.002 A 
ENDBRANCH  35  36
ENDBRANCH  33  35
ENDBRANCH  26  28
ENDBRANCH  23  24
ENDBRANCH  22  23
ENDBRANCH  14  22
TORSDOF 8
