REMARK  Name = ZINC11882204
REMARK  7 active torsions:
REMARK  status: ('A' for Active; 'I' for Inactive)
REMARK    1  A    between atoms: C_1  and  C_2
REMARK    2  A    between atoms: C_3  and  C_24
REMARK    3  A    between atoms: C_12  and  C_14
REMARK    4  A    between atoms: C_17  and  C_19
REMARK    5  A    between atoms: C_24  and  N_25
REMARK    6  A    between atoms: C_26  and  C_28
REMARK    7  A    between atoms: C_28  and  N_63
REMARK                            x       y       z     vdW  Elec       q    Type
REMARK                         _______ _______ _______ _____ _____    ______ ____
ROOT
ATOM      1  C   UNL     1      -2.411   4.457  -1.332  0.00  0.00    +0.066 C 
ATOM      2  C   UNL     1      -1.168   3.634  -1.107  0.00  0.00    +0.043 A 
ATOM      3  C   UNL     1       0.033   4.266  -0.854  0.00  0.00    -0.006 A 
ATOM      4  C   UNL     1       1.176   3.500  -0.649  0.00  0.00    -0.033 A 
ATOM      5  C   UNL     1       1.062   2.127  -0.698  0.00  0.00    -0.008 A 
ATOM      6  C   UNL     1      -0.178   1.563  -0.958  0.00  0.00    +0.116 A 
ATOM      7  N   UNL     1      -1.238   2.318  -1.158  0.00  0.00    -0.260 NA
ATOM      8  C   UNL     1       2.237   1.212  -0.471  0.00  0.00    +0.145 C 
ATOM      9  N   UNL     1       3.477   1.996  -0.479  0.00  0.00    -0.292 N 
ATOM     10  C   UNL     1       3.484   3.264   0.269  0.00  0.00    +0.113 C 
ATOM     11  C   UNL     1       2.477   4.207  -0.391  0.00  0.00    +0.055 C 
ATOM     12  C   UNL     1       4.569   1.572  -1.147  0.00  0.00    +0.266 C 
ATOM     13  O   UNL     1       5.543   2.294  -1.242  0.00  0.00    -0.268 OA
ENDROOT
BRANCH  12  14
ATOM     14  C   UNL     1       4.582   0.233  -1.761  0.00  0.00    +0.133 A 
ATOM     15  C   UNL     1       5.621  -0.149  -2.571  0.00  0.00    +0.080 A 
ATOM     16  S   UNL     1       5.148  -1.762  -3.007  0.00  0.00    -0.074 S 
ATOM     17  C   UNL     1       3.612  -1.815  -2.099  0.00  0.00    +0.116 A 
ATOM     18  N   UNL     1       3.588  -0.616  -1.542  0.00  0.00    -0.234 NA
BRANCH  17  19
ATOM     19  C   UNL     1       2.630  -2.907  -1.997  0.00  0.00    +0.044 A 
ATOM     20  C   UNL     1       2.654  -4.149  -2.580  0.00  0.00    +0.018 A 
ATOM     21  C   UNL     1       1.613  -5.014  -2.334  0.00  0.00    +0.008 A 
ATOM     22  C   UNL     1       0.592  -4.612  -1.532  0.00  0.00    +0.046 A 
ATOM     23  S   UNL     1       1.094  -2.958  -1.088  0.00  0.00    -0.095 S 
ENDBRANCH  17  19
ENDBRANCH  12  14
BRANCH   3  24
ATOM     24  C   UNL     1       0.105   5.770  -0.801  0.00  0.00    +0.141 C 
BRANCH  24  25
ATOM     25  N   UNL     1       0.396   6.293  -2.139  0.00  0.00    -0.313 N 
ATOM     26  C   UNL     1       0.507   7.622  -2.334  0.00  0.00    +0.197 C 
ATOM     27  O   UNL     1       0.366   8.385  -1.402  0.00  0.00    -0.278 OA
ATOM     28  H   UNL     1       0.508   5.682  -2.884  0.00  0.00    +0.149 HD
BRANCH  26  29
ATOM     29  C   UNL     1       0.805   8.159  -3.710  0.00  0.00    +0.019 C 
BRANCH  29  35
ATOM     30  C   UNL     1      -0.433  10.204  -3.328  0.00  0.00    -0.078 C 
ATOM     31  C   UNL     1      -0.291  11.716  -3.140  0.00  0.00    -0.019 C 
ATOM     32  C   UNL     1       0.251  12.337  -4.430  0.00  0.00    -0.004 C 
ATOM     33  C   UNL     1       1.591  11.683  -4.777  0.00  0.00    -0.019 C 
ATOM     34  C   UNL     1       1.395  10.172  -4.918  0.00  0.00    -0.078 C 
ATOM     35  N   UNL     1       0.895   9.632  -3.636  0.00  0.00    +0.385 N 
ATOM     36  H   UNL     1       1.550   9.889  -2.888  0.00  0.00    -0.081 HD
ENDBRANCH  29  35
ENDBRANCH  26  29
ENDBRANCH  24  25
ENDBRANCH   3  24
TORSDOF 6
