REMARK  Name = ZINC52583198
REMARK  6 active torsions:
REMARK  status: ('A' for Active; 'I' for Inactive)
REMARK    1  A    between atoms: C_1  and  C_2
REMARK    2  A    between atoms: C_2  and  C_4
REMARK    3  A    between atoms: C_2  and  N_10
REMARK    4  A    between atoms: C_4  and  C_5
REMARK    5  A    between atoms: N_16  and  C_19
REMARK    6  A    between atoms: C_24  and  O_25
REMARK                            x       y       z     vdW  Elec       q    Type
REMARK                         _______ _______ _______ _____ _____    ______ ____
ROOT
ATOM      1  N   UNL     1       0.688  -0.481  -1.201  0.00  0.00    -0.296 N 
ATOM      2  C   UNL     1       2.031  -0.587  -1.215  0.00  0.00    +0.303 C 
ATOM      3  O   UNL     1       2.681  -0.205  -0.261  0.00  0.00    -0.253 OA
ATOM      4  N   UNL     1       2.654  -1.116  -2.286  0.00  0.00    -0.283 N 
ATOM      5  C   UNL     1       1.895  -1.470  -3.494  0.00  0.00    +0.128 C 
ATOM      6  C   UNL     1       2.522  -0.751  -4.695  0.00  0.00    +0.124 C 
ATOM      7  N   UNL     1       3.973  -0.984  -4.677  0.00  0.00    -0.324 N 
ATOM      8  C   UNL     1       4.732  -0.630  -3.469  0.00  0.00    +0.124 C 
ATOM      9  C   UNL     1       4.106  -1.344  -2.270  0.00  0.00    +0.128 C 
ATOM     10  H   UNL     1       0.174  -0.717  -1.990  0.00  0.00    +0.151 HD
ENDROOT
BRANCH   7  11
ATOM     11  C   UNL     1       4.621  -1.533  -5.790  0.00  0.00    +0.072 A 
ATOM     12  C   UNL     1       5.130  -0.704  -6.778  0.00  0.00    +0.027 A 
ATOM     13  C   UNL     1       5.769  -1.248  -7.875  0.00  0.00    +0.002 A 
ATOM     14  C   UNL     1       5.903  -2.620  -7.992  0.00  0.00    +0.004 A 
ATOM     15  C   UNL     1       5.398  -3.453  -7.010  0.00  0.00    +0.047 A 
ATOM     16  C   UNL     1       4.761  -2.914  -5.905  0.00  0.00    +0.138 A 
BRANCH  16  17
ATOM     17  O   UNL     1       4.268  -3.733  -4.936  0.00  0.00    -0.505 OA
ATOM     18  H   UNL     1       3.354  -4.012  -5.085  0.00  0.00    +0.292 HD
ENDBRANCH  16  17
ENDBRANCH   7  11
BRANCH   1  20
ATOM     19  C   UNL     1      -0.023   1.522   0.009  0.00  0.00    +0.028 C 
ATOM     20  C   UNL     1       0.002  -0.008   0.004  0.00  0.00    +0.076 C 
BRANCH  20  21
ATOM     21  C   UNL     1      -1.431  -0.542   0.018  0.00  0.00    +0.057 C 
BRANCH  21  22
ATOM     22  C   UNL     1      -1.407  -2.044   0.137  0.00  0.00    -0.039 A 
ATOM     23  C   UNL     1      -1.367  -2.837  -0.995  0.00  0.00    +0.011 A 
ATOM     24  C   UNL     1      -1.346  -4.184  -0.853  0.00  0.00    +0.045 A 
ATOM     25  S   UNL     1      -1.382  -4.370   0.923  0.00  0.00    -0.105 S 
ATOM     26  C   UNL     1      -1.418  -2.638   1.355  0.00  0.00    +0.049 A 
ENDBRANCH  21  22
ENDBRANCH  20  21
ENDBRANCH   1  20
TORSDOF 5
