REMARK  Name = ZINC02287977
REMARK  4 active torsions:
REMARK  status: ('A' for Active; 'I' for Inactive)
REMARK    1  A    between atoms: C_1  and  O_2
REMARK    2  A    between atoms: O_2  and  C_3
REMARK    3  A    between atoms: C_6  and  C_9
REMARK    4  A    between atoms: C_20  and  C_22
REMARK                            x       y       z     vdW  Elec       q    Type
REMARK                         _______ _______ _______ _____ _____    ______ ____
ROOT
ATOM      1  C   UNL     1       2.551  -1.871  -4.382  0.00  0.00    +0.159 C 
ATOM      2  C   UNL     1       1.560  -2.688  -5.182  0.00  0.00    +0.027 C 
ATOM      3  C   UNL     1       1.718  -4.027  -5.211  0.00  0.00    +0.083 C 
ATOM      4  C   UNL     1       0.744  -4.815  -6.008  0.00  0.00    +0.042 A 
ATOM      5  C   UNL     1       0.621  -6.189  -5.850  0.00  0.00    +0.013 A 
ATOM      6  C   UNL     1      -0.301  -6.883  -6.611  0.00  0.00    +0.001 A 
ATOM      7  C   UNL     1      -1.095  -6.213  -7.525  0.00  0.00    +0.004 A 
ATOM      8  C   UNL     1      -0.977  -4.845  -7.689  0.00  0.00    +0.046 A 
ATOM      9  C   UNL     1      -0.059  -4.137  -6.934  0.00  0.00    +0.131 A 
ATOM     10  O   UNL     1       0.083  -2.795  -7.079  0.00  0.00    -0.479 OA
ATOM     11  C   UNL     1       0.426  -2.036  -5.918  0.00  0.00    +0.237 C 
ATOM     12  N   UNL     1       2.727  -4.636  -4.540  0.00  0.00    -0.213 NA
ATOM     13  C   UNL     1       3.627  -4.005  -3.824  0.00  0.00    +0.237 C 
ATOM     14  N   UNL     1       3.603  -2.633  -3.699  0.00  0.00    -0.208 N 
ATOM     15  N   UNL     1       4.682  -2.289  -2.882  0.00  0.00    -0.251 N 
ATOM     16  C   UNL     1       5.301  -3.456  -2.549  0.00  0.00    +0.203 C 
ATOM     17  N   UNL     1       4.681  -4.449  -3.104  0.00  0.00    -0.205 NA
ATOM     18  H   UNL     1       4.940  -1.396  -2.606  0.00  0.00    +0.171 HD
ENDROOT
BRANCH  11  19
ATOM     19  C   UNL     1      -0.772  -1.948  -5.009  0.00  0.00    +0.032 A 
ATOM     20  C   UNL     1      -1.449  -3.096  -4.642  0.00  0.00    +0.010 A 
ATOM     21  C   UNL     1      -2.548  -3.015  -3.808  0.00  0.00    +0.001 A 
ATOM     22  C   UNL     1      -2.972  -1.786  -3.339  0.00  0.00    +0.003 A 
ATOM     23  C   UNL     1      -2.298  -0.636  -3.704  0.00  0.00    +0.039 A 
ATOM     24  C   UNL     1      -1.193  -0.717  -4.535  0.00  0.00    +0.130 A 
ATOM     25  F   UNL     1      -0.530   0.406  -4.889  0.00  0.00    -0.205 F 
ENDBRANCH  11  19
BRANCH   1  29
ATOM     26  C   UNL     1       0.384   0.346  -1.442  0.00  0.00    +0.120 A 
ATOM     27  C   UNL     1       0.913   0.993  -2.549  0.00  0.00    +0.046 A 
ATOM     28  C   UNL     1       1.613   0.274  -3.498  0.00  0.00    +0.009 A 
ATOM     29  C   UNL     1       1.787  -1.089  -3.345  0.00  0.00    -0.021 A 
ATOM     30  C   UNL     1       1.260  -1.736  -2.243  0.00  0.00    +0.009 A 
ATOM     31  C   UNL     1       0.564  -1.021  -1.288  0.00  0.00    +0.046 A 
BRANCH  26  33
ATOM     32  C   UNL     1      -0.452   2.455  -0.730  0.00  0.00    +0.277 C 
ATOM     33  O   UNL     1      -0.305   1.051  -0.506  0.00  0.00    -0.495 OA
ENDBRANCH  26  33
ENDBRANCH   1  29
TORSDOF 3
