REMARK  Name = ZINC48803284
REMARK  6 active torsions:
REMARK  status: ('A' for Active; 'I' for Inactive)
REMARK    1  A    between atoms: C_1  and  C_2
REMARK    2  A    between atoms: C_2  and  C_4
REMARK    3  A    between atoms: C_2  and  N_12
REMARK    4  A    between atoms: C_13  and  C_15
REMARK    5  A    between atoms: N_17  and  C_18
REMARK    6  A    between atoms: C_22  and  C_24
REMARK                            x       y       z     vdW  Elec       q    Type
REMARK                         _______ _______ _______ _____ _____    ______ ____
ROOT
ATOM      1  N   UNL     1       0.711  -0.485   1.190  0.00  0.00    -0.301 N 
ATOM      2  C   UNL     1       0.052  -0.627   2.357  0.00  0.00    +0.300 C 
ATOM      3  O   UNL     1      -1.126  -0.347   2.427  0.00  0.00    -0.265 OA
ATOM      4  H   UNL     1       1.653  -0.709   1.135  0.00  0.00    +0.150 HD
ENDROOT
BRANCH   2   5
ATOM      5  C   UNL     1       0.773  -1.130   3.565  0.00  0.00    +0.303 C 
ATOM      6  O   UNL     1       1.952  -1.410   3.495  0.00  0.00    -0.265 OA
ATOM      7  N   UNL     1       0.114  -1.272   4.732  0.00  0.00    -0.278 N 
ATOM      8  H   UNL     1      -0.810  -0.986   4.806  0.00  0.00    +0.155 HD
BRANCH   7   9
ATOM      9  C   UNL     1       0.762  -1.833   5.836  0.00  0.00    +0.035 A 
ATOM     10  C   UNL     1       2.114  -1.586   6.049  0.00  0.00    +0.025 A 
ATOM     11  C   UNL     1       2.760  -2.137   7.138  0.00  0.00    +0.023 A 
ATOM     12  C   UNL     1       2.067  -2.939   8.025  0.00  0.00    +0.058 A 
ATOM     13  C   UNL     1       0.708  -3.193   7.821  0.00  0.00    +0.072 A 
ATOM     14  C   UNL     1       0.055  -2.631   6.723  0.00  0.00    +0.043 A 
ATOM     15 CL   UNL     1       2.884  -3.630   9.392  0.00  0.00    -0.082 Cl
BRANCH  13  16
ATOM     16  C   UNL     1      -0.014  -4.023   8.738  0.00  0.00    +0.101 C 
ATOM     17  N   UNL     1      -0.587  -4.682   9.465  0.00  0.00    -0.191 NA
ENDBRANCH  13  16
ENDBRANCH   7   9
ENDBRANCH   2   5
BRANCH   1  19
ATOM     18  C   UNL     1      -0.005   1.538   0.018  0.00  0.00    +0.033 C 
ATOM     19  C   UNL     1       0.005   0.008   0.005  0.00  0.00    +0.101 C 
BRANCH  19  20
ATOM     20  C   UNL     1       0.705  -0.479  -1.237  0.00  0.00    -0.026 A 
ATOM     21  C   UNL     1       2.086  -0.509  -1.284  0.00  0.00    +0.007 A 
ATOM     22  C   UNL     1       2.730  -0.956  -2.423  0.00  0.00    +0.022 A 
ATOM     23  C   UNL     1       1.992  -1.374  -3.516  0.00  0.00    +0.059 A 
ATOM     24  C   UNL     1       0.608  -1.344  -3.468  0.00  0.00    +0.060 A 
ATOM     25  C   UNL     1      -0.034  -0.902  -2.325  0.00  0.00    +0.027 A 
ATOM     26 CL   UNL     1      -0.320  -1.868  -4.839  0.00  0.00    -0.082 Cl
ATOM     27 CL   UNL     1       2.799  -1.935  -4.946  0.00  0.00    -0.082 Cl
ENDBRANCH  19  20
ENDBRANCH   1  19
TORSDOF 5
