REMARK  Name = ZINC39634920
REMARK  7 active torsions:
REMARK  status: ('A' for Active; 'I' for Inactive)
REMARK    1  A    between atoms: C_1  and  O_2
REMARK    2  A    between atoms: O_2  and  C_3
REMARK    3  A    between atoms: C_6  and  C_9
REMARK    4  A    between atoms: C_9  and  C_10
REMARK    5  A    between atoms: C_10  and  N_11
REMARK    6  A    between atoms: C_12  and  C_14
REMARK    7  A    between atoms: C_25  and  C_27
REMARK                            x       y       z     vdW  Elec       q    Type
REMARK                         _______ _______ _______ _____ _____    ______ ____
ROOT
ATOM      1  C   UNL     1      -9.234  -4.877  -2.286  0.00  0.00    +0.100 C 
ATOM      2  C   UNL     1     -10.044  -3.773  -1.571  0.00  0.00    +0.121 C 
ATOM      3  N   UNL     1     -10.669  -2.997  -2.668  0.00  0.00    -0.296 N 
ATOM      4  C   UNL     1     -11.069  -4.021  -3.662  0.00  0.00    +0.115 C 
ATOM      5  C   UNL     1      -9.912  -5.040  -3.656  0.00  0.00    -0.004 C 
ATOM      6  C   UNL     1      -8.925  -4.721  -4.775  0.00  0.00    -0.010 C 
ATOM      7  C   UNL     1      -9.605  -4.945  -6.129  0.00  0.00    -0.082 C 
ATOM      8  N   UNL     1     -10.055  -6.339  -6.228  0.00  0.00    +0.379 N 
ATOM      9  C   UNL     1     -11.073  -6.610  -5.206  0.00  0.00    -0.082 C 
ATOM     10  C   UNL     1     -10.455  -6.457  -3.813  0.00  0.00    -0.010 C 
ATOM     11  C   UNL     1     -10.835  -1.662  -2.745  0.00  0.00    +0.247 C 
ATOM     12  O   UNL     1     -10.339  -0.938  -1.904  0.00  0.00    -0.270 OA
ATOM     13  H   UNL     1     -10.448  -6.500  -7.143  0.00  0.00    -0.086 HD
ATOM     14  H   UNL     1      -9.269  -6.955  -6.090  0.00  0.00    -0.086 HD
ENDROOT
BRANCH  11  15
ATOM     15  C   UNL     1     -11.621  -1.078  -3.852  0.00  0.00    +0.038 A 
ATOM     16  C   UNL     1     -12.537  -1.865  -4.553  0.00  0.00    +0.014 A 
ATOM     17  C   UNL     1     -13.268  -1.315  -5.585  0.00  0.00    +0.022 A 
ATOM     18  C   UNL     1     -13.095   0.016  -5.927  0.00  0.00    +0.059 A 
ATOM     19  C   UNL     1     -12.188   0.803  -5.236  0.00  0.00    +0.060 A 
ATOM     20  C   UNL     1     -11.456   0.265  -4.197  0.00  0.00    +0.034 A 
ATOM     21 CL   UNL     1     -11.978   2.470  -5.671  0.00  0.00    -0.082 Cl
ATOM     22 CL   UNL     1     -14.018   0.701  -7.228  0.00  0.00    -0.082 Cl
ENDBRANCH  11  15
BRANCH   1  24
ATOM     23  N   UNL     1      -6.832  -5.375  -2.602  0.00  0.00    -0.315 N 
ATOM     24  C   UNL     1      -7.800  -4.448  -2.457  0.00  0.00    +0.218 C 
ATOM     25  O   UNL     1      -7.516  -3.269  -2.465  0.00  0.00    -0.275 OA
ATOM     26  H   UNL     1      -7.058  -6.318  -2.596  0.00  0.00    +0.149 HD
BRANCH  23  27
ATOM     27  C   UNL     1      -5.437  -4.958  -2.769  0.00  0.00    +0.109 C 
BRANCH  27  28
ATOM     28  C   UNL     1      -4.548  -6.195  -2.912  0.00  0.00    +0.054 C 
BRANCH  28  32
ATOM     29  C   UNL     1      -0.481  -4.978  -3.398  0.00  0.00    +0.120 A 
ATOM     30  C   UNL     1      -0.991  -5.205  -2.128  0.00  0.00    +0.046 A 
ATOM     31  C   UNL     1      -2.306  -5.598  -1.974  0.00  0.00    +0.007 A 
ATOM     32  C   UNL     1      -3.114  -5.766  -3.083  0.00  0.00    -0.046 A 
ATOM     33  C   UNL     1      -2.608  -5.541  -4.350  0.00  0.00    +0.007 A 
ATOM     34  C   UNL     1      -1.295  -5.142  -4.510  0.00  0.00    +0.046 A 
BRANCH  29  36
ATOM     35  C   UNL     1       1.592  -4.443  -2.365  0.00  0.00    +0.277 C 
ATOM     36  O   UNL     1       0.813  -4.591  -3.553  0.00  0.00    -0.495 OA
ENDBRANCH  29  36
ENDBRANCH  28  32
ENDBRANCH  27  28
ENDBRANCH  23  27
ENDBRANCH   1  24
TORSDOF 6
