REMARK  Name = ZINC63503194
REMARK  9 active torsions:
REMARK  status: ('A' for Active; 'I' for Inactive)
REMARK    1  A    between atoms: C_1  and  C_2
REMARK    2  A    between atoms: C_5  and  N_8
REMARK    3  A    between atoms: C_9  and  C_11
REMARK    4  A    between atoms: C_11  and  C_13
REMARK    5  A    between atoms: C_11  and  N_23
REMARK    6  A    between atoms: C_13  and  C_14
REMARK    7  A    between atoms: C_24  and  C_26
REMARK    8  A    between atoms: C_26  and  C_27
REMARK    9  A    between atoms: C_26  and  C_33
REMARK                            x       y       z     vdW  Elec       q    Type
REMARK                         _______ _______ _______ _____ _____    ______ ____
ROOT
ATOM      1  C   UNL     1       1.366  -6.002   1.872  0.00  0.00    +0.163 C 
ENDROOT
BRANCH   1   3
ATOM      2  N   UNL     1       1.649  -3.670   1.097  0.00  0.00    -0.284 N 
ATOM      3  C   UNL     1       1.232  -4.513   2.063  0.00  0.00    +0.238 C 
ATOM      4  O   UNL     1       0.750  -4.073   3.085  0.00  0.00    -0.273 OA
ATOM      5  H   UNL     1       1.970  -4.022   0.252  0.00  0.00    +0.155 HD
BRANCH   2  10
ATOM      6  C   UNL     1       1.526   1.933   1.977  0.00  0.00    +0.044 C 
ATOM      7  C   UNL     1       1.559   0.444   1.743  0.00  0.00    -0.050 A 
ATOM      8  C   UNL     1       0.563  -0.359   2.269  0.00  0.00    +0.005 A 
ATOM      9  C   UNL     1       0.590  -1.723   2.057  0.00  0.00    +0.023 A 
ATOM     10  C   UNL     1       1.618  -2.288   1.313  0.00  0.00    +0.033 A 
ATOM     11  C   UNL     1       2.616  -1.479   0.786  0.00  0.00    +0.023 A 
ATOM     12  C   UNL     1       2.581  -0.115   0.998  0.00  0.00    +0.005 A 
ENDBRANCH   2  10
ENDBRANCH   1   3
BRANCH   1  13
ATOM     13  N   UNL     1       0.846  -6.694   3.054  0.00  0.00    -0.303 N 
ATOM     14  C   UNL     1      -0.479  -6.900   3.186  0.00  0.00    +0.225 C 
ATOM     15  O   UNL     1      -1.234  -6.586   2.289  0.00  0.00    -0.275 OA
ATOM     16  H   UNL     1       1.456  -7.004   3.742  0.00  0.00    +0.149 HD
BRANCH  14  17
ATOM     17  C   UNL     1      -1.024  -7.521   4.446  0.00  0.00    +0.135 C 
BRANCH  17  18
ATOM     18  C   UNL     1      -2.530  -7.488   4.412  0.00  0.00    -0.031 A 
ATOM     19  C   UNL     1      -3.217  -8.232   3.471  0.00  0.00    +0.005 A 
ATOM     20  C   UNL     1      -4.598  -8.202   3.440  0.00  0.00    +0.000 A 
ATOM     21  C   UNL     1      -5.294  -7.428   4.349  0.00  0.00    +0.000 A 
ATOM     22  C   UNL     1      -4.607  -6.684   5.291  0.00  0.00    +0.000 A 
ATOM     23  C   UNL     1      -3.226  -6.718   5.325  0.00  0.00    +0.005 A 
ENDBRANCH  17  18
BRANCH  17  24
ATOM     24  C   UNL     1      -0.555  -8.950   4.546  0.00  0.00    -0.031 A 
ATOM     25  C   UNL     1      -0.126  -9.453   5.760  0.00  0.00    +0.005 A 
ATOM     26  C   UNL     1       0.304 -10.764   5.851  0.00  0.00    +0.000 A 
ATOM     27  C   UNL     1       0.305 -11.571   4.729  0.00  0.00    +0.000 A 
ATOM     28  C   UNL     1      -0.125 -11.068   3.515  0.00  0.00    +0.000 A 
ATOM     29  C   UNL     1      -0.559  -9.758   3.425  0.00  0.00    +0.005 A 
ENDBRANCH  17  24
ENDBRANCH  14  17
ENDBRANCH   1  13
BRANCH   1  30
ATOM     30  C   UNL     1       2.841  -6.361   1.679  0.00  0.00    +0.065 C 
BRANCH  30  31
ATOM     31  C   UNL     1       2.961  -7.821   1.325  0.00  0.00    -0.039 C 
ATOM     32  C   UNL     1       3.090  -8.349   0.087  0.00  0.00    -0.001 A 
ATOM     33  C   UNL     1       3.154  -7.746  -1.250  0.00  0.00    +0.010 A 
ATOM     34  C   UNL     1       3.288  -8.553  -2.328  0.00  0.00    +0.001 A 
ATOM     35  C   UNL     1       3.366  -9.946  -2.200  0.00  0.00    +0.002 A 
ATOM     36  C   UNL     1       3.314 -10.573  -1.006  0.00  0.00    +0.026 A 
ATOM     37  C   UNL     1       3.175  -9.823   0.194  0.00  0.00    +0.043 A 
ATOM     38  N   UNL     1       3.102 -10.192   1.450  0.00  0.00    -0.380 N 
ATOM     39  C   UNL     1       2.967  -8.991   2.283  0.00  0.00    +0.144 C 
ATOM     40  H   UNL     1       3.135 -11.105   1.775  0.00  0.00    +0.160 HD
ENDBRANCH  30  31
ENDBRANCH   1  30
TORSDOF 8
