REMARK  Name = ZINC08952464
REMARK  10 active torsions:
REMARK  status: ('A' for Active; 'I' for Inactive)
REMARK    1  A    between atoms: C_1  and  C_2
REMARK    2  A    between atoms: C_5  and  N_9
REMARK    3  A    between atoms: C_6  and  C_8
REMARK    4  A    between atoms: N_9  and  C_10
REMARK    5  A    between atoms: N_9  and  S_29
REMARK    6  A    between atoms: C_10  and  C_11
REMARK    7  A    between atoms: N_13  and  N_14
REMARK    8  A    between atoms: C_15  and  C_16
REMARK    9  A    between atoms: C_19  and  C_21
REMARK   10  A    between atoms: S_29  and  C_32
REMARK                            x       y       z     vdW  Elec       q    Type
REMARK                         _______ _______ _______ _____ _____    ______ ____
ROOT
ATOM      1  C   UNL     1      -1.160  -0.635   2.296  0.00  0.00    +0.251 C 
ATOM      2  O   UNL     1      -0.198  -0.296   2.953  0.00  0.00    -0.272 OA
ATOM      3  N   UNL     1      -1.773  -1.808   2.553  0.00  0.00    -0.206 N 
ATOM      4  H   UNL     1      -2.542  -2.078   2.027  0.00  0.00    +0.177 HD
ENDROOT
BRANCH   3   5
ATOM      5  N   UNL     1      -1.299  -2.636   3.579  0.00  0.00    -0.185 NA
ATOM      6  C   UNL     1      -1.890  -3.768   3.827  0.00  0.00    +0.176 C 
BRANCH   6   7
ATOM      7  C   UNL     1      -1.395  -4.633   4.899  0.00  0.00    +0.148 A 
ATOM      8  C   UNL     1      -1.928  -5.849   5.269  0.00  0.00    +0.051 A 
ATOM      9  C   UNL     1      -1.146  -6.327   6.328  0.00  0.00    +0.050 A 
ATOM     10  C   UNL     1      -0.181  -5.394   6.568  0.00  0.00    +0.137 A 
ATOM     11  O   UNL     1      -0.341  -4.377   5.700  0.00  0.00    -0.454 OA
BRANCH  10  12
ATOM     12  C   UNL     1       0.864  -5.484   7.606  0.00  0.00    +0.036 A 
ATOM     13  C   UNL     1       0.518  -5.783   8.926  0.00  0.00    +0.014 A 
ATOM     14  C   UNL     1       1.500  -5.870   9.890  0.00  0.00    +0.021 A 
ATOM     15  C   UNL     1       2.826  -5.651   9.556  0.00  0.00    +0.042 A 
ATOM     16  C   UNL     1       3.176  -5.348   8.251  0.00  0.00    +0.040 A 
ATOM     17  C   UNL     1       2.204  -5.263   7.274  0.00  0.00    +0.053 A 
ATOM     18 CL   UNL     1       2.644  -4.883   5.639  0.00  0.00    -0.083 Cl
ATOM     19 CL   UNL     1       4.054  -5.756  10.778  0.00  0.00    -0.083 Cl
ENDBRANCH  10  12
ENDBRANCH   6   7
ENDBRANCH   3   5
BRANCH   1  20
ATOM     20  C   UNL     1      -1.670   0.256   1.192  0.00  0.00    +0.228 C 
BRANCH  20  21
ATOM     21  N   UNL     1      -0.840   1.460   1.114  0.00  0.00    -0.198 N 
BRANCH  21  26
ATOM     22  C   UNL     1      -1.956   5.896   4.467  0.00  0.00    +0.044 C 
ATOM     23  C   UNL     1      -1.660   4.717   3.577  0.00  0.00    -0.050 A 
ATOM     24  C   UNL     1      -0.560   3.918   3.832  0.00  0.00    +0.005 A 
ATOM     25  C   UNL     1      -0.285   2.837   3.018  0.00  0.00    +0.025 A 
ATOM     26  C   UNL     1      -1.115   2.553   1.941  0.00  0.00    +0.054 A 
ATOM     27  C   UNL     1      -2.216   3.359   1.684  0.00  0.00    -0.028 A 
ATOM     28  C   UNL     1      -2.488   4.436   2.506  0.00  0.00    +0.008 A 
ATOM     29  C   UNL     1      -3.116   3.058   0.513  0.00  0.00    +0.046 C 
ENDBRANCH  21  26
BRANCH  21  30
ATOM     30  S   UNL     1       0.424   1.528   0.047  0.00  0.00    +0.043 S 
ATOM     31  O   UNL     1       0.889   0.189  -0.050  0.00  0.00    -0.155 OA
ATOM     32  O   UNL     1       1.269   2.554   0.550  0.00  0.00    -0.155 OA
ATOM     33  C   UNL     1      -0.320   2.046  -1.524  0.00  0.00    +0.218 C 
ENDBRANCH  21  30
ENDBRANCH  20  21
ENDBRANCH   1  20
TORSDOF 7
