REMARK  Name = ZINC40682224
REMARK  8 active torsions:
REMARK  status: ('A' for Active; 'I' for Inactive)
REMARK    1  A    between atoms: C_3  and  N_29
REMARK    2  A    between atoms: C_4  and  O_15
REMARK    3  A    between atoms: C_6  and  C_7
REMARK    4  A    between atoms: C_7  and  O_9
REMARK    5  A    between atoms: O_9  and  C_10
REMARK    6  A    between atoms: O_15  and  C_16
REMARK    7  A    between atoms: C_16  and  C_17
REMARK    8  A    between atoms: N_19  and  C_20
REMARK                            x       y       z     vdW  Elec       q    Type
REMARK                         _______ _______ _______ _____ _____    ______ ____
ROOT
ATOM      1  C   UNL     1      -0.017   1.393   0.033  0.00  0.00    +0.017 A 
ATOM      2  C   UNL     1       1.166   2.098   0.016  0.00  0.00    +0.027 A 
ATOM      3  C   UNL     1       2.381   1.423  -0.007  0.00  0.00    +0.067 A 
ATOM      4  C   UNL     1       2.406   0.026  -0.011  0.00  0.00    +0.143 A 
ATOM      5  C   UNL     1       1.224  -0.685   0.007  0.00  0.00    +0.062 A 
ATOM      6  C   UNL     1       0.002  -0.005   0.029  0.00  0.00    +0.063 A 
ENDROOT
BRANCH   3   7
ATOM      7  N   UNL     1       3.574   2.140  -0.025  0.00  0.00    -0.355 N 
ATOM      8  H   UNL     1       3.557   3.110  -0.022  0.00  0.00    +0.142 HD
ATOM      9  H   UNL     1       4.422   1.670  -0.040  0.00  0.00    +0.142 HD
ENDBRANCH   3   7
BRANCH   6  10
ATOM     10  C   UNL     1      -1.263  -0.760   0.048  0.00  0.00    +0.340 C 
ATOM     11  O   UNL     1      -1.245  -1.976   0.044  0.00  0.00    -0.245 OA
BRANCH  10  12
ATOM     12  O   UNL     1      -2.440  -0.104   0.070  0.00  0.00    -0.458 OA
BRANCH  12  13
ATOM     13  C   UNL     1      -3.627  -0.900   0.087  0.00  0.00    +0.177 C 
ATOM     14  C   UNL     1      -4.130  -1.131  -1.353  0.00  0.00    +0.044 C 
ATOM     15  C   UNL     1      -5.673  -1.081  -1.229  0.00  0.00    +0.004 C 
ATOM     16  C   UNL     1      -5.896   0.040  -0.183  0.00  0.00    +0.004 C 
ATOM     17  C   UNL     1      -4.750  -0.156   0.831  0.00  0.00    +0.044 C 
ENDBRANCH  12  13
ENDBRANCH  10  12
ENDBRANCH   6  10
BRANCH   4  18
ATOM     18  O   UNL     1       3.596  -0.632  -0.033  0.00  0.00    -0.481 OA
BRANCH  18  19
ATOM     19  C   UNL     1       3.548  -2.060  -0.037  0.00  0.00    +0.325 C 
BRANCH  19  20
ATOM     20  C   UNL     1       4.950  -2.611  -0.062  0.00  0.00    +0.255 C 
ATOM     21  O   UNL     1       5.898  -1.854  -0.076  0.00  0.00    -0.272 OA
ATOM     22  N   UNL     1       5.151  -3.943  -0.070  0.00  0.00    -0.283 N 
ATOM     23  H   UNL     1       4.397  -4.548   0.009  0.00  0.00    +0.155 HD
BRANCH  22  24
ATOM     24  C   UNL     1       6.450  -4.455  -0.191  0.00  0.00    +0.037 A 
ATOM     25  C   UNL     1       6.670  -5.628  -0.901  0.00  0.00    +0.027 A 
ATOM     26  C   UNL     1       7.950  -6.134  -1.022  0.00  0.00    +0.051 A 
ATOM     27  C   UNL     1       9.017  -5.473  -0.435  0.00  0.00    +0.166 A 
ATOM     28  C   UNL     1       8.799  -4.296   0.278  0.00  0.00    +0.168 A 
ATOM     29  C   UNL     1       7.517  -3.787   0.394  0.00  0.00    +0.072 A 
ATOM     30  O   UNL     1       9.997  -3.846   0.753  0.00  0.00    -0.453 OA
ATOM     31  C   UNL     1      10.891  -4.971   0.672  0.00  0.00    +0.466 C 
ATOM     32  O   UNL     1      10.352  -5.759  -0.406  0.00  0.00    -0.453 OA
ENDBRANCH  22  24
ENDBRANCH  19  20
ENDBRANCH  18  19
ENDBRANCH   4  18
TORSDOF 8
