REMARK  Name = ZINC35701367
REMARK  16 active torsions:
REMARK  status: ('A' for Active; 'I' for Inactive)
REMARK    1  A    between atoms: C_1  and  C_2
REMARK    2  A    between atoms: C_3  and  C_28
REMARK    3  A    between atoms: C_4  and  C_20
REMARK    4  A    between atoms: C_7  and  C_12
REMARK    5  A    between atoms: C_13  and  N_15
REMARK    6  A    between atoms: N_15  and  C_16
REMARK    7  A    between atoms: C_16  and  C_17
REMARK    8  A    between atoms: C_17  and  C_18
REMARK    9  A    between atoms: C_17  and  C_19
REMARK   10  A    between atoms: C_23  and  O_26
REMARK   11  A    between atoms: O_26  and  C_27
REMARK   12  A    between atoms: C_28  and  O_30
REMARK   13  A    between atoms: O_30  and  C_31
REMARK   14  A    between atoms: C_31  and  C_32
REMARK   15  A    between atoms: C_31  and  C_33
REMARK   16  A    between atoms: C_31  and  C_34
REMARK                            x       y       z     vdW  Elec       q    Type
REMARK                         _______ _______ _______ _____ _____    ______ ____
ROOT
ATOM      1  C   UNL     1       0.366   1.158   0.860  0.00  0.00    +0.066 C 
ATOM      2  C   UNL     1       0.283  -0.302   0.495  0.00  0.00    +0.053 C 
ATOM      3  C   UNL     1      -0.949  -0.925   0.435  0.00  0.00    +0.083 C 
ATOM      4  C   UNL     1      -0.981  -2.391   0.064  0.00  0.00    +0.150 C 
ATOM      5  N   UNL     1       0.325  -3.048  -0.209  0.00  0.00    -0.267 N 
ATOM      6  C   UNL     1       0.534  -4.366  -0.562  0.00  0.00    +0.048 C 
ATOM      7  C   UNL     1       1.809  -4.766  -0.767  0.00  0.00    +0.072 C 
ATOM      8  S   UNL     1       2.720  -3.266  -0.458  0.00  0.00    -0.060 S 
ATOM      9  C   UNL     1       1.431  -2.253  -0.095  0.00  0.00    +0.166 C 
ATOM     10  N   UNL     1       1.389  -0.977   0.229  0.00  0.00    -0.230 NA
ENDROOT
BRANCH   4  11
ATOM     11  C   UNL     1      -1.651  -3.140   1.187  0.00  0.00    -0.022 A 
ATOM     12  C   UNL     1      -0.975  -3.351   2.375  0.00  0.00    +0.009 A 
ATOM     13  C   UNL     1      -1.587  -4.038   3.406  0.00  0.00    +0.046 A 
ATOM     14  C   UNL     1      -2.880  -4.515   3.249  0.00  0.00    +0.120 A 
ATOM     15  C   UNL     1      -3.556  -4.301   2.057  0.00  0.00    +0.046 A 
ATOM     16  C   UNL     1      -2.942  -3.609   1.031  0.00  0.00    +0.009 A 
BRANCH  14  17
ATOM     17  O   UNL     1      -3.483  -5.191   4.262  0.00  0.00    -0.495 OA
ATOM     18  C   UNL     1      -4.816  -5.653   4.030  0.00  0.00    +0.277 C 
ENDBRANCH  14  17
ENDBRANCH   4  11
BRANCH   6  19
ATOM     19  C   UNL     1      -0.590  -5.302  -0.710  0.00  0.00    +0.091 C 
ATOM     20  C   UNL     1      -0.353  -6.610  -0.928  0.00  0.00    +0.239 C 
ATOM     21  O   UNL     1       0.916  -7.085  -0.887  0.00  0.00    -0.271 OA
BRANCH  20  22
ATOM     22  N   UNL     1      -1.405  -7.469  -1.193  0.00  0.00    -0.312 N 
ATOM     23  H   UNL     1      -2.319  -7.146  -1.149  0.00  0.00    +0.149 HD
BRANCH  22  24
ATOM     24  C   UNL     1      -1.140  -8.868  -1.540  0.00  0.00    +0.107 C 
BRANCH  24  25
ATOM     25  C   UNL     1      -2.455  -9.564  -1.895  0.00  0.00    -0.000 C 
ATOM     26  C   UNL     1      -2.166 -10.986  -2.378  0.00  0.00    +0.009 C 
ATOM     27  C   UNL     1      -3.354  -9.617  -0.658  0.00  0.00    +0.009 C 
ENDBRANCH  24  25
ENDBRANCH  22  24
ENDBRANCH  20  22
ENDBRANCH   6  19
BRANCH   3  28
ATOM     28  C   UNL     1      -2.129  -0.223   0.710  0.00  0.00    +0.340 C 
ATOM     29  O   UNL     1      -2.080   0.958   1.008  0.00  0.00    -0.245 OA
BRANCH  28  30
ATOM     30  O   UNL     1      -3.322  -0.855   0.645  0.00  0.00    -0.456 OA
BRANCH  30  31
ATOM     31  C   UNL     1      -4.485  -0.077   0.937  0.00  0.00    +0.106 C 
ATOM     32  C   UNL     1      -4.581   1.087  -0.051  0.00  0.00    +0.055 C 
ATOM     33  C   UNL     1      -5.731  -0.956   0.813  0.00  0.00    +0.055 C 
ATOM     34  C   UNL     1      -4.387   0.471   2.362  0.00  0.00    +0.055 C 
ENDBRANCH  30  31
ENDBRANCH  28  30
ENDBRANCH   3  28
TORSDOF 9
