REMARK  Name = ZINC22014947
REMARK  11 active torsions:
REMARK  status: ('A' for Active; 'I' for Inactive)
REMARK    1  A    between atoms: C_1  and  C_2
REMARK    2  A    between atoms: C_2  and  C_3
REMARK    3  A    between atoms: C_5  and  C_28
REMARK    4  A    between atoms: C_6  and  C_11
REMARK    5  A    between atoms: C_11  and  N_12
REMARK    6  A    between atoms: N_12  and  C_13
REMARK    7  A    between atoms: N_12  and  C_23
REMARK    8  A    between atoms: C_13  and  C_14
REMARK    9  A    between atoms: C_28  and  O_30
REMARK   10  A    between atoms: O_30  and  C_31
REMARK   11  A    between atoms: C_31  and  C_32
REMARK                            x       y       z     vdW  Elec       q    Type
REMARK                         _______ _______ _______ _____ _____    ______ ____
ROOT
ATOM      1  C   UNL     1       3.336  -2.114  -0.559  0.00  0.00    -0.026 C 
ENDROOT
BRANCH   1   4
ATOM      2  C   UNL     1      -0.040  -0.718  -1.789  0.00  0.00    +0.113 C 
ATOM      3  C   UNL     1       1.429  -0.810  -1.432  0.00  0.00    +0.072 C 
ATOM      4  C   UNL     1       1.881  -1.979  -0.927  0.00  0.00    +0.007 C 
ATOM      5  N   UNL     1       1.041  -3.040  -0.745  0.00  0.00    -0.274 N 
ATOM      6  C   UNL     1      -0.265  -3.013  -1.043  0.00  0.00    +0.304 C 
ATOM      7  O   UNL     1      -0.933  -4.008  -0.845  0.00  0.00    -0.253 OA
ATOM      8  N   UNL     1      -0.861  -1.917  -1.554  0.00  0.00    -0.292 N 
ATOM      9  H   UNL     1       1.427  -3.983  -0.333  0.00  0.00    +0.156 HD
ATOM     10  H   UNL     1      -1.934  -1.905  -1.795  0.00  0.00    +0.151 HD
BRANCH   2  12
ATOM     11  C   UNL     1      -1.583   0.043  -3.601  0.00  0.00    +0.006 C 
ATOM     12  C   UNL     1      -0.144  -0.358  -3.272  0.00  0.00    +0.024 C 
ENDBRANCH   2  12
BRANCH   3  13
ATOM     13  C   UNL     1       2.299   0.289  -1.621  0.00  0.00    +0.338 C 
ATOM     14  O   UNL     1       2.356   1.170  -0.783  0.00  0.00    -0.245 OA
BRANCH  13  15
ATOM     15  O   UNL     1       3.064   0.362  -2.730  0.00  0.00    -0.462 OA
BRANCH  15  16
ATOM     16  C   UNL     1       3.919   1.500  -2.855  0.00  0.00    +0.229 C 
ATOM     17  C   UNL     1       4.703   1.407  -4.166  0.00  0.00    +0.048 C 
ENDBRANCH  15  16
ENDBRANCH  13  15
ENDBRANCH   3  13
ENDBRANCH   1   4
BRANCH   1  18
ATOM     18  N   UNL     1       3.455  -2.363   0.883  0.00  0.00    +0.388 N 
ATOM     19  H   UNL     1       2.698  -3.111   1.161  0.00  0.00    -0.080 HD
BRANCH  18  20
ATOM     20  C   UNL     1       3.185  -1.141   1.652  0.00  0.00    -0.068 C 
ATOM     21  C   UNL     1       3.423  -1.398   3.155  0.00  0.00    -0.015 C 
ATOM     22  C   UNL     1       2.313  -0.579   3.860  0.00  0.00    -0.002 C 
ATOM     23  C   UNL     1       1.097  -0.768   2.920  0.00  0.00    -0.002 C 
ATOM     24  C   UNL     1       1.706  -0.740   1.503  0.00  0.00    -0.015 C 
ENDBRANCH  18  20
BRANCH  18  25
ATOM     25  C   UNL     1       4.777  -2.912   1.216  0.00  0.00    -0.042 C 
BRANCH  25  26
ATOM     26  C   UNL     1       4.675  -3.742   2.470  0.00  0.00    -0.060 A 
ATOM     27  C   UNL     1       4.002  -4.949   2.445  0.00  0.00    +0.005 A 
ATOM     28  C   UNL     1       3.907  -5.714   3.593  0.00  0.00    +0.050 A 
ATOM     29  C   UNL     1       4.484  -5.271   4.771  0.00  0.00    +0.166 A 
ATOM     30  C   UNL     1       5.161  -4.054   4.796  0.00  0.00    +0.166 A 
ATOM     31  C   UNL     1       5.259  -3.296   3.641  0.00  0.00    +0.051 A 
ATOM     32  O   UNL     1       5.635  -3.844   6.059  0.00  0.00    -0.453 OA
ATOM     33  C   UNL     1       5.594  -5.131   6.704  0.00  0.00    +0.466 C 
ATOM     34  O   UNL     1       4.534  -5.823   6.019  0.00  0.00    -0.453 OA
ENDBRANCH  25  26
ENDBRANCH  18  25
ENDBRANCH   1  18
TORSDOF 9
