REMARK  Name = ZINC39596001
REMARK  8 active torsions:
REMARK  status: ('A' for Active; 'I' for Inactive)
REMARK    1  A    between atoms: C_1  and  C_2
REMARK    2  A    between atoms: C_2  and  C_4
REMARK    3  A    between atoms: C_2  and  O_28
REMARK    4  A    between atoms: C_4  and  N_5
REMARK    5  A    between atoms: C_6  and  C_8
REMARK    6  A    between atoms: C_19  and  C_21
REMARK    7  A    between atoms: C_21  and  C_27
REMARK    8  A    between atoms: O_28  and  C_29
REMARK                            x       y       z     vdW  Elec       q    Type
REMARK                         _______ _______ _______ _____ _____    ______ ____
ROOT
ATOM      1  C   UNL     1      -2.144  -4.707   0.848  0.00  0.00    +0.100 C 
ATOM      2  C   UNL     1      -1.545  -4.997   2.243  0.00  0.00    +0.121 C 
ATOM      3  N   UNL     1      -2.700  -5.431   3.063  0.00  0.00    -0.300 N 
ATOM      4  C   UNL     1      -3.509  -6.271   2.147  0.00  0.00    +0.115 C 
ATOM      5  C   UNL     1      -3.431  -5.547   0.788  0.00  0.00    -0.004 C 
ATOM      6  C   UNL     1      -4.645  -4.642   0.603  0.00  0.00    -0.010 C 
ATOM      7  C   UNL     1      -5.906  -5.504   0.490  0.00  0.00    -0.082 C 
ATOM      8  N   UNL     1      -5.774  -6.418  -0.651  0.00  0.00    +0.379 N 
ATOM      9  C   UNL     1      -4.660  -7.347  -0.422  0.00  0.00    -0.082 C 
ATOM     10  C   UNL     1      -3.347  -6.563  -0.347  0.00  0.00    -0.010 C 
ATOM     11  C   UNL     1      -2.958  -5.130   4.352  0.00  0.00    +0.222 C 
ATOM     12  O   UNL     1      -2.235  -4.363   4.951  0.00  0.00    -0.275 OA
ATOM     13  H   UNL     1      -6.629  -6.942  -0.761  0.00  0.00    -0.086 HD
ATOM     14  H   UNL     1      -5.599  -5.885  -1.489  0.00  0.00    -0.086 HD
ENDROOT
BRANCH  11  15
ATOM     15  C   UNL     1      -4.144  -5.748   5.047  0.00  0.00    +0.044 C 
ATOM     16  C   UNL     1      -5.435  -5.202   4.434  0.00  0.00    +0.016 C 
ATOM     17  C   UNL     1      -5.478  -3.682   4.605  0.00  0.00    +0.001 C 
ATOM     18  C   UNL     1      -5.434  -3.335   6.094  0.00  0.00    +0.000 C 
ATOM     19  C   UNL     1      -4.142  -3.881   6.707  0.00  0.00    +0.001 C 
ATOM     20  C   UNL     1      -4.099  -5.401   6.536  0.00  0.00    +0.016 C 
ATOM     21  C   UNL     1      -4.101  -7.268   4.876  0.00  0.00    +0.021 C 
ENDBRANCH  11  15
BRANCH   1  23
ATOM     22  N   UNL     1      -2.595  -2.691  -0.513  0.00  0.00    -0.312 N 
ATOM     23  C   UNL     1      -2.468  -3.241   0.711  0.00  0.00    +0.218 C 
ATOM     24  O   UNL     1      -2.614  -2.557   1.702  0.00  0.00    -0.275 OA
ATOM     25  H   UNL     1      -2.478  -3.238  -1.305  0.00  0.00    +0.149 HD
BRANCH  22  26
ATOM     26  C   UNL     1      -2.910  -1.266  -0.646  0.00  0.00    +0.148 C 
BRANCH  26  28
ATOM     27  C   UNL     1      -3.326   0.588  -2.268  0.00  0.00    +0.053 C 
ATOM     28  C   UNL     1      -2.998  -0.900  -2.129  0.00  0.00    +0.187 C 
BRANCH  28  29
ATOM     29  O   UNL     1      -1.746  -1.173  -2.762  0.00  0.00    -0.488 OA
BRANCH  29  30
ATOM     30  C   UNL     1      -1.786  -1.589  -4.056  0.00  0.00    +0.121 A 
ATOM     31  C   UNL     1      -0.623  -1.999  -4.690  0.00  0.00    +0.048 A 
ATOM     32  C   UNL     1      -0.665  -2.422  -6.004  0.00  0.00    +0.042 A 
ATOM     33  C   UNL     1      -1.868  -2.436  -6.689  0.00  0.00    +0.124 A 
ATOM     34  C   UNL     1      -3.031  -2.028  -6.057  0.00  0.00    +0.042 A 
ATOM     35  C   UNL     1      -2.992  -1.611  -4.741  0.00  0.00    +0.048 A 
ATOM     36  F   UNL     1      -1.908  -2.850  -7.974  0.00  0.00    -0.205 F 
ENDBRANCH  29  30
ENDBRANCH  28  29
ENDBRANCH  26  28
ENDBRANCH  22  26
ENDBRANCH   1  23
TORSDOF 6
