REMARK  Name = ZINC61099048
REMARK  4 active torsions:
REMARK  status: ('A' for Active; 'I' for Inactive)
REMARK    1  A    between atoms: C_3  and  N_21
REMARK    2  A    between atoms: C_4  and  S_8
REMARK    3  A    between atoms: S_8  and  N_11
REMARK    4  A    between atoms: N_11  and  C_12
REMARK                            x       y       z     vdW  Elec       q    Type
REMARK                         _______ _______ _______ _____ _____    ______ ____
ROOT
ATOM      1  S   UNL     1       3.933  -0.842  -0.041  0.00  0.00    +0.093 S 
ATOM      2  O   UNL     1       4.737  -0.266   0.980  0.00  0.00    -0.148 OA
ATOM      3  O   UNL     1       3.620  -2.228  -0.072  0.00  0.00    -0.148 OA
ENDROOT
BRANCH   1   7
ATOM      4  C   UNL     1      -0.017   1.380   0.010  0.00  0.00    +0.040 A 
ATOM      5  C   UNL     1       1.169   2.088   0.002  0.00  0.00    +0.027 A 
ATOM      6  C   UNL     1       2.381   1.410  -0.013  0.00  0.00    +0.052 A 
ATOM      7  C   UNL     1       2.398   0.021  -0.021  0.00  0.00    +0.134 A 
ATOM      8  C   UNL     1       1.210  -0.682  -0.013  0.00  0.00    +0.069 A 
ATOM      9  C   UNL     1       0.002  -0.004   0.002  0.00  0.00    +0.125 A 
ATOM     10  F   UNL     1      -1.159  -0.694   0.010  0.00  0.00    -0.205 F 
BRANCH   6  11
ATOM     11  N   UNL     1       3.583   2.125  -0.021  0.00  0.00    -0.356 N 
ATOM     12  H   UNL     1       3.571   3.095  -0.016  0.00  0.00    +0.142 HD
ATOM     13  H   UNL     1       4.429   1.651  -0.032  0.00  0.00    +0.142 HD
ENDBRANCH   6  11
ENDBRANCH   1   7
BRANCH   1  14
ATOM     14  N   UNL     1       4.674  -0.491  -1.480  0.00  0.00    -0.098 NA
BRANCH  14  15
ATOM     15  C   UNL     1       5.923  -1.044  -1.776  0.00  0.00    +0.080 A 
ATOM     16  C   UNL     1       6.542  -1.891  -0.866  0.00  0.00    +0.068 A 
ATOM     17  C   UNL     1       7.778  -2.438  -1.161  0.00  0.00    +0.163 A 
ATOM     18  C   UNL     1       8.400  -2.140  -2.363  0.00  0.00    +0.193 A 
ATOM     19  C   UNL     1       7.784  -1.294  -3.272  0.00  0.00    +0.163 A 
ATOM     20  C   UNL     1       6.545  -0.750  -2.983  0.00  0.00    +0.068 A 
ATOM     21  F   UNL     1       8.391  -1.004  -4.444  0.00  0.00    -0.202 F 
ATOM     22  F   UNL     1       9.607  -2.674  -2.650  0.00  0.00    -0.199 F 
ATOM     23  F   UNL     1       8.380  -3.262  -0.275  0.00  0.00    -0.202 F 
ENDBRANCH  14  15
ENDBRANCH   1  14
TORSDOF 4
