REMARK  Name = ZINC05456773
REMARK  8 active torsions:
REMARK  status: ('A' for Active; 'I' for Inactive)
REMARK    1  A    between atoms: C_1  and  C_2
REMARK    2  A    between atoms: C_2  and  C_3
REMARK    3  A    between atoms: C_3  and  O_4
REMARK    4  A    between atoms: O_4  and  C_5
REMARK    5  A    between atoms: C_8  and  C_11
REMARK    6  A    between atoms: C_18  and  N_31
REMARK    7  A    between atoms: C_19  and  C_29
REMARK    8  A    between atoms: C_20  and  C_22
REMARK                            x       y       z     vdW  Elec       q    Type
REMARK                         _______ _______ _______ _____ _____    ______ ____
ROOT
ATOM      1  C   UNL     1       3.231  -4.417  -5.633  0.00  0.00    +0.100 A 
ATOM      2  C   UNL     1       3.957  -5.612  -5.595  0.00  0.00    +0.054 A 
ATOM      3  C   UNL     1       4.397  -5.879  -6.859  0.00  0.00    +0.223 A 
ATOM      4  N   UNL     1       3.964  -4.886  -7.663  0.00  0.00    -0.246 N 
ATOM      5  H   UNL     1       4.127  -4.811  -8.617  0.00  0.00    +0.192 HD
ATOM      6  N   UNL     1       3.231  -3.982  -6.879  0.00  0.00    -0.171 NA
ATOM      7  O   UNL     1       5.134  -6.977  -7.161  0.00  0.00    -0.423 OA
ATOM      8  C   UNL     1       5.200  -7.957  -6.238  0.00  0.00    +0.200 C 
ATOM      9  C   UNL     1       4.808  -7.809  -4.953  0.00  0.00    +0.098 C 
ATOM     10  C   UNL     1       4.254  -6.510  -4.423  0.00  0.00    +0.102 C 
ENDROOT
BRANCH  10  11
ATOM     11  C   UNL     1       5.269  -5.853  -3.523  0.00  0.00    -0.032 A 
ATOM     12  C   UNL     1       6.517  -5.522  -4.016  0.00  0.00    +0.005 A 
ATOM     13  C   UNL     1       7.450  -4.920  -3.193  0.00  0.00    +0.003 A 
ATOM     14  C   UNL     1       7.135  -4.648  -1.875  0.00  0.00    +0.038 A 
ATOM     15  C   UNL     1       5.885  -4.979  -1.379  0.00  0.00    +0.124 A 
ATOM     16  C   UNL     1       4.950  -5.577  -2.208  0.00  0.00    +0.043 A 
ATOM     17  F   UNL     1       5.576  -4.714  -0.091  0.00  0.00    -0.205 F 
ENDBRANCH  10  11
BRANCH   1  21
ATOM     18  C   UNL     1       1.341  -2.529  -2.322  0.00  0.00    +0.121 A 
ATOM     19  C   UNL     1       1.908  -1.759  -3.328  0.00  0.00    +0.046 A 
ATOM     20  C   UNL     1       2.521  -2.368  -4.403  0.00  0.00    +0.013 A 
ATOM     21  C   UNL     1       2.572  -3.759  -4.478  0.00  0.00    +0.003 A 
ATOM     22  C   UNL     1       2.003  -4.529  -3.466  0.00  0.00    +0.013 A 
ATOM     23  C   UNL     1       1.395  -3.915  -2.392  0.00  0.00    +0.046 A 
BRANCH  18  24
ATOM     24  O   UNL     1       0.738  -1.926  -1.265  0.00  0.00    -0.492 OA
BRANCH  24  25
ATOM     25  C   UNL     1       0.718  -0.497  -1.257  0.00  0.00    +0.229 C 
BRANCH  25  27
ATOM     26  C   UNL     1      -0.019   1.526   0.010  0.00  0.00    +0.007 C 
ATOM     27  C   UNL     1       0.002  -0.004   0.002  0.00  0.00    +0.038 C 
ENDBRANCH  25  27
ENDBRANCH  24  25
ENDBRANCH  18  24
ENDBRANCH   1  21
BRANCH   8  28
ATOM     28  N   UNL     1       5.696  -9.178  -6.625  0.00  0.00    -0.328 N 
ATOM     29  H   UNL     1       5.986  -9.315  -7.540  0.00  0.00    +0.145 HD
ATOM     30  H   UNL     1       5.756  -9.902  -5.983  0.00  0.00    +0.145 HD
ENDBRANCH   8  28
BRANCH   9  31
ATOM     31  C   UNL     1       4.921  -8.925  -4.063  0.00  0.00    +0.101 C 
ATOM     32  N   UNL     1       5.011  -9.810  -3.357  0.00  0.00    -0.191 NA
ENDBRANCH   9  31
TORSDOF 7
