REMARK  Name = ZINC19941645
REMARK  12 active torsions:
REMARK  status: ('A' for Active; 'I' for Inactive)
REMARK    1  A    between atoms: C_1  and  C_2
REMARK    2  A    between atoms: C_2  and  C_3
REMARK    3  A    between atoms: C_3  and  C_4
REMARK    4  A    between atoms: C_3  and  C_5
REMARK    5  A    between atoms: C_3  and  N_6
REMARK    6  A    between atoms: C_7  and  C_11
REMARK    7  A    between atoms: C_11  and  C_13
REMARK    8  A    between atoms: C_11  and  N_27
REMARK    9  A    between atoms: C_17  and  C_26
REMARK   10  A    between atoms: C_19  and  C_25
REMARK   11  A    between atoms: N_30  and  C_33
REMARK   12  A    between atoms: C_38  and  C_39
REMARK                            x       y       z     vdW  Elec       q    Type
REMARK                         _______ _______ _______ _____ _____    ______ ____
ROOT
ATOM      1  C   UNL     1      -2.243   0.887  -0.115  0.00  0.00    +0.162 C 
ENDROOT
BRANCH   1   2
ATOM      2  C   UNL     1      -1.112   1.850  -0.366  0.00  0.00    +0.042 A 
ATOM      3  C   UNL     1       0.124   1.378  -0.665  0.00  0.00    +0.021 A 
ATOM      4  C   UNL     1       1.200   2.340  -0.909  0.00  0.00    -0.001 A 
ATOM      5  C   UNL     1       2.494   1.913  -1.227  0.00  0.00    +0.013 A 
ATOM      6  C   UNL     1       3.476   2.836  -1.450  0.00  0.00    -0.050 A 
ATOM      7  C   UNL     1       3.202   4.194  -1.363  0.00  0.00    +0.008 A 
ATOM      8  C   UNL     1       1.935   4.637  -1.051  0.00  0.00    -0.026 A 
ATOM      9  C   UNL     1       0.918   3.716  -0.821  0.00  0.00    +0.052 A 
ATOM     10  N   UNL     1      -0.358   4.132  -0.506  0.00  0.00    -0.322 N 
ATOM     11  H   UNL     1      -0.585   5.206  -0.435  0.00  0.00    +0.169 HD
ATOM     12  C   UNL     1      -1.340   3.241  -0.283  0.00  0.00    +0.254 A 
ATOM     13  O   UNL     1      -2.457   3.644  -0.008  0.00  0.00    -0.268 OA
ATOM     14  C   UNL     1       1.651   6.115  -0.961  0.00  0.00    +0.046 C 
ATOM     15  C   UNL     1       4.869   2.376  -1.792  0.00  0.00    +0.044 C 
ENDBRANCH   1   2
BRANCH   1  16
ATOM     16  N   UNL     1      -2.841   1.166   1.197  0.00  0.00    -0.286 NA
ATOM     17  C   UNL     1      -1.849   1.015   2.271  0.00  0.00    +0.104 C 
ATOM     18  C   UNL     1      -2.489   1.390   3.610  0.00  0.00    +0.120 C 
ATOM     19  N   UNL     1      -3.655   0.529   3.850  0.00  0.00    -0.327 N 
ATOM     20  C   UNL     1      -4.648   0.680   2.777  0.00  0.00    +0.120 C 
ATOM     21  C   UNL     1      -4.008   0.305   1.438  0.00  0.00    +0.104 C 
BRANCH  19  22
ATOM     22  C   UNL     1      -4.224   0.794   5.098  0.00  0.00    +0.034 A 
ATOM     23  C   UNL     1      -4.774   2.042   5.362  0.00  0.00    +0.043 A 
ATOM     24  C   UNL     1      -5.339   2.299   6.596  0.00  0.00    +0.043 A 
ATOM     25  C   UNL     1      -5.349   1.317   7.572  0.00  0.00    +0.020 A 
ATOM     26  C   UNL     1      -4.797   0.076   7.314  0.00  0.00    +0.006 A 
ATOM     27  C   UNL     1      -4.235  -0.188   6.080  0.00  0.00    -0.029 A 
ATOM     28  C   UNL     1      -3.634  -1.542   5.800  0.00  0.00    +0.045 C 
ATOM     29 CL   UNL     1      -6.032   3.856   6.926  0.00  0.00    -0.083 Cl
ENDBRANCH  19  22
ENDBRANCH   1  16
BRANCH   1  31
ATOM     30  N   UNL     1      -3.588   0.167  -2.159  0.00  0.00    -0.222 N 
ATOM     31  C   UNL     1      -3.289   1.050  -1.188  0.00  0.00    +0.174 A 
ATOM     32  N   UNL     1      -4.087   2.077  -1.354  0.00  0.00    -0.111 NA
ATOM     33  N   UNL     1      -4.832   1.840  -2.378  0.00  0.00    -0.023 NA
ATOM     34  N   UNL     1      -4.536   0.686  -2.865  0.00  0.00    -0.043 NA
BRANCH  30  35
ATOM     35  C   UNL     1      -2.958  -1.137  -2.374  0.00  0.00    +0.062 C 
ATOM     36  C   UNL     1      -1.450  -0.951  -2.557  0.00  0.00    +0.036 C 
ATOM     37  C   UNL     1      -3.217  -2.035  -1.162  0.00  0.00    +0.036 C 
BRANCH  35  39
ATOM     38  C   UNL     1      -2.888  -3.151  -3.850  0.00  0.00    +0.006 C 
ATOM     39  C   UNL     1      -3.547  -1.789  -3.626  0.00  0.00    +0.026 C 
ENDBRANCH  35  39
ENDBRANCH  30  35
ENDBRANCH   1  31
TORSDOF 6
