REMARK  Name = ZINC19827537
REMARK  6 active torsions:
REMARK  status: ('A' for Active; 'I' for Inactive)
REMARK    1  A    between atoms: C_1  and  N_2
REMARK    2  A    between atoms: C_3  and  S_12
REMARK    3  A    between atoms: N_4  and  C_5
REMARK    4  A    between atoms: S_12  and  C_13
REMARK    5  A    between atoms: N_18  and  C_21
REMARK    6  A    between atoms: C_24  and  C_27
REMARK                            x       y       z     vdW  Elec       q    Type
REMARK                         _______ _______ _______ _____ _____    ______ ____
ROOT
ATOM      1  C   UNL     1      -4.247  -1.194   0.009  0.00  0.00    +0.149 C 
ATOM      2  C   UNL     1      -5.472  -0.291   0.259  0.00  0.00    +0.120 C 
ATOM      3  C   UNL     1      -5.926  -0.686   1.647  0.00  0.00    +0.228 C 
ATOM      4  O   UNL     1      -6.873  -0.213   2.238  0.00  0.00    -0.275 OA
ATOM      5  N   UNL     1      -5.117  -1.643   2.120  0.00  0.00    -0.209 N 
ATOM      6  C   UNL     1      -4.136  -2.008   1.280  0.00  0.00    +0.240 C 
ATOM      7  O   UNL     1      -3.296  -2.853   1.501  0.00  0.00    -0.274 OA
ENDROOT
BRANCH   5   8
ATOM      8  C   UNL     1      -5.281  -2.215   3.384  0.00  0.00    +0.044 A 
ATOM      9  C   UNL     1      -6.384  -3.023   3.641  0.00  0.00    +0.025 A 
ATOM     10  C   UNL     1      -6.549  -3.590   4.885  0.00  0.00    +0.017 A 
ATOM     11  C   UNL     1      -5.606  -3.351   5.891  0.00  0.00    +0.063 A 
ATOM     12  C   UNL     1      -4.499  -2.538   5.627  0.00  0.00    +0.017 A 
ATOM     13  C   UNL     1      -4.338  -1.980   4.379  0.00  0.00    +0.025 A 
BRANCH  11  14
ATOM     14  C   UNL     1      -5.779  -3.955   7.223  0.00  0.00    +0.387 C 
ATOM     15  O   UNL     1      -6.748  -4.665   7.452  0.00  0.00    -0.241 OA
ATOM     16  O   UNL     1      -4.954  -3.745   8.101  0.00  0.00    -0.241 OA
ENDBRANCH  11  14
ENDBRANCH   5   8
BRANCH   1  17
ATOM     17  S   UNL     1      -2.756  -0.193  -0.240  0.00  0.00    -0.077 S 
BRANCH  17  20
ATOM     18  C   UNL     1       0.109   0.465  -0.833  0.00  0.00    +0.127 C 
ATOM     19  N   UNL     1      -0.214  -0.964  -0.836  0.00  0.00    -0.327 N 
ATOM     20  C   UNL     1      -1.500  -1.378  -0.591  0.00  0.00    +0.155 C 
ATOM     21  N   UNL     1      -1.794  -2.658  -0.617  0.00  0.00    -0.226 NA
ATOM     22  H   UNL     1       0.481  -1.617  -1.012  0.00  0.00    +0.148 HD
BRANCH  21  23
ATOM     23  C   UNL     1      -0.800  -3.586  -0.787  0.00  0.00    +0.067 A 
ATOM     24  C   UNL     1       0.290  -3.614   0.085  0.00  0.00    +0.029 A 
ATOM     25  C   UNL     1       1.287  -4.550  -0.092  0.00  0.00    +0.016 A 
ATOM     26  C   UNL     1       1.208  -5.461  -1.132  0.00  0.00    +0.014 A 
ATOM     27  C   UNL     1       0.131  -5.439  -2.000  0.00  0.00    +0.016 A 
ATOM     28  C   UNL     1      -0.876  -4.511  -1.830  0.00  0.00    +0.029 A 
ATOM     29  I   UNL     1       2.728  -6.879  -1.393  0.00  0.00    -0.044 I 
ENDBRANCH  21  23
ENDBRANCH  17  20
ENDBRANCH   1  17
TORSDOF 5
