REMARK  Name = ZINC59105200
REMARK  9 active torsions:
REMARK  status: ('A' for Active; 'I' for Inactive)
REMARK    1  A    between atoms: C_5  and  C_7
REMARK    2  A    between atoms: C_7  and  O_8
REMARK    3  A    between atoms: O_8  and  C_9
REMARK    4  A    between atoms: C_12  and  C_16
REMARK    5  A    between atoms: C_17  and  C_18
REMARK    6  A    between atoms: C_17  and  C_20
REMARK    7  A    between atoms: N_22  and  C_23
REMARK    8  A    between atoms: C_23  and  C_24
REMARK    9  A    between atoms: C_24  and  C_25
REMARK                            x       y       z     vdW  Elec       q    Type
REMARK                         _______ _______ _______ _____ _____    ______ ____
ROOT
ATOM      1  C   UNL     1      -0.721  -8.240  -0.039  0.00  0.00    +0.032 C 
ATOM      2  C   UNL     1      -0.744  -8.939   1.148  0.00  0.00    +0.114 C 
ENDROOT
BRANCH   1   6
ATOM      3  C   UNL     1       0.246  -4.114  -0.048  0.00  0.00    +0.157 A 
ATOM      4  C   UNL     1      -0.813  -4.579  -0.822  0.00  0.00    +0.085 A 
ATOM      5  C   UNL     1      -1.132  -5.918  -0.823  0.00  0.00    +0.031 A 
ATOM      6  C   UNL     1      -0.387  -6.814  -0.043  0.00  0.00    -0.021 A 
ATOM      7  C   UNL     1       0.679  -6.339   0.735  0.00  0.00    +0.031 A 
ATOM      8  C   UNL     1       0.992  -4.999   0.724  0.00  0.00    +0.085 A 
ATOM      9 CL   UNL     1       2.316  -4.410   1.680  0.00  0.00    -0.080 Cl
ATOM     10 CL   UNL     1      -1.735  -3.469  -1.787  0.00  0.00    -0.080 Cl
BRANCH   3  11
ATOM     11  O   UNL     1       0.556  -2.792  -0.051  0.00  0.00    -0.484 OA
BRANCH  11  12
ATOM     12  C   UNL     1       1.495  -2.348  -1.032  0.00  0.00    +0.267 C 
BRANCH  12  17
ATOM     13  C   UNL     1       1.240   1.199   0.234  0.00  0.00    +0.001 A 
ATOM     14  C   UNL     1       2.113   1.859  -0.611  0.00  0.00    +0.003 A 
ATOM     15  C   UNL     1       2.787   1.159  -1.593  0.00  0.00    +0.039 A 
ATOM     16  C   UNL     1       2.588  -0.205  -1.730  0.00  0.00    +0.130 A 
ATOM     17  C   UNL     1       1.713  -0.865  -0.884  0.00  0.00    +0.025 A 
ATOM     18  C   UNL     1       1.040  -0.162   0.098  0.00  0.00    +0.010 A 
ATOM     19  F   UNL     1       3.246  -0.891  -2.690  0.00  0.00    -0.205 F 
ENDBRANCH  12  17
ENDBRANCH  11  12
ENDBRANCH   3  11
ENDBRANCH   1   6
BRANCH   2  20
ATOM     20  C   UNL     1      -0.651  -8.220   2.428  0.00  0.00    +0.254 C 
ATOM     21  O   UNL     1      -0.690  -7.004   2.446  0.00  0.00    -0.269 OA
ATOM     22  N   UNL     1      -0.522  -8.907   3.580  0.00  0.00    -0.310 N 
ATOM     23  H   UNL     1      -0.490  -9.877   3.565  0.00  0.00    +0.149 HD
BRANCH  22  24
ATOM     24  C   UNL     1      -0.429  -8.191   4.854  0.00  0.00    +0.109 C 
BRANCH  24  25
ATOM     25  C   UNL     1      -0.290  -9.198   5.997  0.00  0.00    +0.056 C 
BRANCH  25  26
ATOM     26  C   UNL     1      -0.194  -8.461   7.308  0.00  0.00    -0.021 A 
ATOM     27  C   UNL     1       0.933  -8.111   7.947  0.00  0.00    +0.087 A 
ATOM     28  N   UNL     1       0.627  -7.455   9.108  0.00  0.00    -0.360 N 
ATOM     29  H   UNL     1       1.276  -7.106   9.738  0.00  0.00    +0.165 HD
ATOM     30  C   UNL     1      -0.740  -7.364   9.248  0.00  0.00    +0.047 A 
ATOM     31  C   UNL     1      -1.314  -7.985   8.123  0.00  0.00    +0.003 A 
ATOM     32  C   UNL     1      -2.703  -8.039   7.991  0.00  0.00    +0.010 A 
ATOM     33  C   UNL     1      -3.498  -7.485   8.954  0.00  0.00    +0.001 A 
ATOM     34  C   UNL     1      -2.936  -6.868  10.063  0.00  0.00    +0.002 A 
ATOM     35  C   UNL     1      -1.568  -6.811  10.219  0.00  0.00    +0.026 A 
ENDBRANCH  25  26
ENDBRANCH  24  25
ENDBRANCH  22  24
ENDBRANCH   2  20
BRANCH   2  36
ATOM     36  C   UNL     1      -0.858 -10.367   1.136  0.00  0.00    +0.104 C 
ATOM     37  N   UNL     1      -0.949 -11.499   1.126  0.00  0.00    -0.191 NA
ENDBRANCH   2  36
TORSDOF 9
