REMARK  Name = ZINC38894128
REMARK  8 active torsions:
REMARK  status: ('A' for Active; 'I' for Inactive)
REMARK    1  A    between atoms: C_1  and  N_2
REMARK    2  A    between atoms: N_2  and  C_3
REMARK    3  A    between atoms: N_2  and  S_4
REMARK    4  A    between atoms: S_4  and  C_7
REMARK    5  A    between atoms: C_16  and  C_18
REMARK    6  A    between atoms: N_23  and  C_25
REMARK    7  A    between atoms: C_25  and  C_26
REMARK    8  A    between atoms: C_28  and  C_31
REMARK                            x       y       z     vdW  Elec       q    Type
REMARK                         _______ _______ _______ _____ _____    ______ ____
ROOT
ATOM      1  C   UNL     1      -3.717  -1.675  -7.949  0.00  0.00    +0.059 C 
ATOM      2  C   UNL     1      -2.315  -1.830  -8.545  0.00  0.00    +0.009 C 
ATOM      3  C   UNL     1      -2.439  -2.229 -10.019  0.00  0.00    -0.018 C 
ATOM      4  C   UNL     1      -3.270  -1.178 -10.758  0.00  0.00    -0.078 C 
ATOM      5  N   UNL     1      -4.607  -1.097 -10.158  0.00  0.00    +0.386 N 
ATOM      6  C   UNL     1      -4.503  -0.646  -8.765  0.00  0.00    -0.065 C 
ATOM      7  H   UNL     1      -5.042  -2.007 -10.183  0.00  0.00    -0.081 HD
ENDROOT
BRANCH   1  17
ATOM      8  C   UNL     1      -3.036  -1.607  -1.419  0.00  0.00    +0.106 A 
ATOM      9  C   UNL     1      -3.002  -0.468  -2.202  0.00  0.00    +0.030 A 
ATOM     10  C   UNL     1      -3.177  -0.558  -3.566  0.00  0.00    +0.026 A 
ATOM     11  C   UNL     1      -3.389  -1.800  -4.168  0.00  0.00    +0.040 A 
ATOM     12  C   UNL     1      -3.420  -2.935  -3.375  0.00  0.00    -0.023 A 
ATOM     13  C   UNL     1      -3.239  -2.841  -2.008  0.00  0.00    +0.034 A 
ATOM     14  C   UNL     1      -3.662  -4.136  -4.262  0.00  0.00    +0.056 C 
ATOM     15  C   UNL     1      -3.768  -3.553  -5.681  0.00  0.00    +0.118 C 
ATOM     16  N   UNL     1      -3.587  -2.108  -5.517  0.00  0.00    -0.271 N 
ATOM     17  C   UNL     1      -3.608  -1.209  -6.521  0.00  0.00    +0.221 C 
ATOM     18  O   UNL     1      -3.539  -0.023  -6.274  0.00  0.00    -0.275 OA
BRANCH   8  19
ATOM     19  S   UNL     1      -2.812  -1.488   0.325  0.00  0.00    +0.060 S 
ATOM     20  O   UNL     1      -3.425  -2.637   0.893  0.00  0.00    -0.153 OA
ATOM     21  O   UNL     1      -3.184  -0.166   0.693  0.00  0.00    -0.153 OA
BRANCH  19  23
ATOM     22  C   UNL     1      -0.348  -0.422   0.650  0.00  0.00    +0.131 C 
ATOM     23  N   UNL     1      -1.188  -1.622   0.621  0.00  0.00    -0.183 NA
ATOM     24  C   UNL     1      -0.593  -2.940   0.854  0.00  0.00    +0.131 C 
ENDBRANCH  19  23
ENDBRANCH   8  19
ENDBRANCH   1  17
BRANCH   5  25
ATOM     25  C   UNL     1      -5.426  -0.144 -10.919  0.00  0.00    +0.022 C 
BRANCH  25  26
ATOM     26  C   UNL     1      -5.646  -0.672 -12.313  0.00  0.00    +0.211 A 
ATOM     27  N   UNL     1      -6.636  -1.428 -12.694  0.00  0.00    -0.193 NA
ATOM     28  C   UNL     1      -6.521  -1.713 -14.003  0.00  0.00    +0.202 A 
ATOM     29  N   UNL     1      -5.442  -1.129 -14.465  0.00  0.00    -0.056 NA
ATOM     30  O   UNL     1      -4.859  -0.438 -13.371  0.00  0.00    -0.340 OA
BRANCH  28  31
ATOM     31  C   UNL     1      -7.460  -2.548 -14.793  0.00  0.00    +0.023 A 
ATOM     32  C   UNL     1      -8.579  -3.109 -14.182  0.00  0.00    +0.014 A 
ATOM     33  C   UNL     1      -9.449  -3.885 -14.920  0.00  0.00    +0.039 A 
ATOM     34  C   UNL     1      -9.211  -4.105 -16.267  0.00  0.00    +0.123 A 
ATOM     35  C   UNL     1      -8.100  -3.549 -16.879  0.00  0.00    +0.039 A 
ATOM     36  C   UNL     1      -7.227  -2.768 -16.149  0.00  0.00    +0.014 A 
ATOM     37  F   UNL     1     -10.066  -4.865 -16.986  0.00  0.00    -0.205 F 
ENDBRANCH  28  31
ENDBRANCH  25  26
ENDBRANCH   5  25
TORSDOF 6
