REMARK  Name = ZINC67104102
REMARK  10 active torsions:
REMARK  status: ('A' for Active; 'I' for Inactive)
REMARK    1  A    between atoms: C_1  and  C_2
REMARK    2  A    between atoms: C_4  and  N_9
REMARK    3  A    between atoms: C_10  and  C_12
REMARK    4  A    between atoms: C_12  and  N_13
REMARK    5  A    between atoms: N_16  and  N_17
REMARK    6  A    between atoms: C_18  and  C_20
REMARK    7  A    between atoms: C_20  and  C_21
REMARK    8  A    between atoms: C_21  and  C_22
REMARK    9  A    between atoms: C_22  and  C_23
REMARK   10  A    between atoms: C_22  and  C_24
REMARK                            x       y       z     vdW  Elec       q    Type
REMARK                         _______ _______ _______ _____ _____    ______ ____
ROOT
ATOM      1  N   UNL     1       0.383  -6.289  -3.478  0.00  0.00    -0.290 N 
ATOM      2  C   UNL     1       0.500  -7.151  -4.506  0.00  0.00    +0.316 C 
ATOM      3  O   UNL     1       0.507  -6.737  -5.650  0.00  0.00    -0.251 OA
ATOM      4  N   UNL     1       0.608  -8.473  -4.268  0.00  0.00    -0.218 N 
ATOM      5  H   UNL     1       0.376  -6.619  -2.566  0.00  0.00    +0.151 HD
ATOM      6  H   UNL     1       0.692  -9.094  -5.009  0.00  0.00    +0.174 HD
ENDROOT
BRANCH   4   7
ATOM      7  N   UNL     1       0.599  -8.951  -2.951  0.00  0.00    -0.233 N 
ATOM      8  C   UNL     1       0.708 -10.273  -2.713  0.00  0.00    +0.229 C 
ATOM      9  O   UNL     1       0.813 -11.049  -3.639  0.00  0.00    -0.274 OA
ATOM     10  H   UNL     1       0.515  -8.330  -2.211  0.00  0.00    +0.173 HD
BRANCH   8  11
ATOM     11  C   UNL     1       0.698 -10.787  -1.296  0.00  0.00    +0.097 C 
BRANCH  11  12
ATOM     12  C   UNL     1       0.834 -12.311  -1.305  0.00  0.00    +0.012 C 
BRANCH  12  13
ATOM     13  C   UNL     1       0.825 -12.832   0.133  0.00  0.00    -0.017 C 
ATOM     14  C   UNL     1      -0.539 -12.551   0.768  0.00  0.00    +0.007 C 
ATOM     15  C   UNL     1       1.085 -14.340   0.131  0.00  0.00    +0.007 C 
ENDBRANCH  12  13
ENDBRANCH  11  12
ENDBRANCH   8  11
ENDBRANCH   4   7
BRANCH   1  16
ATOM     16  C   UNL     1       0.265  -4.851  -3.737  0.00  0.00    +0.202 C 
BRANCH  16  18
ATOM     17  N   UNL     1       0.028  -2.771  -2.420  0.00  0.00    -0.284 N 
ATOM     18  C   UNL     1       0.148  -4.113  -2.428  0.00  0.00    +0.234 C 
ATOM     19  O   UNL     1       0.162  -4.727  -1.382  0.00  0.00    -0.274 OA
ATOM     20  H   UNL     1      -0.060  -2.287  -3.256  0.00  0.00    +0.155 HD
BRANCH  17  24
ATOM     21  C   UNL     1       1.619  -2.350   2.213  0.00  0.00    +0.045 C 
ATOM     22  C   UNL     1       0.793  -1.849   1.057  0.00  0.00    -0.035 A 
ATOM     23  C   UNL     1       0.792  -2.538  -0.141  0.00  0.00    +0.027 A 
ATOM     24  C   UNL     1       0.030  -2.075  -1.206  0.00  0.00    +0.034 A 
ATOM     25  C   UNL     1      -0.729  -0.921  -1.063  0.00  0.00    +0.024 A 
ATOM     26  C   UNL     1      -0.724  -0.236   0.136  0.00  0.00    +0.017 A 
ATOM     27  C   UNL     1       0.032  -0.703   1.197  0.00  0.00    +0.021 A 
ATOM     28 BR   UNL     1       0.029   0.233   2.841  0.00  0.00    -0.050 Br
ENDBRANCH  17  24
ENDBRANCH  16  18
ENDBRANCH   1  16
TORSDOF 7
