REMARK  Name = ZINC18195991
REMARK  1 active torsions:
REMARK  status: ('A' for Active; 'I' for Inactive)
REMARK    1  A    between atoms: C_6  and  C_7
REMARK                            x       y       z     vdW  Elec       q    Type
REMARK                         _______ _______ _______ _____ _____    ______ ____
ROOT
ATOM      1  C   UNL     1       2.451   3.936   0.001  0.00  0.00    +0.177 C 
ATOM      2  C   UNL     1       2.535   4.790   1.248  0.00  0.00    +0.041 C 
ATOM      3  C   UNL     1       2.378   6.130   1.213  0.00  0.00    +0.020 C 
ATOM      4  C   UNL     1       2.473   6.956   2.474  0.00  0.00    +0.052 C 
ATOM      5  C   UNL     1       1.995   6.129   3.669  0.00  0.00    +0.014 C 
ATOM      6  C   UNL     1       2.865   4.871   3.764  0.00  0.00    +0.080 C 
ATOM      7  C   UNL     1       2.786   4.124   2.461  0.00  0.00    +0.163 C 
ATOM      8  O   UNL     1       2.941   2.919   2.457  0.00  0.00    -0.292 OA
ATOM      9  N   UNL     1       2.131   6.802   0.039  0.00  0.00    -0.286 N 
ATOM     10  C   UNL     1       2.346   6.129  -1.152  0.00  0.00    +0.240 A 
ATOM     11  N   UNL     1       2.504   4.780  -1.184  0.00  0.00    -0.201 N 
ATOM     12  N   UNL     1       2.707   4.459  -2.525  0.00  0.00    -0.042 NA
ATOM     13  N   UNL     1       2.656   5.573  -3.181  0.00  0.00    -0.021 NA
ATOM     14  N   UNL     1       2.443   6.559  -2.377  0.00  0.00    -0.092 NA
ATOM     15  H   UNL     1       1.817   7.720   0.044  0.00  0.00    +0.155 HD
ENDROOT
BRANCH   1  21
ATOM     16  C   UNL     1       1.175   1.783   0.000  0.00  0.00    +0.007 A 
ATOM     17  C   UNL     1      -0.013   1.076   0.008  0.00  0.00    +0.015 A 
ATOM     18  C   UNL     1      -1.220   1.751   0.017  0.00  0.00    +0.018 A 
ATOM     19  C   UNL     1      -1.238   3.134   0.030  0.00  0.00    +0.015 A 
ATOM     20  C   UNL     1      -0.050   3.841   0.023  0.00  0.00    +0.007 A 
ATOM     21  C   UNL     1       1.156   3.166   0.009  0.00  0.00    -0.018 A 
ATOM     22 BR   UNL     1      -2.845   0.784   0.020  0.00  0.00    -0.050 Br
ENDBRANCH   1  21
TORSDOF 1
