REMARK  Name = ZINC29405273
REMARK  6 active torsions:
REMARK  status: ('A' for Active; 'I' for Inactive)
REMARK    1  A    between atoms: C_1  and  C_2
REMARK    2  A    between atoms: C_2  and  C_4
REMARK    3  A    between atoms: C_2  and  N_7
REMARK    4  A    between atoms: C_8  and  C_10
REMARK    5  A    between atoms: N_24  and  C_27
REMARK    6  A    between atoms: C_27  and  C_28
REMARK                            x       y       z     vdW  Elec       q    Type
REMARK                         _______ _______ _______ _____ _____    ______ ____
ROOT
ATOM      1  C   UNL     1       2.914  -0.850  -4.599  0.00  0.00    +0.219 C 
ATOM      2  C   UNL     1       3.354   0.002  -5.763  0.00  0.00    +0.007 C 
ATOM      3  C   UNL     1       4.221   0.967  -5.666  0.00  0.00    +0.001 C 
ATOM      4  C   UNL     1       4.906   1.337  -4.361  0.00  0.00    +0.082 C 
ATOM      5  C   UNL     1       6.154   0.471  -4.221  0.00  0.00    +0.015 C 
ATOM      6  C   UNL     1       7.050   0.984  -3.095  0.00  0.00    -0.080 C 
ATOM      7  N   UNL     1       7.445   2.366  -3.403  0.00  0.00    +0.379 N 
ATOM      8  C   UNL     1       6.265   3.240  -3.364  0.00  0.00    -0.080 C 
ATOM      9  C   UNL     1       5.248   2.819  -4.416  0.00  0.00    +0.015 C 
ATOM     10  N   UNL     1       3.951   1.044  -3.292  0.00  0.00    -0.220 N 
ATOM     11  N   UNL     1       3.111  -0.097  -3.361  0.00  0.00    -0.214 N 
ATOM     12  C   UNL     1       2.578  -0.263  -2.148  0.00  0.00    +0.349 A 
ATOM     13  O   UNL     1       1.918  -1.215  -1.783  0.00  0.00    -0.245 OA
ATOM     14  N   UNL     1       2.902   0.814  -1.402  0.00  0.00    -0.239 N 
ATOM     15  C   UNL     1       3.663   1.653  -2.142  0.00  0.00    +0.349 A 
ATOM     16  O   UNL     1       3.996   2.768  -1.798  0.00  0.00    -0.245 OA
ATOM     17  H   UNL     1       8.179   2.712  -2.661  0.00  0.00    -0.086 HD
ATOM     18  H   UNL     1       7.893   2.404  -4.407  0.00  0.00    -0.086 HD
ENDROOT
BRANCH   1  20
ATOM     19  N   UNL     1       3.644  -2.981  -5.619  0.00  0.00    -0.302 N 
ATOM     20  C   UNL     1       3.692  -2.139  -4.567  0.00  0.00    +0.242 C 
ATOM     21  O   UNL     1       4.361  -2.420  -3.596  0.00  0.00    -0.273 OA
ATOM     22  H   UNL     1       3.036  -2.727  -6.500  0.00  0.00    +0.150 HD
BRANCH  19  24
ATOM     23  C   UNL     1       5.836  -3.976  -6.048  0.00  0.00    +0.038 C 
ATOM     24  C   UNL     1       4.400  -4.235  -5.588  0.00  0.00    +0.156 C 
BRANCH  24  25
ATOM     25  C   UNL     1       3.751  -5.237  -6.508  0.00  0.00    +0.231 C 
ATOM     26  O   UNL     1       2.754  -4.933  -7.128  0.00  0.00    -0.274 OA
ATOM     27  N   UNL     1       4.278  -6.470  -6.641  0.00  0.00    -0.328 N 
ATOM     28  H   UNL     1       3.803  -7.201  -7.312  0.00  0.00    +0.145 HD
ATOM     29  H   UNL     1       5.182  -6.746  -6.078  0.00  0.00    +0.145 HD
ENDBRANCH  24  25
ENDBRANCH  19  24
ENDBRANCH   1  20
BRANCH  14  30
ATOM     30  C   UNL     1       2.489   1.045  -0.016  0.00  0.00    +0.166 C 
BRANCH  30  31
ATOM     31  C   UNL     1       1.175   1.783   0.000  0.00  0.00    -0.024 A 
ATOM     32  C   UNL     1       1.160   3.165   0.008  0.00  0.00    +0.009 A 
ATOM     33  C   UNL     1      -0.043   3.846   0.023  0.00  0.00    +0.050 A 
ATOM     34  C   UNL     1      -1.237   3.144   0.030  0.00  0.00    +0.166 A 
ATOM     35  C   UNL     1      -1.222   1.752   0.017  0.00  0.00    +0.167 A 
ATOM     36  C   UNL     1      -0.013   1.076   0.008  0.00  0.00    +0.055 A 
ATOM     37  O   UNL     1      -2.510   1.302   0.031  0.00  0.00    -0.453 OA
ATOM     38  C   UNL     1      -3.307   2.423   0.456  0.00  0.00    +0.466 C 
ATOM     39  O   UNL     1      -2.535   3.567   0.044  0.00  0.00    -0.453 OA
ENDBRANCH  30  31
ENDBRANCH  14  30
TORSDOF 5
