REMARK  Name = ZINC08605179
REMARK  6 active torsions:
REMARK  status: ('A' for Active; 'I' for Inactive)
REMARK    1  A    between atoms: C_1  and  C_2
REMARK    2  A    between atoms: C_12  and  C_16
REMARK    3  A    between atoms: C_18  and  N_19
REMARK    4  A    between atoms: N_22  and  C_23
REMARK    5  A    between atoms: C_26  and  N_29
REMARK    6  A    between atoms: C_30  and  C_32
REMARK                            x       y       z     vdW  Elec       q    Type
REMARK                         _______ _______ _______ _____ _____    ______ ____
ROOT
ATOM      1  C   UNL     1      -0.027   1.457  -0.019  0.00  0.00    +0.047 C 
ATOM      2  C   UNL     1      -0.022  -0.050  -0.020  0.00  0.00    -0.007 A 
ATOM      3  C   UNL     1      -0.030  -0.786  -1.271  0.00  0.00    +0.077 A 
ATOM      4  C   UNL     1      -0.025  -2.186  -1.139  0.00  0.00    +0.117 A 
ATOM      5  N   UNL     1      -0.031  -2.993  -2.196  0.00  0.00    -0.226 NA
ATOM      6  C   UNL     1      -0.033  -2.512  -3.407  0.00  0.00    +0.114 A 
ATOM      7  N   UNL     1      -0.037  -1.165  -3.633  0.00  0.00    -0.296 N 
ATOM      8  C   UNL     1      -0.043  -0.289  -2.615  0.00  0.00    +0.263 A 
ATOM      9  O   UNL     1      -0.058   0.911  -2.831  0.00  0.00    -0.267 OA
ATOM     10  C   UNL     1      -0.033  -0.695  -5.025  0.00  0.00    +0.127 C 
ATOM     11  C   UNL     1       1.355  -0.915  -5.622  0.00  0.00    +0.025 C 
ATOM     12  C   UNL     1       1.466  -2.287  -6.263  0.00  0.00    -0.012 C 
ATOM     13  C   UNL     1       1.359  -3.408  -5.245  0.00  0.00    +0.011 C 
ATOM     14  C   UNL     1      -0.028  -3.436  -4.602  0.00  0.00    +0.075 C 
ATOM     15  C   UNL     1       2.816  -2.395  -6.976  0.00  0.00    +0.007 C 
ATOM     16  S   UNL     1      -0.010  -2.439   0.617  0.00  0.00    -0.053 S 
ATOM     17  C   UNL     1      -0.004  -0.736   1.143  0.00  0.00    +0.079 A 
ENDROOT
BRANCH  17  18
ATOM     18  N   UNL     1       0.014  -0.232   2.445  0.00  0.00    -0.263 N 
ATOM     19  C   UNL     1       0.031  -1.077   3.495  0.00  0.00    +0.308 C 
ATOM     20  O   UNL     1       0.030  -2.279   3.308  0.00  0.00    -0.252 OA
ATOM     21  N   UNL     1       0.048  -0.591   4.751  0.00  0.00    -0.269 N 
ATOM     22  H   UNL     1       0.014   0.727   2.594  0.00  0.00    +0.157 HD
ATOM     23  H   UNL     1       0.115   0.365   4.901  0.00  0.00    +0.156 HD
BRANCH  21  24
ATOM     24  C   UNL     1      -0.033  -1.466   5.842  0.00  0.00    +0.035 A 
ATOM     25  C   UNL     1      -0.720  -1.087   6.988  0.00  0.00    +0.025 A 
ATOM     26  C   UNL     1      -0.800  -1.949   8.063  0.00  0.00    +0.025 A 
ATOM     27  C   UNL     1      -0.192  -3.196   7.998  0.00  0.00    +0.033 A 
ATOM     28  C   UNL     1       0.495  -3.576   6.853  0.00  0.00    +0.025 A 
ATOM     29  C   UNL     1       0.570  -2.715   5.776  0.00  0.00    +0.025 A 
BRANCH  27  30
ATOM     30  N   UNL     1      -0.272  -4.071   9.089  0.00  0.00    -0.286 N 
ATOM     31  C   UNL     1       0.767  -4.876   9.386  0.00  0.00    +0.214 C 
ATOM     32  O   UNL     1       1.739  -4.904   8.660  0.00  0.00    -0.276 OA
ATOM     33  C   UNL     1       0.723  -5.742  10.618  0.00  0.00    +0.109 C 
ATOM     34  H   UNL     1      -1.076  -4.098   9.632  0.00  0.00    +0.155 HD
ENDBRANCH  27  30
ENDBRANCH  21  24
ENDBRANCH  17  18
TORSDOF 3
