REMARK  Name = ZINC17784193
REMARK  8 active torsions:
REMARK  status: ('A' for Active; 'I' for Inactive)
REMARK    1  A    between atoms: C_1  and  C_2
REMARK    2  A    between atoms: C_3  and  C_16
REMARK    3  A    between atoms: N_6  and  C_9
REMARK    4  A    between atoms: C_16  and  C_18
REMARK    5  A    between atoms: C_16  and  C_25
REMARK    6  A    between atoms: C_22  and  O_24
REMARK    7  A    between atoms: C_26  and  C_38
REMARK    8  A    between atoms: N_28  and  C_31
REMARK                            x       y       z     vdW  Elec       q    Type
REMARK                         _______ _______ _______ _____ _____    ______ ____
ROOT
ATOM      1  C   UNL     1      -2.518  -0.354   0.013  0.00  0.00    +0.093 C 
ENDROOT
BRANCH   1   4
ATOM      2  C   UNL     1      -0.279   1.703   0.686  0.00  0.00    +0.065 C 
ATOM      3  C   UNL     1      -0.067   0.315   0.139  0.00  0.00    +0.039 A 
ATOM      4  C   UNL     1      -1.037  -0.575  -0.152  0.00  0.00    +0.051 A 
ATOM      5  C   UNL     1      -0.422  -1.751  -0.640  0.00  0.00    +0.276 A 
ATOM      6  O   UNL     1      -0.993  -2.765  -1.002  0.00  0.00    -0.266 OA
ATOM      7  N   UNL     1       0.912  -1.548  -0.633  0.00  0.00    -0.219 N 
ATOM      8  N   UNL     1       1.142  -0.253  -0.151  0.00  0.00    -0.294 N 
ATOM      9  H   UNL     1       2.009   0.167  -0.040  0.00  0.00    +0.187 HD
BRANCH   7  10
ATOM     10  C   UNL     1       1.888  -2.463  -1.040  0.00  0.00    +0.067 A 
ATOM     11  C   UNL     1       1.515  -3.716  -1.510  0.00  0.00    +0.029 A 
ATOM     12  C   UNL     1       2.482  -4.617  -1.911  0.00  0.00    +0.022 A 
ATOM     13  C   UNL     1       3.821  -4.274  -1.844  0.00  0.00    +0.041 A 
ATOM     14  C   UNL     1       4.195  -3.027  -1.376  0.00  0.00    +0.022 A 
ATOM     15  C   UNL     1       3.232  -2.119  -0.979  0.00  0.00    +0.029 A 
ATOM     16 CL   UNL     1       5.033  -5.410  -2.348  0.00  0.00    -0.084 Cl
ENDBRANCH   7  10
ENDBRANCH   1   4
BRANCH   1  17
ATOM     17  C   UNL     1      -3.047  -1.274   1.084  0.00  0.00    +0.051 A 
ATOM     18  C   UNL     1      -4.339  -1.409   1.444  0.00  0.00    +0.039 A 
ATOM     19  N   UNL     1      -4.414  -2.335   2.446  0.00  0.00    -0.294 N 
ATOM     20  N   UNL     1      -3.117  -2.791   2.717  0.00  0.00    -0.219 N 
ATOM     21  C   UNL     1      -2.274  -2.149   1.882  0.00  0.00    +0.276 A 
ATOM     22  O   UNL     1      -1.066  -2.295   1.828  0.00  0.00    -0.266 OA
ATOM     23  C   UNL     1      -5.504  -0.665   0.844  0.00  0.00    +0.065 C 
ATOM     24  H   UNL     1      -5.224  -2.626   2.893  0.00  0.00    +0.187 HD
BRANCH  20  25
ATOM     25  C   UNL     1      -2.761  -3.744   3.677  0.00  0.00    +0.067 A 
ATOM     26  C   UNL     1      -1.428  -4.099   3.844  0.00  0.00    +0.029 A 
ATOM     27  C   UNL     1      -1.080  -5.041   4.792  0.00  0.00    +0.022 A 
ATOM     28  C   UNL     1      -2.056  -5.630   5.576  0.00  0.00    +0.041 A 
ATOM     29  C   UNL     1      -3.384  -5.278   5.412  0.00  0.00    +0.022 A 
ATOM     30  C   UNL     1      -3.738  -4.333   4.468  0.00  0.00    +0.029 A 
ATOM     31 CL   UNL     1      -1.615  -6.814   6.766  0.00  0.00    -0.084 Cl
ENDBRANCH  20  25
ENDBRANCH   1  17
BRANCH   1  32
ATOM     32  C   UNL     1      -3.218  -0.646  -1.290  0.00  0.00    -0.032 A 
ATOM     33  C   UNL     1      -3.475  -1.954  -1.658  0.00  0.00    +0.005 A 
ATOM     34  C   UNL     1      -4.117  -2.225  -2.852  0.00  0.00    +0.004 A 
ATOM     35  C   UNL     1      -4.503  -1.189  -3.681  0.00  0.00    +0.045 A 
ATOM     36  C   UNL     1      -4.246   0.124  -3.313  0.00  0.00    +0.117 A 
ATOM     37  C   UNL     1      -3.608   0.393  -2.112  0.00  0.00    +0.050 A 
BRANCH  36  38
ATOM     38  O   UNL     1      -4.625   1.144  -4.127  0.00  0.00    -0.507 OA
ATOM     39  H   UNL     1      -5.516   1.477  -3.951  0.00  0.00    +0.292 HD
ENDBRANCH  36  38
ENDBRANCH   1  32
TORSDOF 6
