REMARK  Name = ZINC16474657
REMARK  7 active torsions:
REMARK  status: ('A' for Active; 'I' for Inactive)
REMARK    1  A    between atoms: C_4  and  C_7
REMARK    2  A    between atoms: C_7  and  C_8
REMARK    3  A    between atoms: N_11  and  C_14
REMARK    4  A    between atoms: C_14  and  C_15
REMARK    5  A    between atoms: N_17  and  C_18
REMARK    6  A    between atoms: C_22  and  S_24
REMARK    7  A    between atoms: S_24  and  N_27
REMARK                            x       y       z     vdW  Elec       q    Type
REMARK                         _______ _______ _______ _____ _____    ______ ____
ROOT
ATOM      1  C   UNL     1       6.871  -3.850   4.684  0.00  0.00    +0.201 C 
ATOM      2  O   UNL     1       7.463  -3.932   3.628  0.00  0.00    -0.278 OA
ATOM      3  N   UNL     1       7.379  -4.431   5.788  0.00  0.00    -0.287 N 
ATOM      4  H   UNL     1       6.947  -4.301   6.647  0.00  0.00    +0.155 HD
ENDROOT
BRANCH   3   5
ATOM      5  C   UNL     1       8.530  -5.221   5.697  0.00  0.00    +0.035 A 
ATOM      6  C   UNL     1       9.435  -5.258   6.750  0.00  0.00    +0.023 A 
ATOM      7  C   UNL     1      10.570  -6.039   6.656  0.00  0.00    +0.004 A 
ATOM      8  C   UNL     1      10.807  -6.783   5.515  0.00  0.00    +0.029 A 
ATOM      9  C   UNL     1       9.909  -6.747   4.464  0.00  0.00    +0.114 A 
ATOM     10  C   UNL     1       8.768  -5.974   4.554  0.00  0.00    +0.052 A 
BRANCH   9  11
ATOM     11  S   UNL     1      10.216  -7.696   3.012  0.00  0.00    +0.100 S 
ATOM     12  O   UNL     1       9.502  -7.067   1.957  0.00  0.00    -0.146 OA
ATOM     13  O   UNL     1      11.619  -7.914   2.958  0.00  0.00    -0.146 OA
BRANCH  11  14
ATOM     14  N   UNL     1       9.515  -9.180   3.239  0.00  0.00    -0.118 NA
ATOM     15  C   UNL     1       9.593 -10.080   2.313  0.00  0.00    +0.117 C 
ATOM     16  C   UNL     1       8.942 -11.446   2.518  0.00  0.00    +0.073 C 
ATOM     17  C   UNL     1       7.763 -11.528   1.572  0.00  0.00    +0.008 C 
ATOM     18  C   UNL     1       8.130 -12.067   0.188  0.00  0.00    +0.002 C 
ATOM     19  C   UNL     1       9.434 -11.484  -0.357  0.00  0.00    +0.019 C 
ATOM     20  C   UNL     1       9.567  -9.995  -0.121  0.00  0.00    +0.102 C 
ATOM     21  N   UNL     1      10.229  -9.818   1.188  0.00  0.00    -0.331 N 
ATOM     22  H   UNL     1      11.147  -9.506   1.219  0.00  0.00    +0.147 HD
ENDBRANCH  11  14
ENDBRANCH   9  11
ENDBRANCH   3   5
BRANCH   1  23
ATOM     23  C   UNL     1       5.567  -3.098   4.760  0.00  0.00    +0.019 C 
BRANCH  23  27
ATOM     24  C   UNL     1       4.551  -0.427   1.599  0.00  0.00    -0.010 C 
ATOM     25  C   UNL     1       3.517  -1.448   2.084  0.00  0.00    -0.015 C 
ATOM     26  C   UNL     1       3.906  -1.935   3.482  0.00  0.00    -0.078 C 
ATOM     27  N   UNL     1       5.232  -2.563   3.433  0.00  0.00    +0.385 N 
ATOM     28  C   UNL     1       6.239  -1.571   3.038  0.00  0.00    -0.078 C 
ATOM     29  C   UNL     1       5.940  -1.070   1.624  0.00  0.00    -0.015 C 
ATOM     30  H   UNL     1       5.222  -3.316   2.762  0.00  0.00    -0.081 HD
BRANCH  24  31
ATOM     31  C   UNL     1       4.212   0.005   0.171  0.00  0.00    +0.038 C 
BRANCH  31  35
ATOM     32  C   UNL     1       0.495   2.109   0.161  0.00  0.00    +0.000 A 
ATOM     33  C   UNL     1       1.679   2.799   0.337  0.00  0.00    +0.000 A 
ATOM     34  C   UNL     1       2.882   2.119   0.341  0.00  0.00    +0.003 A 
ATOM     35  C   UNL     1       2.901   0.747   0.168  0.00  0.00    -0.047 A 
ATOM     36  C   UNL     1       1.716   0.057  -0.007  0.00  0.00    +0.003 A 
ATOM     37  C   UNL     1       0.513   0.738  -0.012  0.00  0.00    +0.000 A 
ENDBRANCH  31  35
ENDBRANCH  24  31
ENDBRANCH  23  27
ENDBRANCH   1  23
TORSDOF 7
