REMARK  Name = ZINC20711390
REMARK  3 active torsions:
REMARK  status: ('A' for Active; 'I' for Inactive)
REMARK    1  A    between atoms: C_3  and  C_9
REMARK    2  A    between atoms: C_20  and  N_26
REMARK    3  A    between atoms: C_22  and  O_25
REMARK                            x       y       z     vdW  Elec       q    Type
REMARK                         _______ _______ _______ _____ _____    ______ ____
ROOT
ATOM      1  C   UNL     1       0.129  -2.692   0.575  0.00  0.00    +0.106 C 
ATOM      2  C   UNL     1      -1.214  -2.262  -0.021  0.00  0.00    +0.029 C 
ATOM      3  C   UNL     1      -2.340  -2.780   0.918  0.00  0.00    +0.033 C 
ATOM      4  C   UNL     1      -2.402  -1.732   2.010  0.00  0.00    -0.030 C 
ATOM      5  C   UNL     1      -1.879  -0.605   1.596  0.00  0.00    -0.023 C 
ATOM      6  C   UNL     1      -1.386  -0.741   0.174  0.00  0.00    +0.049 C 
ATOM      7  C   UNL     1      -0.087  -0.012  -0.006  0.00  0.00    -0.014 A 
ATOM      8  C   UNL     1      -0.116   1.378  -0.011  0.00  0.00    +0.039 A 
ATOM      9  C   UNL     1       1.044   2.107  -0.167  0.00  0.00    +0.130 A 
ATOM     10  C   UNL     1       2.255   1.457  -0.323  0.00  0.00    +0.080 A 
ATOM     11  C   UNL     1       2.296   0.076  -0.321  0.00  0.00    +0.140 A 
ATOM     12  C   UNL     1       1.120  -0.665  -0.163  0.00  0.00    +0.074 A 
ATOM     13  N   UNL     1       1.217  -2.059  -0.172  0.00  0.00    -0.334 N 
ATOM     14  H   UNL     1       1.985  -2.680  -0.656  0.00  0.00    +0.147 HD
ENDROOT
BRANCH   1  17
ATOM     15  C   UNL     1      -0.431  -6.281  -0.455  0.00  0.00    +0.002 A 
ATOM     16  C   UNL     1      -0.556  -4.907  -0.368  0.00  0.00    +0.007 A 
ATOM     17  C   UNL     1       0.262  -4.190   0.485  0.00  0.00    -0.007 A 
ATOM     18  C   UNL     1       1.200  -4.849   1.260  0.00  0.00    +0.064 A 
ATOM     19  C   UNL     1       1.322  -6.226   1.176  0.00  0.00    +0.060 A 
ATOM     20  C   UNL     1       0.505  -6.941   0.319  0.00  0.00    +0.021 A 
ATOM     21 CL   UNL     1       2.498  -7.054   2.148  0.00  0.00    -0.082 Cl
ATOM     22 CL   UNL     1       2.223  -3.950   2.336  0.00  0.00    -0.082 Cl
ENDBRANCH   1  17
BRANCH   9  23
ATOM     23  N   UNL     1       0.993   3.587  -0.170  0.00  0.00    +0.057 N 
ATOM     24  O   UNL     1      -0.073   4.159  -0.034  0.00  0.00    -0.126 OA
ATOM     25  O   UNL     1       2.017   4.231  -0.308  0.00  0.00    -0.126 OA
ENDBRANCH   9  23
BRANCH  11  26
ATOM     26  O   UNL     1       3.485  -0.567  -0.472  0.00  0.00    -0.505 OA
ATOM     27  H   UNL     1       3.521  -1.666  -0.471  0.00  0.00    +0.292 HD
ENDBRANCH  11  26
TORSDOF 3
