REMARK  Name = ZINC35316352
REMARK  4 active torsions:
REMARK  status: ('A' for Active; 'I' for Inactive)
REMARK    1  A    between atoms: C_3  and  C_8
REMARK    2  A    between atoms: C_11  and  C_22
REMARK    3  A    between atoms: C_17  and  N_21
REMARK    4  A    between atoms: C_18  and  C_19
REMARK                            x       y       z     vdW  Elec       q    Type
REMARK                         _______ _______ _______ _____ _____    ______ ____
ROOT
ATOM      1  C   UNL     1       3.746   2.292  -0.014  0.00  0.00    +0.102 C 
ATOM      2  C   UNL     1       4.552   1.788  -1.183  0.00  0.00    +0.054 A 
ATOM      3  C   UNL     1       4.350   1.992  -2.551  0.00  0.00    +0.100 A 
ATOM      4  N   UNL     1       5.307   1.359  -3.202  0.00  0.00    -0.171 NA
ATOM      5  N   UNL     1       6.143   0.736  -2.262  0.00  0.00    -0.246 N 
ATOM      6  H   UNL     1       6.927   0.201  -2.463  0.00  0.00    +0.192 HD
ATOM      7  C   UNL     1       5.664   1.011  -1.031  0.00  0.00    +0.223 A 
ATOM      8  O   UNL     1       6.133   0.633   0.184  0.00  0.00    -0.423 OA
ATOM      9  C   UNL     1       5.639   1.264   1.268  0.00  0.00    +0.200 C 
ATOM     10  C   UNL     1       4.539   2.050   1.246  0.00  0.00    +0.098 C 
ENDROOT
BRANCH   3  11
ATOM     11  C   UNL     1       3.253   2.782  -3.163  0.00  0.00    +0.004 A 
ATOM     12  C   UNL     1       2.879   4.005  -2.610  0.00  0.00    +0.011 A 
ATOM     13  C   UNL     1       1.858   4.737  -3.182  0.00  0.00    +0.022 A 
ATOM     14  C   UNL     1       1.205   4.257  -4.304  0.00  0.00    +0.059 A 
ATOM     15  C   UNL     1       1.572   3.042  -4.859  0.00  0.00    +0.060 A 
ATOM     16  C   UNL     1       2.597   2.306  -4.296  0.00  0.00    +0.031 A 
ATOM     17 CL   UNL     1       0.749   2.447  -6.266  0.00  0.00    -0.082 Cl
ATOM     18 CL   UNL     1      -0.079   5.182  -5.019  0.00  0.00    -0.082 Cl
ENDBRANCH   3  11
BRANCH   1  21
ATOM     19  C   UNL     1       0.043   1.566   0.114  0.00  0.00    +0.001 A 
ATOM     20  C   UNL     1       1.244   2.248   0.048  0.00  0.00    +0.004 A 
ATOM     21  C   UNL     1       2.437   1.549   0.058  0.00  0.00    -0.033 A 
ATOM     22  C   UNL     1       2.429   0.169   0.135  0.00  0.00    +0.020 A 
ATOM     23  C   UNL     1       1.227  -0.513   0.202  0.00  0.00    +0.018 A 
ATOM     24  C   UNL     1       0.034   0.187   0.191  0.00  0.00    +0.015 A 
ATOM     25 BR   UNL     1       1.216  -2.401   0.306  0.00  0.00    -0.050 Br
ENDBRANCH   1  21
BRANCH   9  26
ATOM     26  N   UNL     1       6.292   1.100   2.465  0.00  0.00    -0.328 N 
ATOM     27  H   UNL     1       7.084   0.543   2.513  0.00  0.00    +0.145 HD
ATOM     28  H   UNL     1       5.960   1.542   3.263  0.00  0.00    +0.145 HD
ENDBRANCH   9  26
BRANCH  10  29
ATOM     29  C   UNL     1       4.110   2.675   2.461  0.00  0.00    +0.101 C 
ATOM     30  N   UNL     1       3.770   3.170   3.426  0.00  0.00    -0.191 NA
ENDBRANCH  10  29
TORSDOF 4
