REMARK  Name = ZINC64636275
REMARK  8 active torsions:
REMARK  status: ('A' for Active; 'I' for Inactive)
REMARK    1  A    between atoms: C_1  and  O_2
REMARK    2  A    between atoms: O_2  and  C_3
REMARK    3  A    between atoms: C_3  and  C_5
REMARK    4  A    between atoms: C_8  and  N_19
REMARK    5  A    between atoms: N_11  and  C_12
REMARK    6  A    between atoms: C_12  and  C_13
REMARK    7  A    between atoms: C_20  and  C_22
REMARK    8  A    between atoms: C_24  and  C_33
REMARK                            x       y       z     vdW  Elec       q    Type
REMARK                         _______ _______ _______ _____ _____    ______ ____
ROOT
ATOM      1  N   UNL     1       3.914  -3.959  -0.321  0.00  0.00    -0.309 N 
ATOM      2  C   UNL     1       4.305  -5.234  -0.513  0.00  0.00    +0.240 C 
ATOM      3  O   UNL     1       3.532  -6.041  -0.985  0.00  0.00    -0.273 OA
ATOM      4  H   UNL     1       4.508  -3.331   0.120  0.00  0.00    +0.149 HD
ENDROOT
BRANCH   2   5
ATOM      5  C   UNL     1       5.703  -5.659  -0.142  0.00  0.00    +0.198 C 
ATOM      6  C   UNL     1       6.669  -5.290  -1.246  0.00  0.00    -0.000 C 
ATOM      7  C   UNL     1       7.218  -6.485  -1.679  0.00  0.00    +0.006 A 
ATOM      8  C   UNL     1       8.173  -6.793  -2.678  0.00  0.00    +0.030 A 
ATOM      9  C   UNL     1       8.530  -8.084  -2.890  0.00  0.00    +0.042 A 
ATOM     10  C   UNL     1       7.977  -9.132  -2.143  0.00  0.00    +0.022 A 
ATOM     11  C   UNL     1       7.060  -8.913  -1.173  0.00  0.00    +0.027 A 
ATOM     12  C   UNL     1       6.633  -7.587  -0.890  0.00  0.00    +0.044 A 
ATOM     13  N   UNL     1       5.770  -7.118  -0.014  0.00  0.00    -0.370 N 
ATOM     14 CL   UNL     1       9.703  -8.446  -4.118  0.00  0.00    -0.084 Cl
ATOM     15  H   UNL     1       5.260  -7.651   0.616  0.00  0.00    +0.161 HD
BRANCH   6  16
ATOM     16  C   UNL     1       6.964  -3.947  -1.752  0.00  0.00    -0.019 A 
ATOM     17  C   UNL     1       7.214  -3.747  -3.117  0.00  0.00    +0.008 A 
ATOM     18  C   UNL     1       7.489  -2.480  -3.583  0.00  0.00    +0.001 A 
ATOM     19  C   UNL     1       7.520  -1.407  -2.709  0.00  0.00    +0.000 A 
ATOM     20  C   UNL     1       7.274  -1.595  -1.359  0.00  0.00    +0.001 A 
ATOM     21  C   UNL     1       6.992  -2.853  -0.875  0.00  0.00    +0.008 A 
ENDBRANCH   6  16
ENDBRANCH   2   5
BRANCH   1  24
ATOM     22  C   UNL     1       1.136  -1.592  -0.932  0.00  0.00    +0.168 C 
ATOM     23  C   UNL     1       2.098  -2.301   0.044  0.00  0.00    +0.054 C 
ATOM     24  C   UNL     1       2.593  -3.521  -0.777  0.00  0.00    +0.089 C 
ATOM     25  C   UNL     1       2.667  -2.926  -2.206  0.00  0.00    +0.107 C 
ATOM     26  N   UNL     1       1.505  -2.012  -2.296  0.00  0.00    -0.288 NA
BRANCH  22  27
ATOM     27  C   UNL     1       1.280  -0.098  -0.799  0.00  0.00    +0.324 C 
ATOM     28  O   UNL     1       2.373   0.412  -0.870  0.00  0.00    -0.249 OA
BRANCH  27  30
ATOM     29  C   UNL     1       0.404   2.074  -0.484  0.00  0.00    +0.280 C 
ATOM     30  O   UNL     1       0.194   0.666  -0.601  0.00  0.00    -0.467 OA
ENDBRANCH  27  30
ENDBRANCH  22  27
BRANCH  26  31
ATOM     31  C   UNL     1       1.812  -0.849  -3.140  0.00  0.00    +0.088 C 
BRANCH  31  32
ATOM     32  C   UNL     1       0.513  -0.133  -3.514  0.00  0.00    +0.003 C 
ATOM     33  C   UNL     1      -0.328  -1.039  -4.416  0.00  0.00    +0.005 C 
ATOM     34  C   UNL     1      -1.627  -0.322  -4.790  0.00  0.00    +0.000 C 
ATOM     35  C   UNL     1      -1.299   0.974  -5.533  0.00  0.00    +0.000 C 
ATOM     36  C   UNL     1      -0.458   1.880  -4.630  0.00  0.00    +0.000 C 
ATOM     37  C   UNL     1       0.841   1.164  -4.256  0.00  0.00    +0.005 C 
ENDBRANCH  31  32
ENDBRANCH  26  31
ENDBRANCH   1  24
TORSDOF 7
