REMARK  Name = ZINC39673626
REMARK  9 active torsions:
REMARK  status: ('A' for Active; 'I' for Inactive)
REMARK    1  A    between atoms: C_1  and  C_2
REMARK    2  A    between atoms: C_2  and  C_3
REMARK    3  A    between atoms: C_3  and  C_4
REMARK    4  A    between atoms: C_4  and  C_6
REMARK    5  A    between atoms: C_4  and  N_7
REMARK    6  A    between atoms: C_8  and  C_10
REMARK    7  A    between atoms: C_21  and  C_23
REMARK    8  A    between atoms: C_24  and  C_35
REMARK    9  A    between atoms: C_27  and  C_28
REMARK                            x       y       z     vdW  Elec       q    Type
REMARK                         _______ _______ _______ _____ _____    ______ ____
ROOT
ATOM      1  C   UNL     1       2.161  -4.236   1.519  0.00  0.00    +0.100 C 
ATOM      2  C   UNL     1       3.622  -4.464   1.069  0.00  0.00    +0.121 C 
ATOM      3  N   UNL     1       4.053  -5.679   1.799  0.00  0.00    -0.296 N 
ATOM      4  C   UNL     1       2.866  -6.568   1.770  0.00  0.00    +0.115 C 
ATOM      5  C   UNL     1       1.669  -5.619   1.978  0.00  0.00    -0.004 C 
ATOM      6  C   UNL     1       1.277  -5.579   3.452  0.00  0.00    -0.010 C 
ATOM      7  C   UNL     1       0.738  -6.950   3.870  0.00  0.00    -0.082 C 
ATOM      8  N   UNL     1      -0.425  -7.293   3.043  0.00  0.00    +0.379 N 
ATOM      9  C   UNL     1      -0.021  -7.420   1.637  0.00  0.00    -0.082 C 
ATOM     10  C   UNL     1       0.486  -6.069   1.125  0.00  0.00    -0.010 C 
ATOM     11  C   UNL     1       5.253  -5.922   2.362  0.00  0.00    +0.252 C 
ATOM     12  O   UNL     1       5.455  -6.978   2.931  0.00  0.00    -0.270 OA
ATOM     13  H   UNL     1      -0.816  -8.167   3.360  0.00  0.00    -0.086 HD
ATOM     14  H   UNL     1      -1.121  -6.567   3.126  0.00  0.00    -0.086 HD
ENDROOT
BRANCH  11  15
ATOM     15  C   UNL     1       6.320  -4.909   2.289  0.00  0.00    +0.106 A 
ATOM     16  C   UNL     1       6.560  -3.915   3.191  0.00  0.00    +0.147 A 
ATOM     17  O   UNL     1       7.612  -3.210   2.766  0.00  0.00    -0.359 OA
ATOM     18  N   UNL     1       8.083  -3.752   1.548  0.00  0.00    -0.077 NA
ATOM     19  C   UNL     1       7.334  -4.779   1.232  0.00  0.00    +0.127 A 
ATOM     20  C   UNL     1       5.774  -3.655   4.450  0.00  0.00    +0.090 C 
BRANCH  19  21
ATOM     21  C   UNL     1       7.480  -5.643   0.036  0.00  0.00    +0.023 A 
ATOM     22  C   UNL     1       6.597  -6.700  -0.175  0.00  0.00    +0.011 A 
ATOM     23  C   UNL     1       6.736  -7.501  -1.290  0.00  0.00    +0.001 A 
ATOM     24  C   UNL     1       7.751  -7.256  -2.199  0.00  0.00    +0.001 A 
ATOM     25  C   UNL     1       8.631  -6.209  -1.996  0.00  0.00    +0.020 A 
ATOM     26  C   UNL     1       8.497  -5.396  -0.886  0.00  0.00    +0.050 A 
ATOM     27 CL   UNL     1       9.597  -4.076  -0.636  0.00  0.00    -0.083 Cl
ENDBRANCH  19  21
ENDBRANCH  11  15
BRANCH   1  29
ATOM     28  N   UNL     1       0.264  -2.944   0.596  0.00  0.00    -0.312 N 
ATOM     29  C   UNL     1       1.328  -3.739   0.366  0.00  0.00    +0.218 C 
ATOM     30  O   UNL     1       1.615  -4.054  -0.769  0.00  0.00    -0.275 OA
ATOM     31  H   UNL     1       0.035  -2.692   1.505  0.00  0.00    +0.149 HD
BRANCH  28  32
ATOM     32  C   UNL     1      -0.545  -2.461  -0.525  0.00  0.00    +0.070 C 
ATOM     33  C   UNL     1       0.090  -1.195  -1.104  0.00  0.00    +0.028 C 
BRANCH  32  34
ATOM     34  C   UNL     1      -1.959  -2.143  -0.033  0.00  0.00    +0.022 C 
BRANCH  34  36
ATOM     35  C   UNL     1      -4.053  -3.115   0.922  0.00  0.00    +0.004 C 
ATOM     36  C   UNL     1      -2.639  -3.432   0.431  0.00  0.00    -0.002 C 
ENDBRANCH  34  36
ENDBRANCH  32  34
ENDBRANCH  28  32
ENDBRANCH   1  29
TORSDOF 6
