REMARK  Name = ZINC09244709
REMARK  6 active torsions:
REMARK  status: ('A' for Active; 'I' for Inactive)
REMARK    1  A    between atoms: C_9  and  C_12
REMARK    2  A    between atoms: C_10  and  O_11
REMARK    3  A    between atoms: C_12  and  O_14
REMARK    4  A    between atoms: O_14  and  C_15
REMARK    5  A    between atoms: C_15  and  C_16
REMARK    6  A    between atoms: N_18  and  C_19
REMARK                            x       y       z     vdW  Elec       q    Type
REMARK                         _______ _______ _______ _____ _____    ______ ____
ROOT
ATOM      1  C   UNL     1       3.563  10.136   0.020  0.00  0.00    +0.255 C 
ATOM      2  O   UNL     1       4.528   9.400   0.001  0.00  0.00    -0.272 OA
ATOM      3  N   UNL     1       3.735  11.473   0.022  0.00  0.00    -0.282 N 
ATOM      4  H   UNL     1       2.966  12.060  -0.043  0.00  0.00    +0.155 HD
ENDROOT
BRANCH   3   5
ATOM      5  C   UNL     1       5.024  12.013   0.118  0.00  0.00    +0.050 A 
ATOM      6  C   UNL     1       6.041  11.278   0.711  0.00  0.00    +0.052 A 
ATOM      7  C   UNL     1       7.315  11.815   0.804  0.00  0.00    +0.069 A 
ATOM      8  C   UNL     1       7.571  13.093   0.302  0.00  0.00    +0.068 A 
ATOM      9  C   UNL     1       6.551  13.823  -0.289  0.00  0.00    +0.045 A 
ATOM     10  C   UNL     1       5.284  13.283  -0.386  0.00  0.00    +0.041 A 
ATOM     11 BR   UNL     1       3.896  14.276  -1.201  0.00  0.00    -0.048 Br
ATOM     12  N   UNL     1       8.921  13.355   0.538  0.00  0.00    -0.306 N 
ATOM     13  H   UNL     1       9.392  14.168   0.298  0.00  0.00    +0.170 HD
ATOM     14  C   UNL     1       9.458  12.285   1.155  0.00  0.00    +0.325 A 
ATOM     15  O   UNL     1      10.620  12.187   1.501  0.00  0.00    -0.247 OA
ATOM     16  N   UNL     1       8.515  11.341   1.329  0.00  0.00    -0.306 N 
ATOM     17  H   UNL     1       8.648  10.476   1.749  0.00  0.00    +0.170 HD
ENDBRANCH   3   5
BRANCH   1  18
ATOM     18  C   UNL     1       2.173   9.555   0.043  0.00  0.00    +0.328 C 
BRANCH  18  19
ATOM     19  O   UNL     1       2.254   8.105   0.036  0.00  0.00    -0.452 OA
BRANCH  19  20
ATOM     20  C   UNL     1       1.089   7.427   0.054  0.00  0.00    +0.343 C 
ATOM     21  O   UNL     1       0.035   8.031   0.075  0.00  0.00    -0.245 OA
BRANCH  20  30
ATOM     22  C   UNL     1      -0.014   1.076   0.050  0.00  0.00    +0.001 A 
ATOM     23  C   UNL     1      -1.235   1.746   0.069  0.00  0.00    +0.001 A 
ATOM     24  C   UNL     1      -1.286   3.107   0.080  0.00  0.00    +0.012 A 
ATOM     25  C   UNL     1      -0.094   3.848   0.062  0.00  0.00    +0.024 A 
ATOM     26  C   UNL     1       1.148   3.167   0.038  0.00  0.00    -0.014 A 
ATOM     27  C   UNL     1       1.162   1.763   0.033  0.00  0.00    +0.008 A 
ATOM     28  C   UNL     1       2.349   3.904   0.020  0.00  0.00    +0.009 A 
ATOM     29  C   UNL     1       2.318   5.260   0.025  0.00  0.00    +0.019 A 
ATOM     30  C   UNL     1       1.095   5.955   0.049  0.00  0.00    +0.101 A 
ATOM     31  C   UNL     1      -0.112   5.258   0.068  0.00  0.00    +0.138 A 
BRANCH  31  32
ATOM     32  O   UNL     1      -1.289   5.927   0.090  0.00  0.00    -0.505 OA
ATOM     33  H   UNL     1      -1.616   6.118   0.980  0.00  0.00    +0.292 HD
ENDBRANCH  31  32
ENDBRANCH  20  30
ENDBRANCH  19  20
ENDBRANCH  18  19
ENDBRANCH   1  18
TORSDOF 6
