REMARK  Name = ZINC28060366
REMARK  2 active torsions:
REMARK  status: ('A' for Active; 'I' for Inactive)
REMARK    1  A    between atoms: C_4  and  C_7
REMARK    2  A    between atoms: C_24  and  C_26
REMARK                            x       y       z     vdW  Elec       q    Type
REMARK                         _______ _______ _______ _____ _____    ______ ____
ROOT
ATOM      1  C   UNL     1      -1.482  -1.193  -2.557  0.00  0.00    +0.234 C 
ATOM      2  C   UNL     1      -2.090  -0.698  -1.264  0.00  0.00    +0.026 C 
ATOM      3  C   UNL     1      -3.283  -0.100  -1.294  0.00  0.00    +0.050 C 
ATOM      4  C   UNL     1      -3.947   0.084  -2.606  0.00  0.00    +0.038 A 
ATOM      5  C   UNL     1      -5.300   0.386  -2.699  0.00  0.00    +0.013 A 
ATOM      6  C   UNL     1      -5.877   0.553  -3.943  0.00  0.00    +0.001 A 
ATOM      7  C   UNL     1      -5.114   0.421  -5.090  0.00  0.00    +0.004 A 
ATOM      8  C   UNL     1      -3.767   0.120  -5.007  0.00  0.00    +0.046 A 
ATOM      9  C   UNL     1      -3.176  -0.051  -3.768  0.00  0.00    +0.131 A 
ATOM     10  O   UNL     1      -1.858  -0.349  -3.644  0.00  0.00    -0.479 OA
ATOM     11  N   UNL     1      -3.923   0.350  -0.133  0.00  0.00    -0.282 N 
ATOM     12  C   UNL     1      -3.409  -0.074   1.081  0.00  0.00    +0.240 A 
ATOM     13  N   UNL     1      -3.896  -0.016   2.287  0.00  0.00    -0.092 NA
ATOM     14  N   UNL     1      -3.072  -0.542   3.127  0.00  0.00    -0.021 NA
ATOM     15  N   UNL     1      -2.013  -0.965   2.516  0.00  0.00    -0.042 NA
ATOM     16  N   UNL     1      -2.192  -0.673   1.164  0.00  0.00    -0.201 N 
ATOM     17  C   UNL     1      -1.326  -0.912   0.019  0.00  0.00    +0.181 C 
ATOM     18  H   UNL     1      -4.798   1.012  -0.209  0.00  0.00    +0.155 HD
ENDROOT
BRANCH   1  22
ATOM     19  C   UNL     1      -2.847  -5.167  -3.326  0.00  0.00    +0.000 A 
ATOM     20  C   UNL     1      -3.690  -4.093  -3.543  0.00  0.00    +0.000 A 
ATOM     21  C   UNL     1      -3.248  -2.807  -3.294  0.00  0.00    +0.007 A 
ATOM     22  C   UNL     1      -1.964  -2.595  -2.828  0.00  0.00    -0.003 A 
ATOM     23  C   UNL     1      -1.120  -3.669  -2.616  0.00  0.00    +0.007 A 
ATOM     24  C   UNL     1      -1.563  -4.955  -2.861  0.00  0.00    +0.000 A 
ENDBRANCH   1  22
BRANCH  17  25
ATOM     25  C   UNL     1      -0.157   0.038   0.069  0.00  0.00    +0.019 A 
ATOM     26  C   UNL     1       1.167  -0.241   0.150  0.00  0.00    +0.013 A 
ATOM     27  C   UNL     1       2.071   0.804   0.184  0.00  0.00    +0.008 A 
ATOM     28  C   UNL     1       1.607   2.076   0.134  0.00  0.00    +0.045 A 
ATOM     29  S   UNL     1      -0.157   1.823   0.036  0.00  0.00    -0.099 S 
ENDBRANCH  17  25
TORSDOF 2
