REMARK  Name = ZINC15523729
REMARK  9 active torsions:
REMARK  status: ('A' for Active; 'I' for Inactive)
REMARK    1  A    between atoms: C_1  and  C_2
REMARK    2  A    between atoms: C_7  and  C_13
REMARK    3  A    between atoms: C_13  and  N_62
REMARK    4  A    between atoms: C_14  and  C_16
REMARK    5  A    between atoms: C_14  and  C_28
REMARK    6  A    between atoms: C_14  and  N_62
REMARK    7  A    between atoms: C_19  and  C_22
REMARK    8  A    between atoms: C_28  and  C_29
REMARK    9  A    between atoms: C_28  and  C_30
REMARK                            x       y       z     vdW  Elec       q    Type
REMARK                         _______ _______ _______ _____ _____    ______ ____
ROOT
ATOM      1  C   UNL     1      -5.503   6.187  -1.103  0.00  0.00    -0.038 C 
ENDROOT
BRANCH   1   2
ATOM      2  C   UNL     1      -6.440   5.186  -1.729  0.00  0.00    -0.061 A 
ATOM      3  C   UNL     1      -6.156   4.657  -2.974  0.00  0.00    +0.002 A 
ATOM      4  C   UNL     1      -7.013   3.735  -3.545  0.00  0.00    +0.004 A 
ATOM      5  C   UNL     1      -8.160   3.350  -2.876  0.00  0.00    -0.044 A 
ATOM      6  C   UNL     1      -8.447   3.883  -1.633  0.00  0.00    +0.004 A 
ATOM      7  C   UNL     1      -7.587   4.801  -1.059  0.00  0.00    +0.002 A 
BRANCH   5   8
ATOM      8  C   UNL     1      -9.097   2.349  -3.501  0.00  0.00    +0.019 C 
ATOM      9  C   UNL     1      -8.351   1.035  -3.744  0.00  0.00    +0.008 C 
ATOM     10  C   UNL     1      -9.303   0.019  -4.378  0.00  0.00    +0.001 C 
ATOM     11  C   UNL     1      -9.819   0.566  -5.710  0.00  0.00    +0.000 C 
ATOM     12  C   UNL     1     -10.565   1.880  -5.467  0.00  0.00    +0.001 C 
ATOM     13  C   UNL     1      -9.614   2.896  -4.833  0.00  0.00    +0.008 C 
ENDBRANCH   5   8
ENDBRANCH   1   2
BRANCH   1  14
ATOM     14  C   UNL     1      -5.753   7.569  -1.712  0.00  0.00    -0.027 C 
ATOM     15  C   UNL     1      -5.486   7.519  -3.217  0.00  0.00    +0.006 C 
ATOM     16  C   UNL     1      -7.206   7.979  -1.466  0.00  0.00    +0.006 C 
ENDBRANCH   1  14
BRANCH   1  17
ATOM     17  N   UNL     1      -4.111   5.777  -1.367  0.00  0.00    +0.387 N 
ATOM     18  H   UNL     1      -4.045   4.753  -1.323  0.00  0.00    -0.084 HD
ATOM     19  H   UNL     1      -3.835   6.098  -2.303  0.00  0.00    -0.084 HD
BRANCH  17  20
ATOM     20  C   UNL     1      -3.205   6.366  -0.363  0.00  0.00    -0.025 C 
BRANCH  20  27
ATOM     21  C   UNL     1       3.611   2.577  -1.305  0.00  0.00    +0.045 C 
ATOM     22  C   UNL     1       2.220   3.107  -1.071  0.00  0.00    -0.034 A 
ATOM     23  C   UNL     1       1.195   2.233  -0.683  0.00  0.00    +0.008 A 
ATOM     24  C   UNL     1      -0.062   2.720  -0.479  0.00  0.00    +0.047 A 
ATOM     25  C   UNL     1      -0.308   4.095  -0.650  0.00  0.00    +0.140 A 
ATOM     26  N   UNL     1      -1.534   4.573  -0.447  0.00  0.00    -0.236 NA
ATOM     27  C   UNL     1      -1.806   5.859  -0.602  0.00  0.00    +0.032 A 
ATOM     28  C   UNL     1      -0.809   6.736  -0.983  0.00  0.00    +0.092 A 
ATOM     29  C   UNL     1       0.482   6.241  -1.198  0.00  0.00    +0.258 A 
ATOM     30  O   UNL     1       1.385   6.990  -1.536  0.00  0.00    -0.267 OA
ATOM     31  N   UNL     1       0.713   4.922  -1.028  0.00  0.00    -0.268 N 
ATOM     32  C   UNL     1       1.964   4.425  -1.234  0.00  0.00    +0.099 A 
ENDBRANCH  20  27
ENDBRANCH  17  20
ENDBRANCH   1  17
TORSDOF 6
