REMARK  Name = ZINC03359221
REMARK  10 active torsions:
REMARK  status: ('A' for Active; 'I' for Inactive)
REMARK    1  A    between atoms: C_1  and  C_2
REMARK    2  A    between atoms: C_7  and  N_8
REMARK    3  A    between atoms: C_9  and  C_28
REMARK    4  A    between atoms: C_12  and  S_13
REMARK    5  A    between atoms: S_13  and  C_14
REMARK    6  A    between atoms: C_14  and  C_15
REMARK    7  A    between atoms: C_15  and  C_17
REMARK    8  A    between atoms: C_18  and  N_27
REMARK    9  A    between atoms: N_19  and  C_26
REMARK   10  A    between atoms: N_22  and  C_25
REMARK                            x       y       z     vdW  Elec       q    Type
REMARK                         _______ _______ _______ _____ _____    ______ ____
ROOT
ATOM      1  N   UNL     1       0.025  -0.094   2.469  0.00  0.00    -0.270 N 
ATOM      2  C   UNL     1      -1.069   0.277   3.220  0.00  0.00    +0.171 A 
ATOM      3  N   UNL     1      -0.613   0.893   4.286  0.00  0.00    -0.128 NA
ATOM      4  N   UNL     1       0.671   0.933   4.256  0.00  0.00    -0.122 NA
ATOM      5  C   UNL     1       1.118   0.341   3.173  0.00  0.00    +0.197 A 
ENDROOT
BRANCH   2   6
ATOM      6  C   UNL     1      -2.486   0.028   2.888  0.00  0.00    +0.045 A 
ATOM      7  C   UNL     1      -2.962  -0.613   1.790  0.00  0.00    +0.095 A 
ATOM      8  N   UNL     1      -4.326  -0.648   1.831  0.00  0.00    -0.360 N 
ATOM      9  H   UNL     1      -4.891  -1.054   1.156  0.00  0.00    +0.165 HD
ATOM     10  C   UNL     1      -4.783  -0.023   2.972  0.00  0.00    +0.047 A 
ATOM     11  C   UNL     1      -3.659   0.422   3.687  0.00  0.00    +0.010 A 
ATOM     12  C   UNL     1      -3.823   1.091   4.899  0.00  0.00    +0.011 A 
ATOM     13  C   UNL     1      -5.091   1.310   5.391  0.00  0.00    +0.001 A 
ATOM     14  C   UNL     1      -6.202   0.867   4.687  0.00  0.00    +0.002 A 
ATOM     15  C   UNL     1      -6.055   0.212   3.484  0.00  0.00    +0.026 A 
ENDBRANCH   2   6
BRANCH   1  22
ATOM     16  C   UNL     1      -0.062   1.438   0.072  0.00  0.00    +0.046 C 
ATOM     17  C   UNL     1      -0.020  -0.068   0.052  0.00  0.00    -0.026 A 
ATOM     18  C   UNL     1      -0.017  -0.744  -1.152  0.00  0.00    +0.005 A 
ATOM     19  C   UNL     1       0.022  -2.126  -1.171  0.00  0.00    +0.000 A 
ATOM     20  C   UNL     1       0.058  -2.836   0.016  0.00  0.00    +0.002 A 
ATOM     21  C   UNL     1       0.056  -2.165   1.223  0.00  0.00    +0.026 A 
ATOM     22  C   UNL     1       0.022  -0.777   1.245  0.00  0.00    +0.053 A 
ENDBRANCH   1  22
BRANCH   5  23
ATOM     23  S   UNL     1       2.806   0.146   2.708  0.00  0.00    -0.078 S 
BRANCH  23  24
ATOM     24  C   UNL     1       3.727   0.935   4.058  0.00  0.00    +0.157 C 
BRANCH  24  25
ATOM     25  C   UNL     1       5.205   0.838   3.782  0.00  0.00    +0.182 C 
ATOM     26  O   UNL     1       5.599   0.289   2.773  0.00  0.00    -0.291 OA
BRANCH  25  27
ATOM     27  C   UNL     1       6.131   1.384   4.696  0.00  0.00    +0.120 A 
ATOM     28  C   UNL     1       7.514   1.201   4.525  0.00  0.00    +0.116 A 
ATOM     29  N   UNL     1       8.371   1.749   5.436  0.00  0.00    -0.284 N 
ATOM     30  C   UNL     1       7.917   2.453   6.484  0.00  0.00    +0.333 A 
ATOM     31  O   UNL     1       8.721   2.921   7.267  0.00  0.00    -0.246 OA
ATOM     32  N   UNL     1       6.608   2.661   6.700  0.00  0.00    -0.263 N 
ATOM     33  C   UNL     1       5.681   2.167   5.854  0.00  0.00    +0.269 A 
ATOM     34  O   UNL     1       4.495   2.361   6.050  0.00  0.00    -0.267 OA
ATOM     35  C   UNL     1       6.182   3.440   7.865  0.00  0.00    +0.157 C 
ATOM     36  C   UNL     1       9.814   1.563   5.266  0.00  0.00    +0.155 C 
BRANCH  28  37
ATOM     37  N   UNL     1       7.991   0.488   3.468  0.00  0.00    -0.344 N 
ATOM     38  H   UNL     1       7.382   0.169   2.784  0.00  0.00    +0.144 HD
ATOM     39  H   UNL     1       8.940   0.300   3.399  0.00  0.00    +0.144 HD
ENDBRANCH  28  37
ENDBRANCH  25  27
ENDBRANCH  24  25
ENDBRANCH  23  24
ENDBRANCH   5  23
TORSDOF 7
