REMARK  Name = ZINC63230106
REMARK  10 active torsions:
REMARK  status: ('A' for Active; 'I' for Inactive)
REMARK    1  A    between atoms: C_1  and  C_2
REMARK    2  A    between atoms: C_2  and  O_3
REMARK    3  A    between atoms: O_3  and  C_4
REMARK    4  A    between atoms: C_7  and  N_10
REMARK    5  A    between atoms: C_11  and  C_27
REMARK    6  A    between atoms: C_14  and  S_15
REMARK    7  A    between atoms: S_15  and  C_16
REMARK    8  A    between atoms: C_16  and  C_17
REMARK    9  A    between atoms: N_19  and  C_20
REMARK   10  A    between atoms: N_19  and  C_21
REMARK                            x       y       z     vdW  Elec       q    Type
REMARK                         _______ _______ _______ _____ _____    ______ ____
ROOT
ATOM      1  N   UNL     1      -1.989  -5.991  -0.011  0.00  0.00    -0.270 N 
ATOM      2  C   UNL     1      -2.551  -6.762  -1.015  0.00  0.00    +0.168 A 
ATOM      3  N   UNL     1      -2.504  -8.022  -0.606  0.00  0.00    -0.128 NA
ATOM      4  N   UNL     1      -1.964  -8.081   0.559  0.00  0.00    -0.122 NA
ATOM      5  C   UNL     1      -1.624  -6.867   0.967  0.00  0.00    +0.197 A 
ENDROOT
BRANCH   2   6
ATOM      6  C   UNL     1      -3.070  -6.298  -2.233  0.00  0.00    +0.025 C 
ATOM      7  C   UNL     1      -3.644  -7.061  -3.251  0.00  0.00    +0.006 A 
ATOM      8  C   UNL     1      -3.877  -8.446  -3.388  0.00  0.00    +0.010 A 
ATOM      9  C   UNL     1      -4.468  -8.922  -4.514  0.00  0.00    +0.001 A 
ATOM     10  C   UNL     1      -4.855  -8.071  -5.552  0.00  0.00    +0.002 A 
ATOM     11  C   UNL     1      -4.661  -6.731  -5.488  0.00  0.00    +0.026 A 
ATOM     12  C   UNL     1      -4.050  -6.160  -4.341  0.00  0.00    +0.043 A 
ATOM     13  N   UNL     1      -3.756  -4.910  -4.041  0.00  0.00    -0.380 N 
ATOM     14  C   UNL     1      -3.132  -4.865  -2.715  0.00  0.00    +0.152 C 
ATOM     15  H   UNL     1      -3.930  -4.141  -4.606  0.00  0.00    +0.160 HD
ENDBRANCH   2   6
BRANCH   1  19
ATOM     16  C   UNL     1      -1.498  -1.849   0.006  0.00  0.00    +0.121 A 
ATOM     17  C   UNL     1      -0.387  -2.679  -0.003  0.00  0.00    +0.047 A 
ATOM     18  C   UNL     1      -0.548  -4.050  -0.009  0.00  0.00    +0.030 A 
ATOM     19  C   UNL     1      -1.824  -4.598  -0.005  0.00  0.00    +0.051 A 
ATOM     20  C   UNL     1      -2.936  -3.767   0.005  0.00  0.00    +0.030 A 
ATOM     21  C   UNL     1      -2.773  -2.396   0.016  0.00  0.00    +0.047 A 
BRANCH  16  22
ATOM     22  O   UNL     1      -1.339  -0.499   0.012  0.00  0.00    -0.492 OA
BRANCH  22  24
ATOM     23  C   UNL     1      -0.019   1.526   0.010  0.00  0.00    +0.048 C 
ATOM     24  C   UNL     1       0.002  -0.004   0.002  0.00  0.00    +0.225 C 
ENDBRANCH  22  24
ENDBRANCH  16  22
ENDBRANCH   1  19
BRANCH   5  25
ATOM     25  S   UNL     1      -0.847  -6.460   2.495  0.00  0.00    -0.076 S 
BRANCH  25  26
ATOM     26  C   UNL     1      -0.639  -8.061   3.322  0.00  0.00    +0.173 C 
BRANCH  26  27
ATOM     27  C   UNL     1       0.023  -7.854   4.659  0.00  0.00    +0.226 C 
ATOM     28  O   UNL     1       0.325  -6.736   5.019  0.00  0.00    -0.275 OA
ATOM     29  N   UNL     1       0.280  -8.911   5.455  0.00  0.00    -0.301 N 
ATOM     30  C   UNL     1      -0.084 -10.261   5.020  0.00  0.00    +0.132 C 
BRANCH  29  31
ATOM     31  C   UNL     1       0.924  -8.709   6.756  0.00  0.00    +0.076 C 
ATOM     32  C   UNL     1       2.246  -9.479   6.795  0.00  0.00    +0.022 C 
ATOM     33  C   UNL     1       2.918  -9.269   8.153  0.00  0.00    +0.002 C 
ATOM     34  C   UNL     1       1.997  -9.778   9.263  0.00  0.00    +0.000 C 
ATOM     35  C   UNL     1       0.675  -9.008   9.224  0.00  0.00    +0.002 C 
ATOM     36  C   UNL     1       0.003  -9.219   7.865  0.00  0.00    +0.022 C 
ENDBRANCH  29  31
ENDBRANCH  26  27
ENDBRANCH  25  26
ENDBRANCH   5  25
TORSDOF 8
