REMARK  Name = ZINC20330580
REMARK  9 active torsions:
REMARK  status: ('A' for Active; 'I' for Inactive)
REMARK    1  A    between atoms: C_1  and  C_2
REMARK    2  A    between atoms: C_2  and  C_4
REMARK    3  A    between atoms: C_2  and  N_14
REMARK    4  A    between atoms: C_15  and  C_17
REMARK    5  A    between atoms: C_17  and  C_18
REMARK    6  A    between atoms: C_18  and  C_19
REMARK    7  A    between atoms: C_19  and  N_20
REMARK    8  A    between atoms: C_27  and  O_33
REMARK    9  A    between atoms: O_33  and  C_34
REMARK                            x       y       z     vdW  Elec       q    Type
REMARK                         _______ _______ _______ _____ _____    ______ ____
ROOT
ATOM      1  C   UNL     1       3.149  -6.130  -5.160  0.00  0.00    +0.128 C 
ENDROOT
BRANCH   1   2
ATOM      2  N   UNL     1       3.263  -6.609  -6.539  0.00  0.00    -0.287 N 
ATOM      3  C   UNL     1       2.145  -6.846  -7.253  0.00  0.00    +0.279 A 
ATOM      4  O   UNL     1       1.048  -6.664  -6.755  0.00  0.00    -0.265 OA
ATOM      5  C   UNL     1       2.256  -7.306  -8.591  0.00  0.00    +0.129 A 
ATOM      6  C   UNL     1       3.519  -7.506  -9.117  0.00  0.00    +0.079 A 
ATOM      7  C   UNL     1       3.336  -7.980 -10.489  0.00  0.00    +0.027 A 
ATOM      8  C   UNL     1       4.220  -8.346 -11.509  0.00  0.00    +0.057 A 
ATOM      9  C   UNL     1       3.723  -8.761 -12.727  0.00  0.00    +0.121 A 
ATOM     10  C   UNL     1       2.348  -8.816 -12.943  0.00  0.00    +0.047 A 
ATOM     11  C   UNL     1       1.468  -8.459 -11.947  0.00  0.00    +0.030 A 
ATOM     12  C   UNL     1       1.947  -8.037 -10.710  0.00  0.00    +0.049 A 
ATOM     13  N   UNL     1       1.315  -7.628  -9.555  0.00  0.00    -0.349 N 
ATOM     14  H   UNL     1       0.243  -7.534  -9.329  0.00  0.00    +0.166 HD
ATOM     15  N   UNL     1       4.631  -7.250  -8.335  0.00  0.00    -0.333 N 
ATOM     16  C   UNL     1       4.481  -6.810  -7.071  0.00  0.00    +0.161 A 
ATOM     17  S   UNL     1       5.872  -6.500  -6.122  0.00  0.00    -0.013 S 
ATOM     18  H   UNL     1       5.640  -7.407  -8.744  0.00  0.00    +0.168 HD
BRANCH   9  19
ATOM     19  O   UNL     1       4.579  -9.117 -13.722  0.00  0.00    -0.495 OA
ATOM     20  C   UNL     1       3.999  -9.538 -14.958  0.00  0.00    +0.277 C 
ENDBRANCH   9  19
ENDBRANCH   1   2
BRANCH   1  21
ATOM     21  C   UNL     1       3.129  -4.600  -5.151  0.00  0.00    +0.031 C 
BRANCH  21  22
ATOM     22  C   UNL     1       3.010  -4.099  -3.710  0.00  0.00    +0.097 C 
BRANCH  22  24
ATOM     23  N   UNL     1       2.890  -1.926  -2.534  0.00  0.00    -0.312 N 
ATOM     24  C   UNL     1       2.989  -2.592  -3.702  0.00  0.00    +0.213 C 
ATOM     25  O   UNL     1       3.063  -1.979  -4.746  0.00  0.00    -0.276 OA
ATOM     26  H   UNL     1       2.823  -2.482  -1.588  0.00  0.00    +0.149 HD
BRANCH  23  28
ATOM     27  C   UNL     1       4.305   0.068  -2.537  0.00  0.00    +0.028 C 
ATOM     28  C   UNL     1       2.870  -0.461  -2.526  0.00  0.00    +0.076 C 
BRANCH  28  29
ATOM     29  C   UNL     1       2.154   0.032  -1.268  0.00  0.00    -0.010 C 
ATOM     30  C   UNL     1       0.718  -0.497  -1.257  0.00  0.00    +0.012 C 
ATOM     31  C   UNL     1       0.002  -0.004   0.002  0.00  0.00    -0.010 C 
ATOM     32  C   UNL     1      -0.019   1.526   0.010  0.00  0.00    +0.007 C 
ATOM     33  C   UNL     1       1.417   2.055  -0.000  0.00  0.00    -0.010 C 
ATOM     34  C   UNL     1       2.133   1.562  -1.259  0.00  0.00    +0.012 C 
ATOM     35  C   UNL     1       2.157   1.548   1.239  0.00  0.00    +0.007 C 
ATOM     36  C   UNL     1       2.178   0.019   1.231  0.00  0.00    -0.010 C 
ATOM     37  C   UNL     1       0.742  -0.511   1.242  0.00  0.00    +0.007 C 
ATOM     38  C   UNL     1       2.894  -0.475  -0.028  0.00  0.00    +0.012 C 
ENDBRANCH  28  29
ENDBRANCH  23  28
ENDBRANCH  22  24
ENDBRANCH  21  22
ENDBRANCH   1  21
TORSDOF 7
