REMARK  Name = ZINC36581377
REMARK  16 active torsions:
REMARK  status: ('A' for Active; 'I' for Inactive)
REMARK    1  A    between atoms: C_1  and  C_2
REMARK    2  A    between atoms: C_4  and  C_15
REMARK    3  A    between atoms: C_12  and  C_13
REMARK    4  A    between atoms: C_12  and  C_14
REMARK    5  A    between atoms: N_17  and  C_18
REMARK    6  A    between atoms: N_17  and  C_34
REMARK    7  A    between atoms: C_18  and  C_20
REMARK    8  A    between atoms: C_18  and  C_27
REMARK    9  A    between atoms: C_24  and  O_26
REMARK   10  A    between atoms: N_29  and  C_30
REMARK   11  A    between atoms: C_30  and  C_31
REMARK   12  A    between atoms: C_30  and  C_32
REMARK   13  A    between atoms: C_30  and  C_33
REMARK   14  A    between atoms: C_34  and  C_35
REMARK   15  A    between atoms: C_34  and  C_36
REMARK   16  A    between atoms: C_34  and  C_37
REMARK                            x       y       z     vdW  Elec       q    Type
REMARK                         _______ _______ _______ _____ _____    ______ ____
ROOT
ATOM      1  C   UNL     1      -1.301  -0.878  -3.083  0.00  0.00    +0.220 C 
ATOM      2  O   UNL     1      -2.478  -0.998  -3.350  0.00  0.00    -0.275 OA
ATOM      3  N   UNL     1      -0.406  -1.757  -3.576  0.00  0.00    -0.281 N 
ENDROOT
BRANCH   1   6
ATOM      4  C   UNL     1      -1.417   2.697  -2.471  0.00  0.00    +0.008 C 
ATOM      5  C   UNL     1      -1.922   1.316  -2.069  0.00  0.00    +0.001 C 
ATOM      6  C   UNL     1      -0.839   0.253  -2.200  0.00  0.00    +0.079 C 
ATOM      7  C   UNL     1      -0.353  -0.276  -0.856  0.00  0.00    +0.017 C 
ATOM      8  C   UNL     1      -1.410  -0.122   0.240  0.00  0.00    -0.004 C 
ATOM      9  C   UNL     1      -2.854  -0.176  -0.284  0.00  0.00    +0.008 C 
ATOM     10  C   UNL     1      -2.599   1.296  -0.703  0.00  0.00    -0.001 C 
ATOM     11  C   UNL     1      -1.704   1.363   0.532  0.00  0.00    -0.029 C 
ATOM     12  C   UNL     1      -2.482   1.571   1.845  0.00  0.00    +0.011 C 
ATOM     13  C   UNL     1      -0.484   2.277   0.472  0.00  0.00    +0.011 C 
ENDBRANCH   1   6
BRANCH   3  14
ATOM     14  C   UNL     1       1.024  -1.563  -3.328  0.00  0.00    +0.030 C 
ATOM     15  C   UNL     1       1.446  -2.385  -2.108  0.00  0.00    +0.031 C 
ATOM     16  C   UNL     1       1.821  -2.020  -4.551  0.00  0.00    +0.031 C 
ATOM     17  C   UNL     1       1.300  -0.081  -3.064  0.00  0.00    +0.031 C 
ENDBRANCH   3  14
BRANCH   3  18
ATOM     18  C   UNL     1      -0.864  -2.907  -4.361  0.00  0.00    +0.193 C 
BRANCH  18  19
ATOM     19  C   UNL     1      -1.517  -3.911  -3.446  0.00  0.00    -0.015 A 
ATOM     20  C   UNL     1      -2.176  -3.482  -2.308  0.00  0.00    +0.006 A 
ATOM     21  C   UNL     1      -2.776  -4.401  -1.467  0.00  0.00    +0.004 A 
ATOM     22  C   UNL     1      -2.720  -5.750  -1.762  0.00  0.00    +0.045 A 
ATOM     23  C   UNL     1      -2.060  -6.182  -2.903  0.00  0.00    +0.117 A 
ATOM     24  C   UNL     1      -1.463  -5.258  -3.748  0.00  0.00    +0.051 A 
BRANCH  23  25
ATOM     25  O   UNL     1      -2.002  -7.508  -3.195  0.00  0.00    -0.507 OA
ATOM     26  H   UNL     1      -2.737  -7.822  -3.740  0.00  0.00    +0.292 HD
ENDBRANCH  23  25
ENDBRANCH  18  19
BRANCH  18  27
ATOM     27  C   UNL     1      -1.859  -2.446  -5.394  0.00  0.00    +0.239 C 
ATOM     28  O   UNL     1      -2.068  -1.261  -5.548  0.00  0.00    -0.273 OA
ATOM     29  N   UNL     1      -2.517  -3.350  -6.146  0.00  0.00    -0.309 N 
ATOM     30  H   UNL     1      -2.350  -4.298  -6.022  0.00  0.00    +0.149 HD
BRANCH  29  31
ATOM     31  C   UNL     1      -3.485  -2.902  -7.150  0.00  0.00    +0.026 C 
ATOM     32  C   UNL     1      -2.781  -2.011  -8.175  0.00  0.00    +0.031 C 
ATOM     33  C   UNL     1      -4.085  -4.118  -7.859  0.00  0.00    +0.031 C 
ATOM     34  C   UNL     1      -4.600  -2.109  -6.466  0.00  0.00    +0.031 C 
ENDBRANCH  29  31
ENDBRANCH  18  27
ENDBRANCH   3  18
TORSDOF 7
