REMARK  Name = ZINC35842731
REMARK  18 active torsions:
REMARK  status: ('A' for Active; 'I' for Inactive)
REMARK    1  A    between atoms: C_1  and  C_2
REMARK    2  A    between atoms: C_2  and  C_3
REMARK    3  A    between atoms: C_2  and  C_4
REMARK    4  A    between atoms: C_4  and  N_5
REMARK    5  A    between atoms: N_5  and  C_6
REMARK    6  A    between atoms: N_5  and  C_14
REMARK    7  A    between atoms: C_6  and  C_7
REMARK    8  A    between atoms: C_12  and  O_13
REMARK    9  A    between atoms: C_14  and  C_15
REMARK   10  A    between atoms: N_17  and  C_18
REMARK   11  A    between atoms: N_17  and  C_30
REMARK   12  A    between atoms: C_18  and  C_19
REMARK   13  A    between atoms: C_19  and  C_20
REMARK   14  A    between atoms: C_30  and  C_31
REMARK   15  A    between atoms: C_34  and  C_37
REMARK   16  A    between atoms: C_37  and  C_38
REMARK   17  A    between atoms: C_37  and  C_39
REMARK   18  A    between atoms: C_37  and  C_40
REMARK                            x       y       z     vdW  Elec       q    Type
REMARK                         _______ _______ _______ _____ _____    ______ ____
ROOT
ATOM      1  C   UNL     1      -3.083  -1.165  -1.731  0.00  0.00    +0.199 C 
ATOM      2  O   UNL     1      -2.138  -0.698  -2.331  0.00  0.00    -0.278 OA
ATOM      3  N   UNL     1      -4.328  -1.032  -2.228  0.00  0.00    -0.298 N 
ENDROOT
BRANCH   1   4
ATOM      4  C   UNL     1      -2.864  -1.895  -0.431  0.00  0.00    +0.019 C 
BRANCH   4   5
ATOM      5  N   UNL     1      -1.462  -1.751  -0.018  0.00  0.00    +0.388 N 
ATOM      6  H   UNL     1      -0.870  -1.744  -0.836  0.00  0.00    -0.081 HD
BRANCH   5   7
ATOM      7  C   UNL     1      -1.294  -0.491   0.718  0.00  0.00    -0.075 C 
BRANCH   7   9
ATOM      8  C   UNL     1      -1.483   1.996   0.556  0.00  0.00    +0.005 C 
ATOM      9  C   UNL     1      -1.490   0.688  -0.238  0.00  0.00    -0.034 C 
ATOM     10  C   UNL     1      -0.355   0.708  -1.263  0.00  0.00    +0.005 C 
ENDBRANCH   7   9
ENDBRANCH   5   7
BRANCH   5  11
ATOM     11  C   UNL     1      -1.088  -2.877   0.848  0.00  0.00    -0.039 C 
BRANCH  11  12
ATOM     12  C   UNL     1      -1.106  -4.154   0.048  0.00  0.00    -0.022 A 
ATOM     13  C   UNL     1      -2.177  -5.021   0.154  0.00  0.00    +0.005 A 
ATOM     14  C   UNL     1      -2.194  -6.193  -0.579  0.00  0.00    +0.000 A 
ATOM     15  C   UNL     1      -1.141  -6.500  -1.421  0.00  0.00    +0.004 A 
ATOM     16  C   UNL     1      -0.069  -5.636  -1.531  0.00  0.00    +0.045 A 
ATOM     17  C   UNL     1      -0.051  -4.457  -0.800  0.00  0.00    +0.118 A 
BRANCH  17  18
ATOM     18  O   UNL     1       1.000  -3.603  -0.911  0.00  0.00    -0.507 OA
ATOM     19  H   UNL     1       1.746  -3.821  -0.335  0.00  0.00    +0.292 HD
ENDBRANCH  17  18
ENDBRANCH  11  12
ENDBRANCH   5  11
ENDBRANCH   4   5
ENDBRANCH   1   4
BRANCH   3  20
ATOM     20  C   UNL     1      -5.470  -1.597  -1.504  0.00  0.00    +0.113 C 
BRANCH  20  21
ATOM     21  C   UNL     1      -6.023  -0.554  -0.531  0.00  0.00    +0.056 C 
BRANCH  21  22
ATOM     22  C   UNL     1      -7.197  -1.135   0.214  0.00  0.00    -0.021 A 
ATOM     23  C   UNL     1      -8.493  -1.005  -0.112  0.00  0.00    +0.087 A 
ATOM     24  N   UNL     1      -9.271  -1.669   0.797  0.00  0.00    -0.360 N 
ATOM     25  H   UNL     1     -10.240  -1.718   0.770  0.00  0.00    +0.165 HD
ATOM     26  C   UNL     1      -8.476  -2.257   1.754  0.00  0.00    +0.047 A 
ATOM     27  C   UNL     1      -7.141  -1.954   1.427  0.00  0.00    +0.003 A 
ATOM     28  C   UNL     1      -6.102  -2.430   2.230  0.00  0.00    +0.010 A 
ATOM     29  C   UNL     1      -6.388  -3.192   3.328  0.00  0.00    +0.001 A 
ATOM     30  C   UNL     1      -7.702  -3.497   3.652  0.00  0.00    +0.002 A 
ATOM     31  C   UNL     1      -8.743  -3.030   2.879  0.00  0.00    +0.026 A 
ENDBRANCH  21  22
ENDBRANCH  20  21
ENDBRANCH   3  20
BRANCH   3  32
ATOM     32  C   UNL     1      -4.541  -0.323  -3.492  0.00  0.00    +0.142 C 
BRANCH  32  33
ATOM     33  C   UNL     1      -4.461  -1.301  -4.636  0.00  0.00    -0.030 A 
ATOM     34  C   UNL     1      -3.245  -1.555  -5.244  0.00  0.00    +0.005 A 
ATOM     35  C   UNL     1      -3.172  -2.452  -6.294  0.00  0.00    +0.004 A 
ATOM     36  C   UNL     1      -4.313  -3.095  -6.735  0.00  0.00    -0.042 A 
ATOM     37  C   UNL     1      -5.528  -2.841  -6.127  0.00  0.00    +0.004 A 
ATOM     38  C   UNL     1      -5.601  -1.947  -5.074  0.00  0.00    +0.005 A 
BRANCH  36  39
ATOM     39  C   UNL     1      -4.233  -4.071  -7.880  0.00  0.00    -0.013 C 
ATOM     40  C   UNL     1      -3.285  -5.214  -7.510  0.00  0.00    +0.015 C 
ATOM     41  C   UNL     1      -5.626  -4.636  -8.166  0.00  0.00    +0.015 C 
ATOM     42  C   UNL     1      -3.707  -3.355  -9.125  0.00  0.00    +0.015 C 
ENDBRANCH  36  39
ENDBRANCH  32  33
ENDBRANCH   3  32
TORSDOF 13
