REMARK  Name = ZINC04556332
REMARK  6 active torsions:
REMARK  status: ('A' for Active; 'I' for Inactive)
REMARK    1  A    between atoms: C_1  and  C_2
REMARK    2  A    between atoms: C_2  and  N_47
REMARK    3  A    between atoms: C_10  and  O_26
REMARK    4  A    between atoms: C_12  and  C_15
REMARK    5  A    between atoms: C_16  and  C_17
REMARK    6  A    between atoms: C_20  and  N_23
REMARK                            x       y       z     vdW  Elec       q    Type
REMARK                         _______ _______ _______ _____ _____    ______ ____
ROOT
ATOM      1  C   UNL     1       5.284   0.938  -0.104  0.00  0.00    -0.074 C 
ATOM      2  C   UNL     1       4.522  -0.220   0.547  0.00  0.00    +0.018 C 
ATOM      3  C   UNL     1       3.062  -0.131   0.118  0.00  0.00    -0.027 A 
ATOM      4  C   UNL     1       2.578   1.025  -0.396  0.00  0.00    -0.021 A 
ATOM      5  S   UNL     1       0.876   0.687  -0.753  0.00  0.00    -0.080 S 
ATOM      6  C   UNL     1       0.813  -0.942  -0.231  0.00  0.00    +0.080 A 
ATOM      7  C   UNL     1       2.111  -1.222   0.215  0.00  0.00    +0.067 A 
ATOM      8  C   UNL     1       2.370  -2.591   0.732  0.00  0.00    +0.220 C 
ATOM      9  N   UNL     1       1.339  -3.357   0.962  0.00  0.00    -0.223 NA
ATOM     10  C   UNL     1      -0.051  -2.946   0.811  0.00  0.00    +0.217 C 
ATOM     11  N   UNL     1      -0.195  -1.874  -0.192  0.00  0.00    -0.313 N 
ATOM     12  C   UNL     1       3.341   2.296  -0.601  0.00  0.00    -0.035 C 
ATOM     13  H   UNL     1      -0.958  -1.830  -0.789  0.00  0.00    +0.149 HD
ATOM     14  N   UNL     1       4.591   2.208   0.192  0.00  0.00    +0.383 N 
ATOM     15  H   UNL     1       4.356   2.236   1.191  0.00  0.00    -0.081 HD
ENDROOT
BRANCH  14  17
ATOM     16  C   UNL     1       5.931   3.284  -1.584  0.00  0.00    -0.017 C 
ATOM     17  C   UNL     1       5.473   3.352  -0.126  0.00  0.00    -0.082 C 
ENDBRANCH  14  17
BRANCH  10  18
ATOM     18  C   UNL     1      -0.565  -2.451   2.138  0.00  0.00    +0.019 C 
ATOM     19  C   UNL     1      -1.652  -2.990   2.672  0.00  0.00    +0.007 C 
BRANCH  19  20
ATOM     20  C   UNL     1      -2.460  -3.950   1.891  0.00  0.00    -0.025 A 
ATOM     21  C   UNL     1      -2.685  -3.732   0.531  0.00  0.00    +0.010 A 
ATOM     22  C   UNL     1      -3.437  -4.634  -0.194  0.00  0.00    +0.033 A 
ATOM     23  C   UNL     1      -3.976  -5.746   0.427  0.00  0.00    +0.126 A 
ATOM     24  C   UNL     1      -3.761  -5.965   1.776  0.00  0.00    +0.033 A 
ATOM     25  C   UNL     1      -3.007  -5.073   2.511  0.00  0.00    +0.010 A 
BRANCH  23  26
ATOM     26  N   UNL     1      -4.787  -6.706  -0.355  0.00  0.00    +0.056 N 
ATOM     27  O   UNL     1      -5.264  -7.686   0.190  0.00  0.00    -0.126 OA
ATOM     28  O   UNL     1      -4.979  -6.516  -1.542  0.00  0.00    -0.126 OA
ENDBRANCH  23  26
ENDBRANCH  19  20
ENDBRANCH  10  18
BRANCH   8  29
ATOM     29  O   UNL     1       3.631  -3.029   0.955  0.00  0.00    -0.492 OA
ATOM     30  H   UNL     1       3.680  -3.934   1.290  0.00  0.00    +0.294 HD
ENDBRANCH   8  29
TORSDOF 5
