REMARK  Name = ZINC65297870
REMARK  7 active torsions:
REMARK  status: ('A' for Active; 'I' for Inactive)
REMARK    1  A    between atoms: C_1  and  C_2
REMARK    2  A    between atoms: C_2  and  O_3
REMARK    3  A    between atoms: O_3  and  C_4
REMARK    4  A    between atoms: C_13  and  C_25
REMARK    5  A    between atoms: C_16  and  C_18
REMARK    6  A    between atoms: C_21  and  C_24
REMARK    7  A    between atoms: C_30  and  O_31
REMARK                            x       y       z     vdW  Elec       q    Type
REMARK                         _______ _______ _______ _____ _____    ______ ____
ROOT
ATOM      1  C   UNL     1       0.776  -1.798  -1.335  0.00  0.00    +0.403 C 
ATOM      2  O   UNL     1       0.312  -2.549  -0.500  0.00  0.00    -0.226 OA
ATOM      3  N   UNL     1       1.395  -2.298  -2.422  0.00  0.00    -0.267 N 
ATOM      4  C   UNL     1       1.966  -1.403  -3.438  0.00  0.00    +0.111 C 
ATOM      5  C   UNL     1       1.405  -1.791  -4.809  0.00  0.00    +0.029 C 
ATOM      6  C   UNL     1       1.674  -3.278  -5.064  0.00  0.00    +0.032 C 
ATOM      7  C   UNL     1       0.957  -4.111  -3.996  0.00  0.00    +0.029 C 
ATOM      8  C   UNL     1       1.518  -3.750  -2.612  0.00  0.00    +0.111 C 
ATOM      9  N   UNL     1       1.152  -3.641  -6.388  0.00  0.00    +0.401 N 
ATOM     10  C   UNL     1       1.550  -5.024  -6.695  0.00  0.00    -0.028 C 
ATOM     11  C   UNL     1       3.066  -5.051  -6.912  0.00  0.00    +0.044 C 
ATOM     12  C   UNL     1       3.741  -4.308  -5.791  0.00  0.00    +0.040 C 
ATOM     13  N   UNL     1       3.110  -3.531  -4.994  0.00  0.00    -0.300 NA
ATOM     14  H   UNL     1       0.145  -3.571  -6.385  0.00  0.00    -0.081 HD
ATOM     15  H   UNL     1       1.533  -3.017  -7.084  0.00  0.00    -0.081 HD
ENDROOT
BRANCH  12  16
ATOM     16  C   UNL     1       5.195  -4.482  -5.603  0.00  0.00    -0.004 A 
ATOM     17  C   UNL     1       5.917  -5.318  -6.458  0.00  0.00    +0.010 A 
ATOM     18  C   UNL     1       7.276  -5.476  -6.276  0.00  0.00    +0.004 A 
ATOM     19  C   UNL     1       7.922  -4.810  -5.250  0.00  0.00    -0.050 A 
ATOM     20  C   UNL     1       7.212  -3.981  -4.399  0.00  0.00    +0.004 A 
ATOM     21  C   UNL     1       5.855  -3.808  -4.574  0.00  0.00    +0.010 A 
ATOM     22  C   UNL     1       9.406  -4.989  -5.058  0.00  0.00    +0.044 C 
ENDBRANCH  12  16
BRANCH  10  23
ATOM     23  C   UNL     1       0.849  -5.489  -7.945  0.00  0.00    -0.019 A 
ATOM     24  C   UNL     1       0.425  -4.568  -8.883  0.00  0.00    +0.005 A 
ATOM     25  C   UNL     1      -0.219  -4.994 -10.030  0.00  0.00    +0.000 A 
ATOM     26  C   UNL     1      -0.439  -6.342 -10.242  0.00  0.00    +0.004 A 
ATOM     27  C   UNL     1      -0.017  -7.268  -9.308  0.00  0.00    +0.045 A 
ATOM     28  C   UNL     1       0.634  -6.843  -8.158  0.00  0.00    +0.118 A 
BRANCH  28  29
ATOM     29  O   UNL     1       1.056  -7.752  -7.240  0.00  0.00    -0.507 OA
ATOM     30  H   UNL     1       0.400  -7.957  -6.559  0.00  0.00    +0.292 HD
ENDBRANCH  28  29
ENDBRANCH  10  23
BRANCH   1  31
ATOM     31  O   UNL     1       0.671  -0.465  -1.174  0.00  0.00    -0.451 OA
BRANCH  31  33
ATOM     32  C   UNL     1      -0.019   1.526   0.010  0.00  0.00    +0.048 C 
ATOM     33  C   UNL     1       0.002  -0.004   0.002  0.00  0.00    +0.230 C 
ENDBRANCH  31  33
ENDBRANCH   1  31
TORSDOF 5
