REMARK  Name = ZINC49563423
REMARK  4 active torsions:
REMARK  status: ('A' for Active; 'I' for Inactive)
REMARK    1  A    between atoms: C_4  and  C_7
REMARK    2  A    between atoms: C_7  and  N_8
REMARK    3  A    between atoms: N_16  and  C_17
REMARK    4  A    between atoms: C_17  and  C_19
REMARK                            x       y       z     vdW  Elec       q    Type
REMARK                         _______ _______ _______ _____ _____    ______ ____
ROOT
ATOM      1  N   UNL     1       4.153  -0.953   1.342  0.00  0.00    +0.386 N 
ATOM      2  C   UNL     1       5.489  -1.562   1.326  0.00  0.00    -0.072 C 
ATOM      3  C   UNL     1       6.093  -1.550   2.734  0.00  0.00    +0.035 C 
ATOM      4  C   UNL     1       5.081  -2.174   3.686  0.00  0.00    +0.024 A 
ATOM      5  C   UNL     1       3.797  -2.294   3.308  0.00  0.00    -0.004 A 
ATOM      6  S   UNL     1       3.021  -3.059   4.702  0.00  0.00    -0.059 S 
ATOM      7  C   UNL     1       4.375  -3.184   5.696  0.00  0.00    +0.164 A 
ATOM      8  N   UNL     1       5.367  -2.643   4.938  0.00  0.00    -0.339 N 
ATOM      9  N   UNL     1       4.455  -3.689   6.926  0.00  0.00    -0.152 NA
ATOM     10  C   UNL     1       3.204  -1.866   2.007  0.00  0.00    -0.033 C 
ATOM     11  H   UNL     1       6.272  -2.591   5.284  0.00  0.00    +0.167 HD
ATOM     12  H   UNL     1       4.188  -0.079   1.845  0.00  0.00    -0.081 HD
ENDROOT
BRANCH   9  13
ATOM     13  C   UNL     1       5.626  -3.704   7.566  0.00  0.00    +0.271 C 
ATOM     14  O   UNL     1       6.622  -3.255   7.026  0.00  0.00    -0.268 OA
BRANCH  13  15
ATOM     15  C   UNL     1       5.715  -4.266   8.934  0.00  0.00    +0.057 A 
ATOM     16  C   UNL     1       6.936  -4.282   9.618  0.00  0.00    +0.017 A 
ATOM     17  C   UNL     1       6.966  -4.818  10.892  0.00  0.00    +0.041 A 
ATOM     18  C   UNL     1       5.799  -5.318  11.445  0.00  0.00    +0.129 A 
ATOM     19  N   UNL     1       4.662  -5.289  10.775  0.00  0.00    -0.243 NA
ATOM     20  C   UNL     1       4.583  -4.784   9.562  0.00  0.00    +0.125 A 
ATOM     21 CL   UNL     1       5.831  -5.993  13.045  0.00  0.00    -0.062 Cl
ENDBRANCH  13  15
ENDBRANCH   9  13
BRANCH   1  22
ATOM     22  C   UNL     1       3.711  -0.707  -0.038  0.00  0.00    -0.043 C 
BRANCH  22  26
ATOM     23  C   UNL     1      -0.017   1.378   0.010  0.00  0.00    +0.000 A 
ATOM     24  C   UNL     1       1.171   2.086   0.002  0.00  0.00    +0.000 A 
ATOM     25  C   UNL     1       2.377   1.411  -0.013  0.00  0.00    +0.002 A 
ATOM     26  C   UNL     1       2.396   0.029  -0.020  0.00  0.00    -0.064 A 
ATOM     27  C   UNL     1       1.208  -0.679  -0.012  0.00  0.00    +0.002 A 
ATOM     28  C   UNL     1       0.002  -0.004   0.002  0.00  0.00    +0.000 A 
ENDBRANCH  22  26
ENDBRANCH   1  22
TORSDOF 4
