REMARK  Name = ZINC63708334
REMARK  11 active torsions:
REMARK  status: ('A' for Active; 'I' for Inactive)
REMARK    1  A    between atoms: C_1  and  C_2
REMARK    2  A    between atoms: C_2  and  C_3
REMARK    3  A    between atoms: C_3  and  C_5
REMARK    4  A    between atoms: C_3  and  S_15
REMARK    5  A    between atoms: N_7  and  C_8
REMARK    6  A    between atoms: S_15  and  C_16
REMARK    7  A    between atoms: C_28  and  C_30
REMARK    8  A    between atoms: C_30  and  C_31
REMARK    9  A    between atoms: C_31  and  C_32
REMARK   10  A    between atoms: C_33  and  C_39
REMARK   11  A    between atoms: C_36  and  C_38
REMARK                            x       y       z     vdW  Elec       q    Type
REMARK                         _______ _______ _______ _____ _____    ______ ____
ROOT
ATOM      1  C   UNL     1      -2.819   1.291   1.907  0.00  0.00    +0.249 C 
ATOM      2  N   UNL     1      -3.932   1.619   1.006  0.00  0.00    -0.356 N 
ATOM      3  C   UNL     1      -3.788   2.588   0.113  0.00  0.00    +0.048 A 
ATOM      4  C   UNL     1      -4.844   2.921  -0.763  0.00  0.00    +0.026 A 
ATOM      5  C   UNL     1      -4.675   3.918  -1.672  0.00  0.00    +0.002 A 
ATOM      6  C   UNL     1      -3.479   4.627  -1.764  0.00  0.00    +0.001 A 
ATOM      7  C   UNL     1      -2.423   4.354  -0.949  0.00  0.00    +0.013 A 
ATOM      8  C   UNL     1      -2.530   3.336   0.014  0.00  0.00    +0.038 A 
ATOM      9  C   UNL     1      -1.448   3.040   0.867  0.00  0.00    +0.128 C 
ATOM     10  N   UNL     1      -1.570   2.043   1.798  0.00  0.00    -0.204 N 
ATOM     11  N   UNL     1      -0.348   1.989   2.480  0.00  0.00    -0.249 N 
ATOM     12  C   UNL     1       0.440   2.942   1.934  0.00  0.00    +0.090 C 
ATOM     13  N   UNL     1      -0.219   3.557   0.985  0.00  0.00    -0.332 N 
ATOM     14  H   UNL     1      -0.114   1.387   3.203  0.00  0.00    +0.171 HD
ATOM     15  H   UNL     1      -4.768   1.130   1.065  0.00  0.00    +0.162 HD
ATOM     16  H   UNL     1       0.134   4.280   0.444  0.00  0.00    +0.168 HD
ENDROOT
BRANCH   1  17
ATOM     17  S   UNL     1      -2.423  -0.463   1.667  0.00  0.00    -0.103 S 
BRANCH  17  18
ATOM     18  C   UNL     1      -1.618  -0.512   0.042  0.00  0.00    +0.136 C 
BRANCH  18  19
ATOM     19  C   UNL     1      -2.635  -0.224  -1.032  0.00  0.00    +0.230 C 
ATOM     20  O   UNL     1      -3.818  -0.363  -0.800  0.00  0.00    -0.274 OA
ATOM     21  N   UNL     1      -2.231   0.189  -2.249  0.00  0.00    -0.282 N 
ATOM     22  H   UNL     1      -1.293   0.371  -2.413  0.00  0.00    +0.155 HD
BRANCH  21  23
ATOM     23  C   UNL     1      -3.167   0.355  -3.279  0.00  0.00    +0.069 A 
ATOM     24  C   UNL     1      -4.395  -0.289  -3.212  0.00  0.00    +0.026 A 
ATOM     25  C   UNL     1      -5.316  -0.123  -4.229  0.00  0.00    +0.002 A 
ATOM     26  C   UNL     1      -5.016   0.682  -5.312  0.00  0.00    +0.003 A 
ATOM     27  C   UNL     1      -3.794   1.325  -5.383  0.00  0.00    +0.040 A 
ATOM     28  C   UNL     1      -2.869   1.169  -4.366  0.00  0.00    +0.144 A 
ATOM     29  F   UNL     1      -1.677   1.801  -4.432  0.00  0.00    -0.204 F 
ENDBRANCH  21  23
ENDBRANCH  18  19
BRANCH  18  31
ATOM     30  C   UNL     1       0.122  -2.133   0.810  0.00  0.00    +0.005 C 
ATOM     31  C   UNL     1      -1.015  -1.900  -0.186  0.00  0.00    +0.020 C 
ENDBRANCH  18  31
ENDBRANCH  17  18
ENDBRANCH   1  17
BRANCH  12  32
ATOM     32  C   UNL     1       1.854   3.250   2.354  0.00  0.00    +0.075 C 
BRANCH  32  33
ATOM     33  C   UNL     1       2.826   2.397   1.538  0.00  0.00    +0.042 C 
BRANCH  33  34
ATOM     34  C   UNL     1       4.240   2.705   1.958  0.00  0.00    -0.021 C 
ATOM     35  C   UNL     1       4.994   2.056   2.848  0.00  0.00    +0.061 C 
ATOM     36  N   UNL     1       6.212   2.631   2.956  0.00  0.00    -0.159 NA
ATOM     37  N   UNL     1       6.380   3.615   2.231  0.00  0.00    -0.180 NA
ATOM     38  C   UNL     1       5.141   3.822   1.462  0.00  0.00    +0.153 C 
ATOM     39  C   UNL     1       4.532   5.190   1.780  0.00  0.00    +0.039 C 
ATOM     40  C   UNL     1       4.547   0.846   3.627  0.00  0.00    +0.067 C 
ENDBRANCH  33  34
ENDBRANCH  32  33
ENDBRANCH  12  32
TORSDOF 8
