REMARK  Name = ZINC12477459
REMARK  14 active torsions:
REMARK  status: ('A' for Active; 'I' for Inactive)
REMARK    1  A    between atoms: C_1  and  C_2
REMARK    2  A    between atoms: C_5  and  C_8
REMARK    3  A    between atoms: N_11  and  C_13
REMARK    4  A    between atoms: C_13  and  C_14
REMARK    5  A    between atoms: N_16  and  C_17
REMARK    6  A    between atoms: N_16  and  C_24
REMARK    7  A    between atoms: C_17  and  C_18
REMARK    8  A    between atoms: C_24  and  C_26
REMARK    9  A    between atoms: C_24  and  C_33
REMARK   10  A    between atoms: C_29  and  O_32
REMARK   11  A    between atoms: N_35  and  C_36
REMARK   12  A    between atoms: C_36  and  C_37
REMARK   13  A    between atoms: C_36  and  C_38
REMARK   14  A    between atoms: C_36  and  C_39
REMARK                            x       y       z     vdW  Elec       q    Type
REMARK                         _______ _______ _______ _____ _____    ______ ____
ROOT
ATOM      1  C   UNL     1       3.770  -0.759  -1.292  0.00  0.00    +0.240 C 
ATOM      2  O   UNL     1       3.526  -1.145  -2.416  0.00  0.00    -0.273 OA
ATOM      3  N   UNL     1       4.298  -1.608  -0.388  0.00  0.00    -0.280 N 
ENDROOT
BRANCH   1   4
ATOM      4  C   UNL     1       3.484   0.669  -0.907  0.00  0.00    +0.264 C 
BRANCH   4   8
ATOM      5  C   UNL     1       2.702   2.516  -3.810  0.00  0.00    +0.205 A 
ATOM      6  N   UNL     1       1.484   2.151  -3.388  0.00  0.00    -0.108 NA
ATOM      7  N   UNL     1       1.643   1.457  -2.312  0.00  0.00    -0.045 NA
ATOM      8  N   UNL     1       2.901   1.376  -2.050  0.00  0.00    -0.154 N 
ATOM      9  N   UNL     1       3.566   2.019  -2.947  0.00  0.00    -0.130 NA
BRANCH   5  14
ATOM     10  C   UNL     1       3.926   5.667  -8.474  0.00  0.00    +0.044 C 
ATOM     11  C   UNL     1       3.606   4.843  -7.254  0.00  0.00    -0.050 A 
ATOM     12  C   UNL     1       2.290   4.546  -6.948  0.00  0.00    +0.004 A 
ATOM     13  C   UNL     1       1.991   3.791  -5.832  0.00  0.00    +0.012 A 
ATOM     14  C   UNL     1       3.018   3.328  -5.012  0.00  0.00    +0.023 A 
ATOM     15  C   UNL     1       4.341   3.634  -5.322  0.00  0.00    +0.012 A 
ATOM     16  C   UNL     1       4.629   4.385  -6.443  0.00  0.00    +0.004 A 
ENDBRANCH   5  14
ENDBRANCH   4   8
ENDBRANCH   1   4
BRANCH   3  17
ATOM     17  C   UNL     1       4.399  -1.211   1.018  0.00  0.00    +0.144 C 
BRANCH  17  18
ATOM     18  C   UNL     1       3.092  -1.491   1.714  0.00  0.00    -0.030 A 
ATOM     19  C   UNL     1       2.233  -2.451   1.212  0.00  0.00    +0.005 A 
ATOM     20  C   UNL     1       1.034  -2.708   1.851  0.00  0.00    +0.000 A 
ATOM     21  C   UNL     1       0.694  -2.005   2.991  0.00  0.00    +0.000 A 
ATOM     22  C   UNL     1       1.553  -1.045   3.494  0.00  0.00    +0.000 A 
ATOM     23  C   UNL     1       2.752  -0.788   2.855  0.00  0.00    +0.005 A 
ENDBRANCH  17  18
ENDBRANCH   3  17
BRANCH   3  24
ATOM     24  C   UNL     1       4.771  -2.929  -0.812  0.00  0.00    +0.193 C 
BRANCH  24  25
ATOM     25  C   UNL     1       5.760  -2.770  -1.938  0.00  0.00    -0.018 A 
ATOM     26  C   UNL     1       6.774  -1.836  -1.839  0.00  0.00    +0.009 A 
ATOM     27  C   UNL     1       7.685  -1.693  -2.868  0.00  0.00    +0.046 A 
ATOM     28  C   UNL     1       7.575  -2.479  -4.005  0.00  0.00    +0.117 A 
ATOM     29  C   UNL     1       6.554  -3.413  -4.104  0.00  0.00    +0.046 A 
ATOM     30  C   UNL     1       5.648  -3.556  -3.070  0.00  0.00    +0.009 A 
BRANCH  28  31
ATOM     31  O   UNL     1       8.467  -2.336  -5.021  0.00  0.00    -0.507 OA
ATOM     32  H   UNL     1       8.204  -1.685  -5.686  0.00  0.00    +0.292 HD
ENDBRANCH  28  31
ENDBRANCH  24  25
BRANCH  24  33
ATOM     33  C   UNL     1       5.437  -3.620   0.349  0.00  0.00    +0.238 C 
ATOM     34  O   UNL     1       5.044  -3.423   1.479  0.00  0.00    -0.273 OA
ATOM     35  N   UNL     1       6.471  -4.457   0.131  0.00  0.00    -0.309 N 
ATOM     36  H   UNL     1       6.790  -4.610  -0.772  0.00  0.00    +0.149 HD
BRANCH  35  37
ATOM     37  C   UNL     1       7.113  -5.138   1.259  0.00  0.00    +0.026 C 
ATOM     38  C   UNL     1       6.062  -5.923   2.046  0.00  0.00    +0.031 C 
ATOM     39  C   UNL     1       8.181  -6.099   0.734  0.00  0.00    +0.031 C 
ATOM     40  C   UNL     1       7.766  -4.101   2.175  0.00  0.00    +0.031 C 
ENDBRANCH  35  37
ENDBRANCH  24  33
ENDBRANCH   3  24
TORSDOF 10
