REMARK  Name = ZINC63731646
REMARK  4 active torsions:
REMARK  status: ('A' for Active; 'I' for Inactive)
REMARK    1  A    between atoms: C_5  and  N_7
REMARK    2  A    between atoms: C_11  and  C_13
REMARK    3  A    between atoms: C_13  and  S_14
REMARK    4  A    between atoms: S_14  and  C_15
REMARK                            x       y       z     vdW  Elec       q    Type
REMARK                         _______ _______ _______ _____ _____    ______ ____
ROOT
ATOM      1  N   UNL     1       1.236  -2.081  -0.022  0.00  0.00    -0.267 N 
ATOM      2  C   UNL     1       0.085  -2.774   0.087  0.00  0.00    +0.310 C 
ATOM      3  O   UNL     1      -0.979  -2.186   0.101  0.00  0.00    -0.252 OA
ATOM      4  N   UNL     1       0.114  -4.118   0.180  0.00  0.00    -0.239 N 
ATOM      5  C   UNL     1      -1.037  -4.811   0.289  0.00  0.00    +0.230 C 
ATOM      6  O   UNL     1      -2.098  -4.225   0.303  0.00  0.00    -0.274 OA
ATOM      7  H   UNL     1       2.079  -2.552  -0.116  0.00  0.00    +0.156 HD
ATOM      8  H   UNL     1       0.963  -4.587   0.169  0.00  0.00    +0.159 HD
ENDROOT
BRANCH   1  13
ATOM      9  C   UNL     1       0.154   1.371   0.643  0.00  0.00    +0.002 A 
ATOM     10  C   UNL     1       1.173   2.087   0.043  0.00  0.00    +0.003 A 
ATOM     11  C   UNL     1       2.215   1.423  -0.579  0.00  0.00    +0.040 A 
ATOM     12  C   UNL     1       2.240   0.041  -0.603  0.00  0.00    +0.145 A 
ATOM     13  C   UNL     1       1.215  -0.681  -0.000  0.00  0.00    +0.070 A 
ATOM     14  C   UNL     1       0.172  -0.010   0.623  0.00  0.00    +0.026 A 
ATOM     15  F   UNL     1       3.257  -0.608  -1.211  0.00  0.00    -0.204 F 
ENDBRANCH   1  13
BRANCH   5  16
ATOM     16  C   UNL     1      -1.005  -6.314   0.393  0.00  0.00    +0.169 C 
BRANCH  16  17
ATOM     17  S   UNL     1      -2.700  -6.947   0.526  0.00  0.00    -0.106 S 
BRANCH  17  18
ATOM     18  C   UNL     1      -2.489  -8.745   0.642  0.00  0.00    +0.236 C 
ATOM     19  N   UNL     1      -1.762  -9.244  -0.532  0.00  0.00    -0.355 N 
ATOM     20  C   UNL     1      -0.664  -9.797  -0.106  0.00  0.00    +0.061 A 
ATOM     21  C   UNL     1       0.452 -10.462  -0.795  0.00  0.00    +0.029 A 
ATOM     22  C   UNL     1       1.481 -10.951  -0.075  0.00  0.00    +0.022 A 
ATOM     23  C   UNL     1       1.539 -10.854   1.328  0.00  0.00    +0.043 A 
ATOM     24  C   UNL     1       0.568 -10.264   2.057  0.00  0.00    +0.047 A 
ATOM     25  C   UNL     1      -0.603  -9.695   1.377  0.00  0.00    +0.062 A 
ATOM     26  N   UNL     1      -1.668  -9.082   1.812  0.00  0.00    -0.355 N 
ATOM     27 CL   UNL     1       2.913 -11.520   2.154  0.00  0.00    -0.083 Cl
ATOM     28  H   UNL     1      -2.048  -9.174  -1.456  0.00  0.00    +0.162 HD
ATOM     29  H   UNL     1      -1.879  -8.884   2.738  0.00  0.00    +0.162 HD
ENDBRANCH  17  18
ENDBRANCH  16  17
ENDBRANCH   5  16
TORSDOF 4
