REMARK  Name = ZINC39932192
REMARK  9 active torsions:
REMARK  status: ('A' for Active; 'I' for Inactive)
REMARK    1  A    between atoms: C_1  and  C_2
REMARK    2  A    between atoms: C_2  and  C_3
REMARK    3  A    between atoms: C_2  and  N_4
REMARK    4  A    between atoms: C_9  and  C_18
REMARK    5  A    between atoms: C_11  and  C_13
REMARK    6  A    between atoms: C_18  and  O_20
REMARK    7  A    between atoms: O_20  and  C_21
REMARK    8  A    between atoms: C_21  and  C_22
REMARK    9  A    between atoms: C_22  and  C_24
REMARK                            x       y       z     vdW  Elec       q    Type
REMARK                         _______ _______ _______ _____ _____    ______ ____
ROOT
ATOM      1  C   UNL     1      -5.505  -2.631  -0.928  0.00  0.00    +0.340 C 
ATOM      2  O   UNL     1      -5.944  -2.164   0.104  0.00  0.00    -0.245 OA
ENDROOT
BRANCH   1   8
ATOM      3  N   UNL     1      -1.372  -0.511   0.012  0.00  0.00    -0.244 N 
ATOM      4  C   UNL     1      -1.942  -1.310  -0.945  0.00  0.00    +0.160 A 
ATOM      5  C   UNL     1      -3.267  -1.548  -0.526  0.00  0.00    +0.053 A 
ATOM      6  C   UNL     1      -3.445  -0.867   0.696  0.00  0.00    +0.145 A 
ATOM      7  N   UNL     1      -2.329  -0.269   1.005  0.00  0.00    -0.177 NA
ATOM      8  C   UNL     1      -4.110  -2.354  -1.328  0.00  0.00    +0.073 A 
ATOM      9  C   UNL     1      -3.585  -2.877  -2.504  0.00  0.00    +0.044 A 
ATOM     10  C   UNL     1      -2.258  -2.592  -2.848  0.00  0.00    +0.081 A 
ATOM     11  N   UNL     1      -1.493  -1.834  -2.076  0.00  0.00    -0.227 NA
BRANCH  10  12
ATOM     12  C   UNL     1      -1.699  -3.147  -4.096  0.00  0.00    +0.038 A 
ATOM     13  C   UNL     1      -0.440  -3.003  -4.618  0.00  0.00    +0.017 A 
ATOM     14  C   UNL     1      -0.143  -3.622  -5.811  0.00  0.00    +0.008 A 
ATOM     15  C   UNL     1      -1.103  -4.355  -6.433  0.00  0.00    +0.046 A 
ATOM     16  S   UNL     1      -2.485  -4.189  -5.315  0.00  0.00    -0.095 S 
ENDBRANCH  10  12
BRANCH   3  18
ATOM     17  C   UNL     1      -0.019   1.526   0.010  0.00  0.00    +0.032 C 
ATOM     18  C   UNL     1       0.002  -0.004   0.002  0.00  0.00    +0.103 C 
ATOM     19  C   UNL     1       0.742  -0.511   1.242  0.00  0.00    +0.032 C 
ENDBRANCH   3  18
ENDBRANCH   1   8
BRANCH   1  20
ATOM     20  O   UNL     1      -6.289  -3.401  -1.707  0.00  0.00    -0.453 OA
BRANCH  20  21
ATOM     21  C   UNL     1      -7.627  -3.627  -1.258  0.00  0.00    +0.311 C 
BRANCH  21  22
ATOM     22  C   UNL     1      -8.348  -4.503  -2.250  0.00  0.00    +0.200 C 
ATOM     23  O   UNL     1      -7.773  -4.895  -3.243  0.00  0.00    -0.288 OA
BRANCH  22  24
ATOM     24  C   UNL     1      -9.749  -4.883  -2.014  0.00  0.00    +0.023 A 
ATOM     25  C   UNL     1     -10.437  -4.397  -0.812  0.00  0.00    +0.013 A 
ATOM     26  C   UNL     1     -11.722  -4.715  -0.546  0.00  0.00    +0.026 A 
ATOM     27  C   UNL     1     -12.456  -5.535  -1.428  0.00  0.00    +0.056 A 
ATOM     28  N   UNL     1     -13.687  -6.004  -1.440  0.00  0.00    -0.268 N 
ATOM     29  C   UNL     1     -13.850  -6.760  -2.564  0.00  0.00    +0.308 C 
ATOM     30  O   UNL     1     -14.871  -7.336  -2.876  0.00  0.00    -0.252 OA
ATOM     31  N   UNL     1     -12.676  -6.772  -3.295  0.00  0.00    -0.268 N 
ATOM     32  C   UNL     1     -11.791  -6.050  -2.665  0.00  0.00    +0.057 A 
ATOM     33  C   UNL     1     -10.394  -5.678  -2.919  0.00  0.00    +0.036 A 
ATOM     34  H   UNL     1     -12.535  -7.238  -4.134  0.00  0.00    +0.156 HD
ATOM     35  H   UNL     1     -14.363  -5.840  -0.764  0.00  0.00    +0.156 HD
ENDBRANCH  22  24
ENDBRANCH  21  22
ENDBRANCH  20  21
ENDBRANCH   1  20
TORSDOF 7
