REMARK  Name = ZINC09510702
REMARK  13 active torsions:
REMARK  status: ('A' for Active; 'I' for Inactive)
REMARK    1  A    between atoms: C_1  and  C_2
REMARK    2  A    between atoms: C_2  and  C_3
REMARK    3  A    between atoms: N_9  and  S_10
REMARK    4  A    between atoms: S_10  and  C_13
REMARK    5  A    between atoms: C_16  and  C_19
REMARK    6  A    between atoms: C_19  and  N_21
REMARK    7  A    between atoms: N_23  and  C_33
REMARK    8  A    between atoms: C_26  and  C_32
REMARK    9  A    between atoms: C_27  and  C_31
REMARK   10  A    between atoms: C_33  and  C_34
REMARK   11  A    between atoms: C_34  and  O_35
REMARK   12  A    between atoms: O_35  and  C_36
REMARK   13  A    between atoms: C_36  and  C_37
REMARK                            x       y       z     vdW  Elec       q    Type
REMARK                         _______ _______ _______ _____ _____    ______ ____
ROOT
ATOM      1  C   UNL     1      -3.330   2.002  -0.038  0.00  0.00    +0.269 C 
ATOM      2  O   UNL     1      -3.565   2.756   0.889  0.00  0.00    -0.268 OA
ENDROOT
BRANCH   1   3
ATOM      3  N   UNL     1      -2.105   1.488  -0.187  0.00  0.00    -0.152 NA
ATOM      4  C   UNL     1      -1.144   1.798   0.677  0.00  0.00    +0.167 A 
ATOM      5  N   UNL     1       0.149   1.377   0.688  0.00  0.00    -0.319 N 
ATOM      6  C   UNL     1       1.010   1.808   1.680  0.00  0.00    +0.058 A 
ATOM      7  C   UNL     1       2.366   1.492   1.854  0.00  0.00    +0.030 A 
ATOM      8  C   UNL     1       3.082   2.018   2.903  0.00  0.00    -0.046 A 
ATOM      9  C   UNL     1       2.492   2.877   3.815  0.00  0.00    -0.046 A 
ATOM     10  C   UNL     1       1.158   3.211   3.664  0.00  0.00    +0.020 A 
ATOM     11  C   UNL     1       0.441   2.684   2.616  0.00  0.00    +0.039 A 
ATOM     12  S   UNL     1      -1.238   2.838   2.062  0.00  0.00    -0.052 S 
ATOM     13  C   UNL     1       3.295   3.444   4.957  0.00  0.00    +0.044 C 
ATOM     14  C   UNL     1       4.535   1.653   3.064  0.00  0.00    +0.044 C 
BRANCH   5  15
ATOM     15  C   UNL     1       0.629   0.461  -0.350  0.00  0.00    +0.152 C 
BRANCH  15  16
ATOM     16  C   UNL     1      -0.024   0.819  -1.687  0.00  0.00    +0.181 C 
BRANCH  16  17
ATOM     17  O   UNL     1       0.543   0.015  -2.724  0.00  0.00    -0.378 OA
BRANCH  17  18
ATOM     18  C   UNL     1      -0.000   0.271  -4.021  0.00  0.00    +0.156 C 
ATOM     19  C   UNL     1       0.677  -0.641  -5.046  0.00  0.00    +0.034 C 
ENDBRANCH  17  18
ENDBRANCH  16  17
ENDBRANCH  15  16
ENDBRANCH   5  15
ENDBRANCH   1   3
BRANCH   1  23
ATOM     20  C   UNL     1      -6.402   1.008  -2.801  0.00  0.00    +0.106 A 
ATOM     21  C   UNL     1      -6.673   1.864  -1.749  0.00  0.00    +0.029 A 
ATOM     22  C   UNL     1      -5.679   2.191  -0.849  0.00  0.00    +0.015 A 
ATOM     23  C   UNL     1      -4.401   1.656  -1.001  0.00  0.00    +0.039 A 
ATOM     24  C   UNL     1      -4.133   0.797  -2.067  0.00  0.00    +0.015 A 
ATOM     25  C   UNL     1      -5.136   0.474  -2.958  0.00  0.00    +0.029 A 
BRANCH  20  26
ATOM     26  S   UNL     1      -7.676   0.596  -3.947  0.00  0.00    +0.061 S 
ATOM     27  O   UNL     1      -7.204  -0.513  -4.698  0.00  0.00    -0.153 OA
ATOM     28  O   UNL     1      -8.889   0.555  -3.208  0.00  0.00    -0.153 OA
BRANCH  26  34
ATOM     29  C   UNL     1      -6.892   1.984  -6.147  0.00  0.00    +0.080 C 
ATOM     30  C   UNL     1      -6.250   3.375  -6.117  0.00  0.00    +0.021 C 
ATOM     31  C   UNL     1      -7.350   4.439  -6.078  0.00  0.00    +0.003 C 
ATOM     32  C   UNL     1      -8.186   4.265  -4.808  0.00  0.00    +0.017 C 
ATOM     33  C   UNL     1      -8.853   2.881  -4.827  0.00  0.00    +0.110 C 
ATOM     34  N   UNL     1      -7.810   1.862  -5.006  0.00  0.00    -0.174 NA
BRANCH  29  36
ATOM     35  C   UNL     1      -4.783   1.117  -7.167  0.00  0.00    +0.005 C 
ATOM     36  C   UNL     1      -5.805   0.912  -6.047  0.00  0.00    +0.017 C 
ENDBRANCH  29  36
ENDBRANCH  26  34
ENDBRANCH  20  26
ENDBRANCH   1  23
TORSDOF 9
