REMARK  Name = ZINC64980170
REMARK  7 active torsions:
REMARK  status: ('A' for Active; 'I' for Inactive)
REMARK    1  A    between atoms: C_1  and  C_2
REMARK    2  A    between atoms: C_2  and  N_3
REMARK    3  A    between atoms: C_7  and  C_19
REMARK    4  A    between atoms: C_21  and  C_24
REMARK    5  A    between atoms: C_24  and  C_26
REMARK    6  A    between atoms: C_24  and  N_27
REMARK    7  A    between atoms: C_28  and  C_30
REMARK                            x       y       z     vdW  Elec       q    Type
REMARK                         _______ _______ _______ _____ _____    ______ ____
ROOT
ATOM      1  N   UNL     1      -1.372  -0.511   0.012  0.00  0.00    -0.267 N 
ATOM      2  C   UNL     1      -1.906  -0.713   1.276  0.00  0.00    +0.050 A 
ATOM      3  C   UNL     1      -1.121  -1.354   2.234  0.00  0.00    +0.025 A 
ATOM      4  C   UNL     1      -1.605  -1.576   3.504  0.00  0.00    +0.013 A 
ATOM      5  C   UNL     1      -2.891  -1.160   3.845  0.00  0.00    +0.024 A 
ATOM      6  C   UNL     1      -3.682  -0.520   2.893  0.00  0.00    +0.028 A 
ATOM      7  C   UNL     1      -3.190  -0.300   1.617  0.00  0.00    +0.035 A 
ATOM      8  S   UNL     1      -4.211   0.507   0.427  0.00  0.00    -0.087 S 
ATOM      9  C   UNL     1      -4.375  -0.688  -0.858  0.00  0.00    +0.025 A 
ATOM     10  C   UNL     1      -5.634  -1.156  -1.211  0.00  0.00    +0.016 A 
ATOM     11  C   UNL     1      -5.767  -2.090  -2.219  0.00  0.00    +0.001 A 
ATOM     12  C   UNL     1      -4.645  -2.562  -2.881  0.00  0.00    +0.001 A 
ATOM     13  C   UNL     1      -3.390  -2.109  -2.542  0.00  0.00    +0.014 A 
ATOM     14  C   UNL     1      -3.235  -1.162  -1.520  0.00  0.00    +0.051 A 
ATOM     15  C   UNL     1      -1.896  -0.694  -1.170  0.00  0.00    +0.252 C 
ATOM     16  O   UNL     1      -1.167  -0.444  -2.111  0.00  0.00    -0.270 OA
ENDROOT
BRANCH   5  17
ATOM     17  C   UNL     1      -3.414  -1.398   5.213  0.00  0.00    +0.202 A 
ATOM     18  N   UNL     1      -2.747  -1.998   6.215  0.00  0.00    -0.190 NA
ATOM     19  C   UNL     1      -3.493  -2.045   7.282  0.00  0.00    +0.248 A 
ATOM     20  O   UNL     1      -4.671  -1.474   7.002  0.00  0.00    -0.336 OA
ATOM     21  N   UNL     1      -4.601  -1.053   5.648  0.00  0.00    -0.056 NA
BRANCH  19  22
ATOM     22  C   UNL     1      -3.096  -2.642   8.607  0.00  0.00    +0.159 C 
ATOM     23  C   UNL     1      -3.798  -3.989   8.790  0.00  0.00    +0.038 C 
BRANCH  22  24
ATOM     24  N   UNL     1      -3.490  -1.736   9.689  0.00  0.00    -0.300 N 
ATOM     25  C   UNL     1      -2.838  -1.769  10.867  0.00  0.00    +0.245 C 
ATOM     26  O   UNL     1      -1.923  -2.552  11.034  0.00  0.00    -0.270 OA
ATOM     27  H   UNL     1      -4.220  -1.111   9.556  0.00  0.00    +0.150 HD
BRANCH  25  28
ATOM     28  C   UNL     1      -3.235  -0.854  11.959  0.00  0.00    +0.037 A 
ATOM     29  C   UNL     1      -4.289   0.042  11.773  0.00  0.00    +0.013 A 
ATOM     30  C   UNL     1      -4.655   0.893  12.795  0.00  0.00    +0.001 A 
ATOM     31  C   UNL     1      -3.980   0.860  14.002  0.00  0.00    +0.000 A 
ATOM     32  C   UNL     1      -2.934  -0.026  14.193  0.00  0.00    +0.001 A 
ATOM     33  C   UNL     1      -2.562  -0.886  13.181  0.00  0.00    +0.013 A 
ENDBRANCH  25  28
ENDBRANCH  22  24
ENDBRANCH  19  22
ENDBRANCH   5  17
BRANCH   1  35
ATOM     34  C   UNL     1      -0.019   1.526   0.010  0.00  0.00    +0.025 C 
ATOM     35  C   UNL     1       0.002  -0.004   0.002  0.00  0.00    +0.110 C 
ENDBRANCH   1  35
TORSDOF 5
