REMARK  Name = ZINC06443919
REMARK  10 active torsions:
REMARK  status: ('A' for Active; 'I' for Inactive)
REMARK    1  A    between atoms: C_1  and  C_2
REMARK    2  A    between atoms: C_12  and  C_14
REMARK    3  A    between atoms: C_14  and  C_16
REMARK    4  A    between atoms: C_14  and  N_70
REMARK    5  A    between atoms: N_20  and  C_21
REMARK    6  A    between atoms: C_26  and  C_27
REMARK    7  A    between atoms: C_26  and  N_70
REMARK    8  A    between atoms: C_27  and  C_28
REMARK    9  A    between atoms: C_34  and  C_35
REMARK   10  A    between atoms: C_34  and  N_70
REMARK                            x       y       z     vdW  Elec       q    Type
REMARK                         _______ _______ _______ _____ _____    ______ ____
ROOT
ATOM      1  C   UNL     1      -0.674  -3.030   4.597  0.00  0.00    +0.039 C 
ENDROOT
BRANCH   1  13
ATOM      2  C   UNL     1      -2.687   0.841  -0.319  0.00  0.00    +0.046 C 
ATOM      3  C   UNL     1      -2.549  -0.657  -0.225  0.00  0.00    -0.026 A 
ATOM      4  C   UNL     1      -2.881  -1.452  -1.300  0.00  0.00    +0.005 A 
ATOM      5  C   UNL     1      -2.752  -2.832  -1.228  0.00  0.00    +0.001 A 
ATOM      6  C   UNL     1      -2.305  -3.429  -0.084  0.00  0.00    +0.010 A 
ATOM      7  C   UNL     1      -1.968  -2.643   1.023  0.00  0.00    -0.001 A 
ATOM      8  C   UNL     1      -2.091  -1.242   0.951  0.00  0.00    +0.052 A 
ATOM      9  N   UNL     1      -1.757  -0.472   2.044  0.00  0.00    -0.322 N 
ATOM     10  H   UNL     1      -1.842   0.493   1.993  0.00  0.00    +0.169 HD
ATOM     11  C   UNL     1      -1.315  -1.039   3.181  0.00  0.00    +0.251 A 
ATOM     12  O   UNL     1      -1.029  -0.327   4.128  0.00  0.00    -0.268 OA
ATOM     13  C   UNL     1      -1.173  -2.438   3.304  0.00  0.00    +0.011 A 
ATOM     14  C   UNL     1      -1.484  -3.250   2.264  0.00  0.00    +0.017 A 
ENDBRANCH   1  13
BRANCH   1  15
ATOM     15  C   UNL     1      -1.685  -2.785   5.686  0.00  0.00    +0.143 A 
ATOM     16  N   UNL     1      -1.758  -1.732   6.464  0.00  0.00    -0.115 NA
ATOM     17  N   UNL     1      -2.756  -1.895   7.262  0.00  0.00    -0.023 NA
ATOM     18  N   UNL     1      -3.318  -3.027   7.018  0.00  0.00    -0.044 NA
ATOM     19  N   UNL     1      -2.687  -3.606   6.053  0.00  0.00    -0.227 N 
BRANCH  19  20
ATOM     20  C   UNL     1      -3.001  -4.911   5.466  0.00  0.00    +0.111 C 
ATOM     21  C   UNL     1      -4.421  -4.892   4.863  0.00  0.00    +0.027 C 
ATOM     22  C   UNL     1      -4.982  -6.303   5.170  0.00  0.00    +0.002 C 
ATOM     23  C   UNL     1      -4.422  -6.595   6.584  0.00  0.00    +0.002 C 
ATOM     24  C   UNL     1      -3.001  -5.994   6.560  0.00  0.00    +0.027 C 
ENDBRANCH  19  20
ENDBRANCH   1  15
BRANCH   1  25
ATOM     25  N   UNL     1       0.598  -2.373   4.966  0.00  0.00    +0.392 N 
ATOM     26  H   UNL     1       0.428  -1.369   5.098  0.00  0.00    -0.080 HD
BRANCH  25  27
ATOM     27  C   UNL     1       1.593  -2.555   3.888  0.00  0.00    -0.072 C 
BRANCH  27  28
ATOM     28  C   UNL     1       2.786  -1.637   4.160  0.00  0.00    +0.016 C 
BRANCH  28  29
ATOM     29  C   UNL     1       3.738  -1.693   2.992  0.00  0.00    -0.049 A 
ATOM     30  C   UNL     1       4.759  -2.624   2.977  0.00  0.00    +0.003 A 
ATOM     31  C   UNL     1       5.629  -2.678   1.904  0.00  0.00    +0.000 A 
ATOM     32  C   UNL     1       5.484  -1.794   0.851  0.00  0.00    +0.000 A 
ATOM     33  C   UNL     1       4.465  -0.859   0.869  0.00  0.00    +0.000 A 
ATOM     34  C   UNL     1       3.592  -0.808   1.940  0.00  0.00    +0.003 A 
ENDBRANCH  28  29
ENDBRANCH  27  28
ENDBRANCH  25  27
BRANCH  25  35
ATOM     35  C   UNL     1       1.112  -2.943   6.230  0.00  0.00    -0.034 C 
BRANCH  35  36
ATOM     36  C   UNL     1       1.444  -4.402   6.055  0.00  0.00    -0.027 A 
ATOM     37  C   UNL     1       2.615  -4.971   5.676  0.00  0.00    +0.009 A 
ATOM     38  C   UNL     1       2.691  -6.348   5.583  0.00  0.00    +0.008 A 
ATOM     39  C   UNL     1       1.593  -7.089   5.872  0.00  0.00    +0.045 A 
ATOM     40  S   UNL     1       0.401  -5.830   6.299  0.00  0.00    -0.103 S 
ENDBRANCH  35  36
ENDBRANCH  25  35
ENDBRANCH   1  25
TORSDOF 9
