REMARK  Name = ZINC33785320
REMARK  11 active torsions:
REMARK  status: ('A' for Active; 'I' for Inactive)
REMARK    1  A    between atoms: C_1  and  C_2
REMARK    2  A    between atoms: C_3  and  C_29
REMARK    3  A    between atoms: C_4  and  N_9
REMARK    4  A    between atoms: C_6  and  C_8
REMARK    5  A    between atoms: N_13  and  S_16
REMARK    6  A    between atoms: S_16  and  C_19
REMARK    7  A    between atoms: C_22  and  C_25
REMARK    8  A    between atoms: C_25  and  C_26
REMARK    9  A    between atoms: C_25  and  C_27
REMARK   10  A    between atoms: C_25  and  C_28
REMARK   11  A    between atoms: C_29  and  C_30
REMARK                            x       y       z     vdW  Elec       q    Type
REMARK                         _______ _______ _______ _____ _____    ______ ____
ROOT
ATOM      1  N   UNL     1      -1.174   4.661   1.889  0.00  0.00    -0.314 N 
ATOM      2  C   UNL     1      -1.308   3.890   3.097  0.00  0.00    +0.108 C 
ATOM      3  C   UNL     1       0.117   3.536   3.511  0.00  0.00    +0.036 C 
ATOM      4  C   UNL     1       0.606   2.270   2.956  0.00  0.00    +0.111 C 
ATOM      5  N   UNL     1       0.520   2.385   1.460  0.00  0.00    -0.175 NA
ATOM      6  C   UNL     1      -0.775   2.438   0.841  0.00  0.00    +0.128 C 
ATOM      7  C   UNL     1      -1.399   3.836   0.671  0.00  0.00    +0.123 C 
ENDROOT
BRANCH   1  11
ATOM      8  C   UNL     1      -2.116   9.321   3.164  0.00  0.00    +0.064 C 
ATOM      9  C   UNL     1      -2.497   8.017   2.513  0.00  0.00    +0.021 A 
ATOM     10  C   UNL     1      -1.622   6.947   2.527  0.00  0.00    +0.016 A 
ATOM     11  C   UNL     1      -2.017   5.761   1.907  0.00  0.00    +0.128 A 
ATOM     12  N   UNL     1      -3.217   5.700   1.337  0.00  0.00    -0.219 NA
ATOM     13  C   UNL     1      -4.022   6.744   1.352  0.00  0.00    +0.106 A 
ATOM     14  N   UNL     1      -3.676   7.879   1.925  0.00  0.00    -0.347 N 
ATOM     15  C   UNL     1      -5.374   6.636   0.696  0.00  0.00    +0.086 C 
ATOM     16  H   UNL     1      -4.385   8.721   1.910  0.00  0.00    +0.167 HD
BRANCH  10  17
ATOM     17  C   UNL     1      -0.274   7.061   3.191  0.00  0.00    +0.075 C 
BRANCH  17  18
ATOM     18  C   UNL     1       0.749   7.502   2.176  0.00  0.00    -0.043 A 
ATOM     19  C   UNL     1       1.363   6.568   1.363  0.00  0.00    +0.005 A 
ATOM     20  C   UNL     1       2.298   6.973   0.428  0.00  0.00    +0.020 A 
ATOM     21  C   UNL     1       2.627   8.312   0.315  0.00  0.00    +0.041 A 
ATOM     22  C   UNL     1       2.016   9.246   1.134  0.00  0.00    +0.020 A 
ATOM     23  C   UNL     1       1.078   8.840   2.064  0.00  0.00    +0.005 A 
ATOM     24 CL   UNL     1       3.805   8.821  -0.854  0.00  0.00    -0.084 Cl
ENDBRANCH  17  18
ENDBRANCH  10  17
ENDBRANCH   1  11
BRANCH   5  25
ATOM     25  S   UNL     1       1.896   2.456   0.542  0.00  0.00    +0.061 S 
ATOM     26  O   UNL     1       2.926   2.944   1.391  0.00  0.00    -0.153 OA
ATOM     27  O   UNL     1       1.541   3.102  -0.673  0.00  0.00    -0.153 OA
BRANCH  25  28
ATOM     28  C   UNL     1       2.330   0.800   0.124  0.00  0.00    +0.105 A 
ATOM     29  C   UNL     1       3.170   0.076   0.949  0.00  0.00    +0.029 A 
ATOM     30  C   UNL     1       3.507  -1.224   0.623  0.00  0.00    +0.006 A 
ATOM     31  C   UNL     1       3.010  -1.798  -0.532  0.00  0.00    -0.042 A 
ATOM     32  C   UNL     1       2.174  -1.073  -1.360  0.00  0.00    +0.006 A 
ATOM     33  C   UNL     1       1.834   0.227  -1.032  0.00  0.00    +0.029 A 
BRANCH  31  34
ATOM     34  C   UNL     1       3.381  -3.214  -0.890  0.00  0.00    -0.013 C 
ATOM     35  C   UNL     1       4.097  -3.228  -2.243  0.00  0.00    +0.015 C 
ATOM     36  C   UNL     1       4.310  -3.784   0.184  0.00  0.00    +0.015 C 
ATOM     37  C   UNL     1       2.115  -4.067  -0.974  0.00  0.00    +0.015 C 
ENDBRANCH  31  34
ENDBRANCH  25  28
ENDBRANCH   5  25
TORSDOF 6
