REMARK  Name = ZINC12658033
REMARK  7 active torsions:
REMARK  status: ('A' for Active; 'I' for Inactive)
REMARK    1  A    between atoms: C_4  and  O_31
REMARK    2  A    between atoms: C_5  and  N_7
REMARK    3  A    between atoms: C_8  and  C_10
REMARK    4  A    between atoms: C_10  and  N_21
REMARK    5  A    between atoms: C_11  and  C_12
REMARK    6  A    between atoms: C_22  and  C_24
REMARK    7  A    between atoms: C_25  and  C_26
REMARK                            x       y       z     vdW  Elec       q    Type
REMARK                         _______ _______ _______ _____ _____    ______ ____
ROOT
ATOM      1  C   UNL     1       1.508   2.255  -0.009  0.00  0.00    +0.097 C 
ATOM      2  C   UNL     1       0.660   3.287  -0.236  0.00  0.00    +0.036 C 
ENDROOT
BRANCH   2   3
ATOM      3  C   UNL     1       1.193   4.621  -0.546  0.00  0.00    -0.019 A 
ATOM      4  C   UNL     1       2.442   5.011  -0.048  0.00  0.00    +0.012 A 
ATOM      5  C   UNL     1       2.942   6.260  -0.346  0.00  0.00    +0.050 A 
ATOM      6  C   UNL     1       2.205   7.140  -1.128  0.00  0.00    +0.166 A 
ATOM      7  C   UNL     1       0.957   6.761  -1.623  0.00  0.00    +0.167 A 
ATOM      8  C   UNL     1       0.452   5.508  -1.334  0.00  0.00    +0.057 A 
ATOM      9  O   UNL     1       0.446   7.794  -2.354  0.00  0.00    -0.453 OA
ATOM     10  C   UNL     1       1.566   8.651  -2.642  0.00  0.00    +0.466 C 
ATOM     11  O   UNL     1       2.472   8.410  -1.550  0.00  0.00    -0.453 OA
ENDBRANCH   2   3
BRANCH   1  13
ATOM     12  N   UNL     1      -0.320   0.840   0.770  0.00  0.00    -0.278 N 
ATOM     13  C   UNL     1       0.985   0.965   0.457  0.00  0.00    +0.263 C 
ATOM     14  O   UNL     1       1.728   0.006   0.554  0.00  0.00    -0.268 OA
ATOM     15  H   UNL     1      -0.929   1.579   0.615  0.00  0.00    +0.155 HD
BRANCH  12  20
ATOM     16  C   UNL     1      -0.418  -2.358   2.586  0.00  0.00    +0.002 A 
ATOM     17  C   UNL     1      -1.739  -2.725   2.405  0.00  0.00    +0.004 A 
ATOM     18  C   UNL     1      -2.593  -1.913   1.681  0.00  0.00    +0.047 A 
ATOM     19  C   UNL     1      -2.127  -0.728   1.137  0.00  0.00    +0.138 A 
ATOM     20  C   UNL     1      -0.797  -0.357   1.319  0.00  0.00    +0.076 A 
ATOM     21  C   UNL     1       0.056  -1.179   2.041  0.00  0.00    +0.027 A 
BRANCH  19  22
ATOM     22  O   UNL     1      -2.966   0.071   0.425  0.00  0.00    -0.505 OA
ATOM     23  H   UNL     1      -2.988  -0.126  -0.522  0.00  0.00    +0.292 HD
ENDBRANCH  19  22
ENDBRANCH  12  20
ENDBRANCH   1  13
BRANCH   1  24
ATOM     24  N   UNL     1       2.881   2.419  -0.218  0.00  0.00    -0.278 N 
ATOM     25  C   UNL     1       3.752   2.134   0.771  0.00  0.00    +0.241 C 
ATOM     26  O   UNL     1       3.350   1.661   1.819  0.00  0.00    -0.270 OA
ATOM     27  H   UNL     1       3.207   2.738  -1.074  0.00  0.00    +0.155 HD
BRANCH  25  28
ATOM     28  C   UNL     1       5.133   2.386   0.592  0.00  0.00    +0.071 C 
ATOM     29  C   UNL     1       6.009   2.099   1.586  0.00  0.00    +0.051 C 
BRANCH  29  30
ATOM     30  C   UNL     1       7.391   2.350   1.407  0.00  0.00    +0.128 A 
ATOM     31  C   UNL     1       8.387   2.114   2.332  0.00  0.00    +0.049 A 
ATOM     32  C   UNL     1       9.592   2.506   1.730  0.00  0.00    +0.042 A 
ATOM     33  C   UNL     1       9.291   2.965   0.494  0.00  0.00    +0.195 A 
ATOM     34  O   UNL     1       7.968   2.870   0.303  0.00  0.00    -0.464 OA
ENDBRANCH  29  30
ENDBRANCH  25  28
ENDBRANCH   1  24
TORSDOF 7
