REMARK  Name = ZINC65298363
REMARK  7 active torsions:
REMARK  status: ('A' for Active; 'I' for Inactive)
REMARK    1  A    between atoms: C_1  and  C_2
REMARK    2  A    between atoms: C_2  and  O_3
REMARK    3  A    between atoms: O_3  and  C_4
REMARK    4  A    between atoms: C_8  and  C_11
REMARK    5  A    between atoms: C_9  and  O_10
REMARK    6  A    between atoms: C_14  and  C_26
REMARK    7  A    between atoms: C_23  and  C_25
REMARK                            x       y       z     vdW  Elec       q    Type
REMARK                         _______ _______ _______ _____ _____    ______ ____
ROOT
ATOM      1  C   UNL     1       2.222  -4.248  -3.839  0.00  0.00    -0.028 C 
ATOM      2  C   UNL     1       3.727  -4.339  -3.567  0.00  0.00    +0.044 C 
ATOM      3  C   UNL     1       4.373  -5.185  -4.630  0.00  0.00    +0.040 C 
ATOM      4  N   UNL     1       3.705  -5.942  -5.416  0.00  0.00    -0.300 NA
ATOM      5  C   UNL     1       2.252  -6.072  -5.388  0.00  0.00    +0.032 C 
ATOM      6  N   UNL     1       1.717  -5.606  -4.102  0.00  0.00    +0.401 N 
ATOM      7  C   UNL     1       1.643  -5.233  -6.517  0.00  0.00    +0.029 C 
ATOM      8  C   UNL     1       2.213  -5.702  -7.859  0.00  0.00    +0.108 C 
ATOM      9  N   UNL     1       1.982  -7.146  -7.994  0.00  0.00    -0.302 N 
ATOM     10  C   UNL     1       2.441  -8.037  -6.919  0.00  0.00    +0.108 C 
ATOM     11  C   UNL     1       1.867  -7.541  -5.588  0.00  0.00    +0.029 C 
ATOM     12  C   UNL     1       1.361  -7.645  -9.081  0.00  0.00    +0.212 C 
ATOM     13  O   UNL     1       0.897  -6.893  -9.912  0.00  0.00    -0.276 OA
ATOM     14  C   UNL     1       1.244  -9.136  -9.265  0.00  0.00    +0.109 C 
ATOM     15  H   UNL     1       2.020  -6.227  -3.367  0.00  0.00    -0.081 HD
ATOM     16  H   UNL     1       0.709  -5.590  -4.140  0.00  0.00    -0.081 HD
ENDROOT
BRANCH   3  17
ATOM     17  C   UNL     1       5.841  -5.140  -4.771  0.00  0.00    -0.004 A 
ATOM     18  C   UNL     1       6.603  -4.330  -3.926  0.00  0.00    +0.011 A 
ATOM     19  C   UNL     1       7.975  -4.293  -4.063  0.00  0.00    +0.020 A 
ATOM     20  C   UNL     1       8.597  -5.057  -5.036  0.00  0.00    +0.041 A 
ATOM     21  C   UNL     1       7.847  -5.862  -5.878  0.00  0.00    +0.020 A 
ATOM     22  C   UNL     1       6.476  -5.912  -5.747  0.00  0.00    +0.011 A 
ATOM     23 CL   UNL     1      10.325  -5.006  -5.202  0.00  0.00    -0.084 Cl
ENDBRANCH   3  17
BRANCH   1  28
ATOM     24  C   UNL     1       0.782  -1.767  -1.369  0.00  0.00    +0.162 A 
ATOM     25  C   UNL     1       0.235  -2.615  -0.420  0.00  0.00    +0.049 A 
ATOM     26  C   UNL     1       0.332  -3.985  -0.580  0.00  0.00    +0.004 A 
ATOM     27  C   UNL     1       0.974  -4.511  -1.685  0.00  0.00    +0.006 A 
ATOM     28  C   UNL     1       1.522  -3.671  -2.635  0.00  0.00    -0.016 A 
ATOM     29  C   UNL     1       1.423  -2.297  -2.485  0.00  0.00    +0.160 A 
BRANCH  29  30
ATOM     30  O   UNL     1       1.956  -1.468  -3.422  0.00  0.00    -0.503 OA
ATOM     31  H   UNL     1       2.877  -1.225  -3.254  0.00  0.00    +0.292 HD
ENDBRANCH  29  30
BRANCH  24  32
ATOM     32  O   UNL     1       0.687  -0.419  -1.214  0.00  0.00    -0.489 OA
BRANCH  32  34
ATOM     33  C   UNL     1       0.008   1.584  -0.044  0.00  0.00    +0.048 C 
ATOM     34  C   UNL     1       0.015   0.054  -0.045  0.00  0.00    +0.226 C 
ENDBRANCH  32  34
ENDBRANCH  24  32
ENDBRANCH   1  28
TORSDOF 5
