REMARK  Name = ZINC09428451
REMARK  9 active torsions:
REMARK  status: ('A' for Active; 'I' for Inactive)
REMARK    1  A    between atoms: C_1  and  C_2
REMARK    2  A    between atoms: C_2  and  O_3
REMARK    3  A    between atoms: O_3  and  C_4
REMARK    4  A    between atoms: C_7  and  N_10
REMARK    5  A    between atoms: N_10  and  C_11
REMARK    6  A    between atoms: C_11  and  C_12
REMARK    7  A    between atoms: C_16  and  C_23
REMARK    8  A    between atoms: C_24  and  C_26
REMARK    9  A    between atoms: C_29  and  N_32
REMARK                            x       y       z     vdW  Elec       q    Type
REMARK                         _______ _______ _______ _____ _____    ______ ____
ROOT
ATOM      1  N   UNL     1      -0.253  -1.145   1.381  0.00  0.00    -0.263 N 
ATOM      2  C   UNL     1      -1.467  -0.856   1.888  0.00  0.00    +0.251 C 
ATOM      3  O   UNL     1      -1.598  -0.667   3.082  0.00  0.00    -0.270 OA
ENDROOT
BRANCH   1   7
ATOM      4  C   UNL     1       2.999  -1.684   3.934  0.00  0.00    +0.121 A 
ATOM      5  C   UNL     1       1.783  -1.248   4.442  0.00  0.00    +0.047 A 
ATOM      6  C   UNL     1       0.706  -1.070   3.596  0.00  0.00    +0.027 A 
ATOM      7  C   UNL     1       0.840  -1.326   2.238  0.00  0.00    +0.037 A 
ATOM      8  C   UNL     1       2.055  -1.767   1.732  0.00  0.00    +0.027 A 
ATOM      9  C   UNL     1       3.133  -1.940   2.577  0.00  0.00    +0.047 A 
BRANCH   4  10
ATOM     10  O   UNL     1       4.059  -1.859   4.767  0.00  0.00    -0.492 OA
BRANCH  10  12
ATOM     11  C   UNL     1       6.350  -2.448   5.261  0.00  0.00    +0.048 C 
ATOM     12  C   UNL     1       5.280  -2.310   4.177  0.00  0.00    +0.225 C 
ENDBRANCH  10  12
ENDBRANCH   4  10
ENDBRANCH   1   7
BRANCH   2  13
ATOM     13  C   UNL     1      -2.640  -0.769   0.993  0.00  0.00    +0.037 A 
ATOM     14  C   UNL     1      -2.473  -0.434  -0.352  0.00  0.00    +0.015 A 
ATOM     15  C   UNL     1      -3.571  -0.359  -1.183  0.00  0.00    +0.033 A 
ATOM     16  C   UNL     1      -4.838  -0.604  -0.684  0.00  0.00    +0.126 A 
ATOM     17  C   UNL     1      -5.012  -0.932   0.649  0.00  0.00    +0.033 A 
ATOM     18  C   UNL     1      -3.921  -1.016   1.490  0.00  0.00    +0.015 A 
BRANCH  16  19
ATOM     19  N   UNL     1      -6.013  -0.516  -1.580  0.00  0.00    +0.056 N 
ATOM     20  O   UNL     1      -7.130  -0.732  -1.143  0.00  0.00    -0.126 OA
ATOM     21  O   UNL     1      -5.864  -0.228  -2.753  0.00  0.00    -0.126 OA
ENDBRANCH  16  19
ENDBRANCH   2  13
BRANCH   1  22
ATOM     22  C   UNL     1      -0.075  -1.271  -0.068  0.00  0.00    +0.154 C 
BRANCH  22  23
ATOM     23  C   UNL     1       0.393   0.045  -0.633  0.00  0.00    +0.035 A 
ATOM     24  C   UNL     1       1.299   0.069  -1.651  0.00  0.00    +0.020 A 
ATOM     25  C   UNL     1       1.710   1.321  -2.150  0.00  0.00    -0.001 A 
ATOM     26  C   UNL     1       2.641   1.418  -3.196  0.00  0.00    +0.013 A 
ATOM     27  C   UNL     1       3.014   2.646  -3.653  0.00  0.00    -0.050 A 
ATOM     28  C   UNL     1       2.484   3.807  -3.095  0.00  0.00    +0.005 A 
ATOM     29  C   UNL     1       1.580   3.749  -2.079  0.00  0.00    +0.026 A 
ATOM     30  C   UNL     1       1.170   2.500  -1.581  0.00  0.00    +0.049 A 
ATOM     31  N   UNL     1       0.284   2.413  -0.583  0.00  0.00    -0.322 N 
ATOM     32  C   UNL     1      -0.108   1.247  -0.117  0.00  0.00    +0.254 A 
ATOM     33  O   UNL     1      -1.014   1.208   0.891  0.00  0.00    -0.268 OA
ATOM     34  C   UNL     1       4.013   2.749  -4.776  0.00  0.00    +0.044 C 
ATOM     35  H   UNL     1      -0.132   3.328  -0.136  0.00  0.00    +0.169 HD
ENDBRANCH  22  23
ENDBRANCH   1  22
TORSDOF 7
