REMARK  Name = ZINC39664266
REMARK  6 active torsions:
REMARK  status: ('A' for Active; 'I' for Inactive)
REMARK    1  A    between atoms: C_4  and  C_7
REMARK    2  A    between atoms: C_7  and  C_9
REMARK    3  A    between atoms: C_7  and  N_34
REMARK    4  A    between atoms: C_9  and  N_10
REMARK    5  A    between atoms: C_11  and  C_13
REMARK    6  A    between atoms: C_24  and  C_26
REMARK                            x       y       z     vdW  Elec       q    Type
REMARK                         _______ _______ _______ _____ _____    ______ ____
ROOT
ATOM      1  C   UNL     1       6.861  -3.590  -2.640  0.00  0.00    +0.100 C 
ATOM      2  C   UNL     1       6.609  -4.869  -1.810  0.00  0.00    +0.121 C 
ATOM      3  N   UNL     1       6.163  -5.876  -2.801  0.00  0.00    -0.296 N 
ATOM      4  C   UNL     1       7.016  -5.628  -3.989  0.00  0.00    +0.115 C 
ATOM      5  C   UNL     1       7.131  -4.092  -4.069  0.00  0.00    -0.004 C 
ATOM      6  C   UNL     1       6.086  -3.535  -5.031  0.00  0.00    -0.010 C 
ATOM      7  C   UNL     1       6.408  -4.003  -6.453  0.00  0.00    -0.082 C 
ATOM      8  N   UNL     1       7.748  -3.538  -6.831  0.00  0.00    +0.379 N 
ATOM      9  C   UNL     1       8.756  -4.152  -5.958  0.00  0.00    -0.082 C 
ATOM     10  C   UNL     1       8.533  -3.691  -4.515  0.00  0.00    -0.010 C 
ATOM     11  C   UNL     1       5.200  -6.808  -2.656  0.00  0.00    +0.252 C 
ATOM     12  O   UNL     1       5.011  -7.628  -3.534  0.00  0.00    -0.270 OA
ATOM     13  H   UNL     1       7.934  -3.795  -7.789  0.00  0.00    -0.086 HD
ATOM     14  H   UNL     1       7.792  -2.534  -6.740  0.00  0.00    -0.086 HD
ENDROOT
BRANCH  11  15
ATOM     15  C   UNL     1       4.377  -6.833  -1.432  0.00  0.00    +0.107 A 
ATOM     16  C   UNL     1       3.133  -6.195  -1.408  0.00  0.00    +0.138 A 
ATOM     17  C   UNL     1       2.368  -6.224  -0.257  0.00  0.00    +0.039 A 
ATOM     18  C   UNL     1       2.829  -6.881   0.869  0.00  0.00    +0.006 A 
ATOM     19  C   UNL     1       4.059  -7.515   0.854  0.00  0.00    +0.039 A 
ATOM     20  C   UNL     1       4.834  -7.501  -0.290  0.00  0.00    +0.138 A 
ATOM     21  F   UNL     1       6.032  -8.125  -0.305  0.00  0.00    -0.205 F 
ATOM     22  F   UNL     1       2.680  -5.551  -2.506  0.00  0.00    -0.205 F 
ENDBRANCH  11  15
BRANCH   1  24
ATOM     23  N   UNL     1       5.763  -1.388  -2.894  0.00  0.00    -0.313 N 
ATOM     24  C   UNL     1       5.644  -2.701  -2.618  0.00  0.00    +0.218 C 
ATOM     25  O   UNL     1       4.557  -3.169  -2.351  0.00  0.00    -0.275 OA
ATOM     26  H   UNL     1       6.618  -1.028  -3.178  0.00  0.00    +0.149 HD
BRANCH  23  27
ATOM     27  C   UNL     1       4.603  -0.504  -2.765  0.00  0.00    +0.127 C 
BRANCH  27  28
ATOM     28  C   UNL     1       5.040   0.947  -2.975  0.00  0.00    +0.104 C 
BRANCH  28  32
ATOM     29  C   UNL     1       1.626   3.506  -2.774  0.00  0.00    +0.000 A 
ATOM     30  C   UNL     1       2.199   3.213  -3.998  0.00  0.00    +0.000 A 
ATOM     31  C   UNL     1       3.304   2.385  -4.063  0.00  0.00    +0.005 A 
ATOM     32  C   UNL     1       3.836   1.851  -2.904  0.00  0.00    -0.029 A 
ATOM     33  C   UNL     1       3.264   2.145  -1.681  0.00  0.00    +0.005 A 
ATOM     34  C   UNL     1       2.158   2.972  -1.616  0.00  0.00    +0.000 A 
ENDBRANCH  28  32
BRANCH  28  35
ATOM     35  N   UNL     1       5.999   1.326  -1.929  0.00  0.00    -0.290 NA
ATOM     36  C   UNL     1       7.383   1.157  -2.396  0.00  0.00    +0.113 C 
ATOM     37  C   UNL     1       8.346   1.618  -1.299  0.00  0.00    +0.175 C 
ATOM     38  O   UNL     1       8.085   0.881  -0.101  0.00  0.00    -0.377 OA
ATOM     39  C   UNL     1       6.746   1.024   0.382  0.00  0.00    +0.175 C 
ATOM     40  C   UNL     1       5.767   0.556  -0.698  0.00  0.00    +0.113 C 
ENDBRANCH  28  35
ENDBRANCH  27  28
ENDBRANCH  23  27
ENDBRANCH   1  24
TORSDOF 6
