REMARK  Name = ZINC67104359
REMARK  7 active torsions:
REMARK  status: ('A' for Active; 'I' for Inactive)
REMARK    1  A    between atoms: C_1  and  C_2
REMARK    2  A    between atoms: C_2  and  C_3
REMARK    3  A    between atoms: C_2  and  C_4
REMARK    4  A    between atoms: C_4  and  C_5
REMARK    5  A    between atoms: C_5  and  C_6
REMARK    6  A    between atoms: N_8  and  N_9
REMARK    7  A    between atoms: C_15  and  C_18
REMARK                            x       y       z     vdW  Elec       q    Type
REMARK                         _______ _______ _______ _____ _____    ______ ____
ROOT
ATOM      1  N   UNL     1       4.859  -0.751  -3.775  0.00  0.00    -0.218 N 
ATOM      2  C   UNL     1       6.190  -0.579  -3.900  0.00  0.00    +0.319 C 
ATOM      3  O   UNL     1       6.763  -0.970  -4.898  0.00  0.00    -0.251 OA
ATOM      4  N   UNL     1       6.886   0.027  -2.917  0.00  0.00    -0.280 N 
ATOM      5  C   UNL     1       8.319   0.334  -3.071  0.00  0.00    +0.114 C 
ATOM      6  C   UNL     1       8.486   1.854  -2.997  0.00  0.00    +0.054 C 
ATOM      7  C   UNL     1       7.695   2.412  -1.852  0.00  0.00    -0.039 C 
ATOM      8  C   UNL     1       6.705   1.785  -1.260  0.00  0.00    -0.004 C 
ATOM      9  C   UNL     1       6.245   0.413  -1.652  0.00  0.00    +0.137 C 
ATOM     10  H   UNL     1       4.391  -0.375  -3.013  0.00  0.00    +0.174 HD
ENDROOT
BRANCH   7  11
ATOM     11  C   UNL     1       8.053   3.755  -1.356  0.00  0.00    +0.003 A 
ATOM     12  C   UNL     1       9.136   4.080  -0.604  0.00  0.00    +0.091 A 
ATOM     13  N   UNL     1       9.130   5.420  -0.342  0.00  0.00    -0.360 N 
ATOM     14  H   UNL     1       9.803   5.886   0.178  0.00  0.00    +0.165 HD
ATOM     15  C   UNL     1       8.030   6.013  -0.923  0.00  0.00    +0.050 A 
ATOM     16  C   UNL     1       7.310   5.006  -1.588  0.00  0.00    +0.007 A 
ATOM     17  C   UNL     1       6.141   5.322  -2.277  0.00  0.00    +0.013 A 
ATOM     18  C   UNL     1       5.696   6.625  -2.306  0.00  0.00    +0.039 A 
ATOM     19  C   UNL     1       6.408   7.623  -1.652  0.00  0.00    +0.125 A 
ATOM     20  C   UNL     1       7.563   7.323  -0.960  0.00  0.00    +0.064 A 
ATOM     21  F   UNL     1       5.962   8.898  -1.689  0.00  0.00    -0.205 F 
ENDBRANCH   7  11
BRANCH   1  24
ATOM     22  C   UNL     1       2.841  -1.732  -4.570  0.00  0.00    +0.229 C 
ATOM     23  O   UNL     1       2.274  -1.341  -3.573  0.00  0.00    -0.274 OA
ATOM     24  N   UNL     1       4.152  -1.474  -4.745  0.00  0.00    -0.233 N 
ATOM     25  H   UNL     1       4.607  -1.787  -5.543  0.00  0.00    +0.173 HD
BRANCH  22  26
ATOM     26  C   UNL     1       2.081  -2.509  -5.614  0.00  0.00    +0.097 C 
BRANCH  26  27
ATOM     27  C   UNL     1       0.624  -2.663  -5.174  0.00  0.00    +0.012 C 
BRANCH  27  29
ATOM     28  C   UNL     1       0.404  -4.877  -6.312  0.00  0.00    +0.007 C 
ATOM     29  C   UNL     1      -0.148  -3.452  -6.234  0.00  0.00    -0.017 C 
ATOM     30  C   UNL     1      -1.630  -3.498  -5.856  0.00  0.00    +0.007 C 
ENDBRANCH  27  29
ENDBRANCH  26  27
ENDBRANCH  22  26
ENDBRANCH   1  24
TORSDOF 5
