REMARK  Name = ZINC63695988
REMARK  7 active torsions:
REMARK  status: ('A' for Active; 'I' for Inactive)
REMARK    1  A    between atoms: C_5  and  N_7
REMARK    2  A    between atoms: N_10  and  C_13
REMARK    3  A    between atoms: C_13  and  C_14
REMARK    4  A    between atoms: C_14  and  C_15
REMARK    5  A    between atoms: C_15  and  N_16
REMARK    6  A    between atoms: C_17  and  C_19
REMARK    7  A    between atoms: N_24  and  C_26
REMARK                            x       y       z     vdW  Elec       q    Type
REMARK                         _______ _______ _______ _____ _____    ______ ____
ROOT
ATOM      1  N   UNL     1       3.850  -8.666  -2.392  0.00  0.00    -0.315 N 
ATOM      2  C   UNL     1       4.672  -9.713  -2.604  0.00  0.00    +0.217 C 
ATOM      3  O   UNL     1       5.602  -9.916  -1.853  0.00  0.00    -0.275 OA
ATOM      4  H   UNL     1       3.106  -8.504  -2.993  0.00  0.00    +0.149 HD
ENDROOT
BRANCH   2   5
ATOM      5  C   UNL     1       4.435 -10.632  -3.775  0.00  0.00    +0.089 C 
ATOM      6  C   UNL     1       3.050 -11.271  -3.651  0.00  0.00    +0.015 C 
ATOM      7  C   UNL     1       2.841 -12.247  -4.812  0.00  0.00    +0.016 C 
ATOM      8  C   UNL     1       3.952 -13.300  -4.793  0.00  0.00    +0.088 C 
ATOM      9  N   UNL     1       5.257 -12.638  -4.915  0.00  0.00    -0.265 NA
ATOM     10  C   UNL     1       5.500 -11.730  -3.786  0.00  0.00    +0.100 C 
BRANCH   9  11
ATOM     11  C   UNL     1       6.338 -13.625  -5.039  0.00  0.00    +0.252 C 
ATOM     12  N   UNL     1       6.113 -14.474  -6.215  0.00  0.00    -0.351 N 
ATOM     13  C   UNL     1       5.997 -15.701  -5.796  0.00  0.00    +0.061 A 
ATOM     14  C   UNL     1       5.764 -16.976  -6.489  0.00  0.00    +0.029 A 
ATOM     15  C   UNL     1       5.689 -18.116  -5.776  0.00  0.00    +0.022 A 
ATOM     16  C   UNL     1       5.823 -18.145  -4.375  0.00  0.00    +0.043 A 
ATOM     17  C   UNL     1       6.038 -17.032  -3.642  0.00  0.00    +0.047 A 
ATOM     18  C   UNL     1       6.140 -15.731  -4.314  0.00  0.00    +0.063 A 
ATOM     19  N   UNL     1       6.339 -14.520  -3.875  0.00  0.00    -0.351 N 
ATOM     20 CL   UNL     1       5.707 -19.672  -3.557  0.00  0.00    -0.083 Cl
ATOM     21  H   UNL     1       6.059 -14.175  -7.137  0.00  0.00    +0.163 HD
ATOM     22  H   UNL     1       6.466 -14.258  -2.949  0.00  0.00    +0.163 HD
ENDBRANCH   9  11
ENDBRANCH   2   5
BRANCH   1  23
ATOM     23  C   UNL     1       4.081  -7.774  -1.253  0.00  0.00    +0.102 C 
BRANCH  23  24
ATOM     24  C   UNL     1       3.014  -6.676  -1.241  0.00  0.00    +0.000 C 
BRANCH  24  25
ATOM     25  C   UNL     1       3.255  -5.744  -0.052  0.00  0.00    -0.077 C 
BRANCH  25  29
ATOM     26  N   UNL     1       1.236  -2.079  -0.021  0.00  0.00    -0.331 N 
ATOM     27  C   UNL     1       1.254  -2.842   1.236  0.00  0.00    +0.086 C 
ATOM     28  C   UNL     1       2.390  -3.869   1.165  0.00  0.00    -0.060 C 
ATOM     29  N   UNL     1       2.231  -4.691  -0.041  0.00  0.00    +0.382 N 
ATOM     30  C   UNL     1       2.378  -3.855  -1.239  0.00  0.00    -0.060 C 
ATOM     31  C   UNL     1       1.236  -2.828  -1.287  0.00  0.00    +0.086 C 
ATOM     32  H   UNL     1       1.315  -5.115  -0.039  0.00  0.00    -0.082 HD
BRANCH  26  37
ATOM     33  C   UNL     1      -0.017   1.377   0.010  0.00  0.00    +0.002 A 
ATOM     34  C   UNL     1       1.170   2.087   0.002  0.00  0.00    +0.003 A 
ATOM     35  C   UNL     1       2.380   1.418  -0.013  0.00  0.00    +0.040 A 
ATOM     36  C   UNL     1       2.406   0.035  -0.021  0.00  0.00    +0.144 A 
ATOM     37  C   UNL     1       1.214  -0.681  -0.013  0.00  0.00    +0.065 A 
ATOM     38  C   UNL     1       0.002  -0.004   0.002  0.00  0.00    +0.026 A 
ATOM     39  F   UNL     1       3.588  -0.619  -0.036  0.00  0.00    -0.204 F 
ENDBRANCH  26  37
ENDBRANCH  25  29
ENDBRANCH  24  25
ENDBRANCH  23  24
ENDBRANCH   1  23
TORSDOF 7
