REMARK  Name = ZINC05409220
REMARK  4 active torsions:
REMARK  status: ('A' for Active; 'I' for Inactive)
REMARK    1  A    between atoms: C_6  and  C_7
REMARK    2  A    between atoms: C_7  and  C_8
REMARK    3  A    between atoms: C_15  and  C_17
REMARK    4  A    between atoms: C_24  and  C_27
REMARK                            x       y       z     vdW  Elec       q    Type
REMARK                         _______ _______ _______ _____ _____    ______ ____
ROOT
ATOM      1  C   UNL     1      -1.297  -0.767   0.010  0.00  0.00    +0.070 C 
ENDROOT
BRANCH   1   7
ATOM      2  C   UNL     1      -0.017   1.383   0.010  0.00  0.00    +0.006 A 
ATOM      3  C   UNL     1       1.162   2.099   0.002  0.00  0.00    +0.028 A 
ATOM      4  C   UNL     1       2.376   1.425  -0.013  0.00  0.00    +0.066 A 
ATOM      5  C   UNL     1       2.395   0.019  -0.021  0.00  0.00    +0.090 A 
ATOM      6  C   UNL     1       1.186  -0.685  -0.013  0.00  0.00    +0.033 A 
ATOM      7  C   UNL     1       0.002  -0.004   0.002  0.00  0.00    -0.041 A 
ATOM      8  N   UNL     1       3.694  -0.363  -0.035  0.00  0.00    -0.228 NA
ATOM      9  C   UNL     1       4.465   0.696  -0.037  0.00  0.00    +0.139 A 
ATOM     10  N   UNL     1       3.696   1.829  -0.023  0.00  0.00    -0.338 N 
ATOM     11  H   UNL     1       4.018   2.743  -0.022  0.00  0.00    +0.167 HD
BRANCH   9  12
ATOM     12  C   UNL     1       5.944   0.673  -0.051  0.00  0.00    +0.020 A 
ATOM     13  C   UNL     1       6.682   1.861  -0.045  0.00  0.00    +0.031 A 
ATOM     14  C   UNL     1       8.061   1.793  -0.059  0.00  0.00    +0.111 A 
ATOM     15  N   UNL     1       8.681   0.629  -0.076  0.00  0.00    -0.263 NA
ATOM     16  C   UNL     1       8.024  -0.515  -0.082  0.00  0.00    +0.111 A 
ATOM     17  C   UNL     1       6.644  -0.539  -0.064  0.00  0.00    +0.031 A 
ENDBRANCH   9  12
ENDBRANCH   1   7
BRANCH   1  18
ATOM     18  C   UNL     1      -1.744  -1.014  -1.408  0.00  0.00    -0.041 A 
ATOM     19  C   UNL     1      -2.554  -0.086  -2.046  0.00  0.00    +0.006 A 
ATOM     20  C   UNL     1      -2.970  -0.290  -3.331  0.00  0.00    +0.030 A 
ATOM     21  C   UNL     1      -2.578  -1.446  -4.015  0.00  0.00    +0.089 A 
ATOM     22  C   UNL     1      -1.757  -2.387  -3.368  0.00  0.00    +0.067 A 
ATOM     23  C   UNL     1      -1.341  -2.158  -2.063  0.00  0.00    +0.031 A 
ATOM     24  N   UNL     1      -1.542  -3.402  -4.278  0.00  0.00    -0.338 N 
ATOM     25  C   UNL     1      -2.215  -3.068  -5.422  0.00  0.00    +0.139 A 
ATOM     26  N   UNL     1      -2.821  -1.918  -5.261  0.00  0.00    -0.228 NA
ATOM     27  H   UNL     1      -1.013  -4.202  -4.134  0.00  0.00    +0.167 HD
BRANCH  25  28
ATOM     28  C   UNL     1      -2.252  -3.884  -6.656  0.00  0.00    +0.020 A 
ATOM     29  C   UNL     1      -1.575  -5.106  -6.731  0.00  0.00    +0.031 A 
ATOM     30  C   UNL     1      -1.636  -5.834  -7.902  0.00  0.00    +0.111 A 
ATOM     31  N   UNL     1      -2.321  -5.393  -8.939  0.00  0.00    -0.263 NA
ATOM     32  C   UNL     1      -2.973  -4.247  -8.911  0.00  0.00    +0.111 A 
ATOM     33  C   UNL     1      -2.970  -3.458  -7.779  0.00  0.00    +0.031 A 
ENDBRANCH  25  28
ENDBRANCH   1  18
TORSDOF 4
