REMARK  Name = ZINC03847205
REMARK  9 active torsions:
REMARK  status: ('A' for Active; 'I' for Inactive)
REMARK    1  A    between atoms: C_1  and  O_2
REMARK    2  A    between atoms: O_2  and  C_3
REMARK    3  A    between atoms: C_8  and  O_9
REMARK    4  A    between atoms: O_9  and  C_10
REMARK    5  A    between atoms: C_19  and  O_25
REMARK    6  A    between atoms: C_20  and  O_23
REMARK    7  A    between atoms: C_21  and  O_22
REMARK    8  A    between atoms: O_23  and  C_24
REMARK    9  A    between atoms: O_25  and  C_26
REMARK                            x       y       z     vdW  Elec       q    Type
REMARK                         _______ _______ _______ _____ _____    ______ ____
ROOT
ATOM      1  C   UNL     1      -1.976   1.163   1.348  0.00  0.00    +0.162 A 
ATOM      2  C   UNL     1      -2.587   0.361   0.400  0.00  0.00    +0.051 A 
ATOM      3  C   UNL     1      -3.907  -0.035   0.563  0.00  0.00    -0.057 A 
ATOM      4  C   UNL     1      -4.614   0.390   1.667  0.00  0.00    -0.037 A 
ATOM      5  C   UNL     1      -4.008   1.186   2.624  0.00  0.00    +0.053 A 
ATOM      6  C   UNL     1      -2.686   1.571   2.473  0.00  0.00    +0.162 A 
ATOM      7  C   UNL     1      -6.069   0.015   1.845  0.00  0.00    +0.033 C 
ATOM      8  C   UNL     1      -6.310  -1.323   1.132  0.00  0.00    -0.065 C 
ATOM      9  C   UNL     1      -4.514  -0.943  -0.472  0.00  0.00    -0.042 C 
ATOM     10  C   UNL     1      -6.821  -0.255  -0.997  0.00  0.00    -0.038 C 
ATOM     11  C   UNL     1      -7.221   0.948  -0.186  0.00  0.00    -0.015 A 
ATOM     12  C   UNL     1      -6.886   1.079   1.144  0.00  0.00    -0.033 A 
ATOM     13  C   UNL     1      -7.289   2.190   1.864  0.00  0.00    +0.054 A 
ATOM     14  C   UNL     1      -8.027   3.190   1.249  0.00  0.00    +0.165 A 
ATOM     15  C   UNL     1      -8.358   3.072  -0.096  0.00  0.00    +0.204 A 
ATOM     16  C   UNL     1      -7.956   1.952  -0.810  0.00  0.00    +0.164 A 
ATOM     17  N   UNL     1      -5.963  -1.242  -0.300  0.00  0.00    +0.386 N 
ATOM     18  H   UNL     1      -6.143  -2.161  -0.721  0.00  0.00    -0.081 HD
ENDROOT
BRANCH   1  20
ATOM     19  C   UNL     1      -0.013   1.086   0.008  0.00  0.00    +0.277 C 
ATOM     20  O   UNL     1      -0.682   1.547   1.184  0.00  0.00    -0.491 OA
ENDBRANCH   1  20
BRANCH   6  21
ATOM     21  O   UNL     1      -2.087   2.346   3.416  0.00  0.00    -0.491 OA
ATOM     22  C   UNL     1      -2.880   2.725   4.543  0.00  0.00    +0.277 C 
ENDBRANCH   6  21
BRANCH  16  23
ATOM     23  O   UNL     1      -8.281   1.836  -2.126  0.00  0.00    -0.503 OA
ATOM     24  H   UNL     1      -9.124   1.391  -2.285  0.00  0.00    +0.292 HD
ENDBRANCH  16  23
BRANCH  15  25
ATOM     25  O   UNL     1      -9.075   4.052  -0.710  0.00  0.00    -0.488 OA
ATOM     26  C   UNL     1     -10.499   3.927  -0.684  0.00  0.00    +0.277 C 
ENDBRANCH  15  25
BRANCH  14  27
ATOM     27  O   UNL     1      -8.423   4.281   1.957  0.00  0.00    -0.491 OA
ATOM     28  C   UNL     1      -8.045   4.333   3.334  0.00  0.00    +0.277 C 
ENDBRANCH  14  27
TORSDOF 5
