REMARK  Name = ZINC15442845
REMARK  3 active torsions:
REMARK  status: ('A' for Active; 'I' for Inactive)
REMARK    1  A    between atoms: C_4  and  C_7
REMARK    2  A    between atoms: C_9  and  N_19
REMARK    3  A    between atoms: N_10  and  C_12
REMARK                            x       y       z     vdW  Elec       q    Type
REMARK                         _______ _______ _______ _____ _____    ______ ____
ROOT
ATOM      1  C   UNL     1       4.515   4.307  -0.079  0.00  0.00    +0.095 A 
ATOM      2  C   UNL     1       3.805   5.507  -0.272  0.00  0.00    +0.073 A 
ATOM      3  C   UNL     1       2.483   5.241  -0.096  0.00  0.00    +0.120 A 
ATOM      4  N   UNL     1       2.365   3.919   0.208  0.00  0.00    -0.216 N 
ATOM      5  N   UNL     1       3.649   3.358   0.208  0.00  0.00    -0.165 NA
ENDROOT
BRANCH   4   6
ATOM      6  C   UNL     1       1.169   3.237   0.469  0.00  0.00    +0.102 A 
ATOM      7  C   UNL     1       0.240   3.775   1.350  0.00  0.00    +0.031 A 
ATOM      8  C   UNL     1      -0.939   3.100   1.606  0.00  0.00    +0.002 A 
ATOM      9  C   UNL     1      -1.192   1.888   0.990  0.00  0.00    +0.003 A 
ATOM     10  C   UNL     1      -0.273   1.352   0.108  0.00  0.00    +0.040 A 
ATOM     11  C   UNL     1       0.909   2.021  -0.153  0.00  0.00    +0.149 A 
ATOM     12  F   UNL     1       1.810   1.495  -1.011  0.00  0.00    -0.203 F 
ENDBRANCH   4   6
BRANCH   1  16
ATOM     13  C   UNL     1       8.730   3.829  -0.374  0.00  0.00    +0.000 A 
ATOM     14  C   UNL     1       7.934   2.742  -0.064  0.00  0.00    +0.001 A 
ATOM     15  C   UNL     1       6.565   2.891   0.034  0.00  0.00    +0.010 A 
ATOM     16  C   UNL     1       5.986   4.140  -0.182  0.00  0.00    +0.002 A 
ATOM     17  C   UNL     1       6.793   5.231  -0.500  0.00  0.00    +0.010 A 
ATOM     18  C   UNL     1       8.161   5.071  -0.589  0.00  0.00    +0.001 A 
ENDBRANCH   1  16
BRANCH   3  19
ATOM     19  N   UNL     1       1.440   6.156  -0.202  0.00  0.00    -0.343 N 
ATOM     20  H   UNL     1       0.520   5.852  -0.141  0.00  0.00    +0.144 HD
ATOM     21  H   UNL     1       1.632   7.097  -0.338  0.00  0.00    +0.144 HD
ENDBRANCH   3  19
TORSDOF 3
