REMARK  Name = ZINC34710569
REMARK  8 active torsions:
REMARK  status: ('A' for Active; 'I' for Inactive)
REMARK    1  A    between atoms: C_1  and  C_2
REMARK    2  A    between atoms: C_2  and  N_3
REMARK    3  A    between atoms: C_4  and  C_6
REMARK    4  A    between atoms: C_9  and  C_20
REMARK    5  A    between atoms: N_16  and  C_17
REMARK    6  A    between atoms: C_17  and  C_18
REMARK    7  A    between atoms: C_17  and  C_19
REMARK    8  A    between atoms: C_24  and  C_26
REMARK                            x       y       z     vdW  Elec       q    Type
REMARK                         _______ _______ _______ _____ _____    ______ ____
ROOT
ATOM      1  C   UNL     1       1.581  -2.312   2.617  0.00  0.00    +0.093 C 
ATOM      2  C   UNL     1       1.602  -3.842   2.609  0.00  0.00    +0.024 C 
ATOM      3  C   UNL     1       2.314  -4.351   3.864  0.00  0.00    +0.037 C 
ATOM      4  C   UNL     1       3.761  -3.847   3.866  0.00  0.00    +0.117 C 
ATOM      5  N   UNL     1       3.752  -2.384   3.728  0.00  0.00    -0.284 N 
ATOM      6  C   UNL     1       3.019  -1.784   2.605  0.00  0.00    +0.122 C 
ATOM      7  C   UNL     1       4.404  -1.607   4.615  0.00  0.00    +0.302 C 
ATOM      8  O   UNL     1       4.467  -0.405   4.439  0.00  0.00    -0.253 OA
ATOM      9  N   UNL     1       4.987  -2.161   5.696  0.00  0.00    -0.297 N 
ATOM     10  H   UNL     1       5.001  -3.126   5.798  0.00  0.00    +0.150 HD
ENDROOT
BRANCH   3  11
ATOM     11  C   UNL     1       2.306  -5.858   3.872  0.00  0.00    -0.043 A 
ATOM     12  C   UNL     1       2.911  -6.557   2.844  0.00  0.00    +0.004 A 
ATOM     13  C   UNL     1       2.904  -7.939   2.851  0.00  0.00    +0.001 A 
ATOM     14  C   UNL     1       2.291  -8.622   3.885  0.00  0.00    +0.003 A 
ATOM     15  C   UNL     1       1.687  -7.923   4.913  0.00  0.00    -0.050 A 
ATOM     16  C   UNL     1       1.698  -6.540   4.909  0.00  0.00    +0.007 A 
ATOM     17  C   UNL     1       1.019  -8.667   6.040  0.00  0.00    +0.044 C 
ENDBRANCH   3  11
BRANCH   1  19
ATOM     18  N   UNL     1       0.708  -0.488   1.192  0.00  0.00    -0.315 N 
ATOM     19  C   UNL     1       0.851  -1.812   1.397  0.00  0.00    +0.218 C 
ATOM     20  O   UNL     1       0.392  -2.603   0.599  0.00  0.00    -0.275 OA
ATOM     21  H   UNL     1       1.075   0.144   1.830  0.00  0.00    +0.149 HD
BRANCH  18  23
ATOM     22  C   UNL     1      -0.021   1.527   0.013  0.00  0.00    +0.024 C 
ATOM     23  C   UNL     1      -0.001  -0.003   0.005  0.00  0.00    +0.101 C 
ENDBRANCH  18  23
ENDBRANCH   1  19
BRANCH   9  24
ATOM     24  C   UNL     1       5.600  -1.307   6.717  0.00  0.00    +0.068 C 
ATOM     25  C   UNL     1       5.619  -2.047   8.056  0.00  0.00    +0.027 C 
ATOM     26  C   UNL     1       7.032  -0.965   6.302  0.00  0.00    +0.027 C 
ENDBRANCH   9  24
TORSDOF 4
