REMARK  Name = ZINC04993056
REMARK  6 active torsions:
REMARK  status: ('A' for Active; 'I' for Inactive)
REMARK    1  A    between atoms: C_1  and  C_2
REMARK    2  A    between atoms: C_5  and  C_8
REMARK    3  A    between atoms: C_10  and  N_14
REMARK    4  A    between atoms: C_15  and  C_17
REMARK    5  A    between atoms: C_17  and  O_18
REMARK    6  A    between atoms: O_18  and  C_19
REMARK                            x       y       z     vdW  Elec       q    Type
REMARK                         _______ _______ _______ _____ _____    ______ ____
ROOT
ATOM      1  N   UNL     1       0.101  -7.514   1.492  0.00  0.00    -0.268 N 
ATOM      2  C   UNL     1       0.101  -7.387   2.834  0.00  0.00    +0.256 C 
ATOM      3  O   UNL     1       0.087  -6.284   3.338  0.00  0.00    -0.272 OA
ATOM      4  H   UNL     1       0.113  -8.396   1.088  0.00  0.00    +0.156 HD
ENDROOT
BRANCH   1   7
ATOM      5  C   UNL     1       0.058  -4.256  -0.021  0.00  0.00    +0.094 A 
ATOM      6  C   UNL     1       0.069  -5.088   1.114  0.00  0.00    +0.073 A 
ATOM      7  C   UNL     1       0.086  -6.377   0.684  0.00  0.00    +0.121 A 
ATOM      8  N   UNL     1       0.085  -6.360  -0.675  0.00  0.00    -0.263 N 
ATOM      9  H   UNL     1       0.095  -7.137  -1.255  0.00  0.00    +0.190 HD
ATOM     10  N   UNL     1       0.062  -5.022  -1.091  0.00  0.00    -0.172 NA
BRANCH   5  15
ATOM     11  C   UNL     1      -0.018   1.503   0.010  0.00  0.00    +0.044 C 
ATOM     12  C   UNL     1       0.002  -0.004   0.002  0.00  0.00    -0.050 A 
ATOM     13  C   UNL     1       0.006  -0.686  -1.201  0.00  0.00    +0.004 A 
ATOM     14  C   UNL     1       0.024  -2.067  -1.214  0.00  0.00    +0.010 A 
ATOM     15  C   UNL     1       0.039  -2.772  -0.013  0.00  0.00    +0.002 A 
ATOM     16  C   UNL     1       0.036  -2.080   1.196  0.00  0.00    +0.010 A 
ATOM     17  C   UNL     1       0.023  -0.700   1.198  0.00  0.00    +0.004 A 
ENDBRANCH   5  15
ENDBRANCH   1   7
BRANCH   2  18
ATOM     18  C   UNL     1       0.117  -8.615   3.707  0.00  0.00    +0.325 C 
BRANCH  18  19
ATOM     19  O   UNL     1       0.113  -8.223   5.081  0.00  0.00    -0.481 OA
BRANCH  19  20
ATOM     20  C   UNL     1       0.127  -9.218   6.007  0.00  0.00    +0.140 A 
ATOM     21  C   UNL     1       0.150 -10.544   5.601  0.00  0.00    +0.048 A 
ATOM     22  C   UNL     1       0.164 -11.554   6.543  0.00  0.00    +0.023 A 
ATOM     23  C   UNL     1       0.155 -11.244   7.892  0.00  0.00    +0.043 A 
ATOM     24  C   UNL     1       0.132  -9.922   8.300  0.00  0.00    +0.043 A 
ATOM     25  C   UNL     1       0.124  -8.908   7.360  0.00  0.00    +0.084 A 
ATOM     26 CL   UNL     1       0.103  -7.249   7.872  0.00  0.00    -0.080 Cl
ATOM     27 CL   UNL     1       0.172 -12.515   9.074  0.00  0.00    -0.083 Cl
ENDBRANCH  19  20
ENDBRANCH  18  19
ENDBRANCH   2  18
TORSDOF 5
