REMARK  Name = ZINC43641644
REMARK  5 active torsions:
REMARK  status: ('A' for Active; 'I' for Inactive)
REMARK    1  A    between atoms: C_1  and  C_2
REMARK    2  A    between atoms: C_5  and  C_11
REMARK    3  A    between atoms: C_11  and  C_12
REMARK    4  A    between atoms: N_24  and  C_26
REMARK    5  A    between atoms: C_26  and  C_27
REMARK                            x       y       z     vdW  Elec       q    Type
REMARK                         _______ _______ _______ _____ _____    ______ ____
ROOT
ATOM      1  C   UNL     1      -4.187  -0.236   2.663  0.00  0.00    +0.218 C 
ATOM      2  O   UNL     1      -3.620   0.539   3.403  0.00  0.00    -0.276 OA
ATOM      3  N   UNL     1      -5.439  -0.647   2.948  0.00  0.00    -0.298 N 
ATOM      4  C   UNL     1      -6.137  -1.590   2.064  0.00  0.00    +0.108 C 
ATOM      5  C   UNL     1      -7.490  -0.988   1.671  0.00  0.00    +0.019 C 
ATOM      6  C   UNL     1      -8.268  -0.620   2.937  0.00  0.00    +0.005 C 
ATOM      7  C   UNL     1      -7.485   0.425   3.733  0.00  0.00    -0.007 C 
ATOM      8  C   UNL     1      -6.129  -0.165   4.152  0.00  0.00    +0.076 C 
ATOM      9  C   UNL     1      -6.360  -1.344   5.101  0.00  0.00    +0.004 C 
ATOM     10  C   UNL     1      -7.186  -0.877   6.301  0.00  0.00    -0.077 C 
ATOM     11  N   UNL     1      -8.481  -0.365   5.837  0.00  0.00    +0.383 N 
ATOM     12  C   UNL     1      -8.274   0.819   4.981  0.00  0.00    -0.073 C 
ATOM     13  H   UNL     1      -8.953  -1.080   5.304  0.00  0.00    -0.081 HD
ENDROOT
BRANCH   1  14
ATOM     14  C   UNL     1      -3.493  -0.740   1.424  0.00  0.00    +0.118 C 
BRANCH  14  18
ATOM     15  C   UNL     1      -0.019   1.526   0.010  0.00  0.00    +0.028 C 
ATOM     16  C   UNL     1       0.002  -0.004   0.002  0.00  0.00    +0.071 C 
ATOM     17  C   UNL     1      -1.435  -0.536   0.016  0.00  0.00    +0.044 C 
ATOM     18  C   UNL     1      -2.095  -0.124   1.337  0.00  0.00    +0.082 C 
ATOM     19  N   UNL     1      -1.277  -0.604   2.452  0.00  0.00    -0.323 N 
ATOM     20  C   UNL     1       0.050  -0.754   2.330  0.00  0.00    +0.131 C 
ATOM     21  S   UNL     1       0.943  -1.306   3.683  0.00  0.00    -0.019 S 
ATOM     22  N   UNL     1       0.707  -0.490   1.189  0.00  0.00    -0.324 N 
ATOM     23  H   UNL     1      -1.704  -0.817   3.297  0.00  0.00    +0.148 HD
ATOM     24  H   UNL     1       1.667  -0.624   1.150  0.00  0.00    +0.148 HD
ENDBRANCH  14  18
ENDBRANCH   1  14
BRANCH  11  25
ATOM     25  C   UNL     1      -9.304   0.005   6.996  0.00  0.00    -0.036 C 
BRANCH  25  26
ATOM     26  C   UNL     1      -9.627  -1.230   7.797  0.00  0.00    -0.026 A 
ATOM     27  C   UNL     1      -8.936  -1.763   8.814  0.00  0.00    +0.017 A 
ATOM     28  C   UNL     1      -9.431  -2.973   9.455  0.00  0.00    -0.011 A 
ATOM     29  C   UNL     1      -8.869  -3.698  10.533  0.00  0.00    +0.009 A 
ATOM     30  C   UNL     1      -9.475  -4.819  11.007  0.00  0.00    +0.001 A 
ATOM     31  C   UNL     1     -10.659  -5.293  10.457  0.00  0.00    +0.001 A 
ATOM     32  C   UNL     1     -11.239  -4.613   9.404  0.00  0.00    +0.015 A 
ATOM     33  C   UNL     1     -10.635  -3.475   8.915  0.00  0.00    +0.020 A 
ATOM     34  S   UNL     1     -11.023  -2.325   7.621  0.00  0.00    -0.095 S 
ENDBRANCH  25  26
ENDBRANCH  11  25
TORSDOF 4
