REMARK  Name = ZINC39912333
REMARK  9 active torsions:
REMARK  status: ('A' for Active; 'I' for Inactive)
REMARK    1  A    between atoms: C_1  and  C_2
REMARK    2  A    between atoms: C_4  and  C_35
REMARK    3  A    between atoms: C_5  and  O_34
REMARK    4  A    between atoms: C_6  and  C_8
REMARK    5  A    between atoms: N_16  and  C_27
REMARK    6  A    between atoms: C_17  and  C_19
REMARK    7  A    between atoms: C_22  and  S_25
REMARK    8  A    between atoms: S_25  and  C_26
REMARK    9  A    between atoms: C_27  and  C_28
REMARK                            x       y       z     vdW  Elec       q    Type
REMARK                         _______ _______ _______ _____ _____    ______ ____
ROOT
ATOM      1  C   UNL     1      -0.235  -3.140   2.816  0.00  0.00    +0.102 A 
ATOM      2  C   UNL     1       0.018  -2.401   3.977  0.00  0.00    +0.035 A 
ATOM      3  C   UNL     1       0.077  -3.322   5.005  0.00  0.00    +0.126 A 
ATOM      4  N   UNL     1      -0.138  -4.544   4.433  0.00  0.00    -0.272 N 
ATOM      5  H   UNL     1      -0.154  -5.388   4.911  0.00  0.00    +0.189 HD
ATOM      6  N   UNL     1      -0.321  -4.408   3.167  0.00  0.00    -0.173 NA
ATOM      7  C   UNL     1       0.342  -2.606   6.258  0.00  0.00    +0.266 C 
ATOM      8  O   UNL     1       0.452  -3.133   7.348  0.00  0.00    -0.268 OA
ATOM      9  N   UNL     1       0.446  -1.285   6.029  0.00  0.00    -0.281 N 
ATOM     10  C   UNL     1       0.253  -1.049   4.593  0.00  0.00    +0.142 C 
ENDROOT
BRANCH   1  16
ATOM     11  C   UNL     1       1.354  -0.134  -0.839  0.00  0.00    +0.044 C 
ATOM     12  C   UNL     1       0.373  -1.153  -0.317  0.00  0.00    -0.049 A 
ATOM     13  C   UNL     1      -0.670  -1.580  -1.119  0.00  0.00    +0.010 A 
ATOM     14  C   UNL     1      -1.574  -2.513  -0.649  0.00  0.00    -0.008 A 
ATOM     15  C   UNL     1      -1.440  -3.026   0.631  0.00  0.00    +0.129 A 
ATOM     16  C   UNL     1      -0.387  -2.597   1.444  0.00  0.00    +0.044 A 
ATOM     17  C   UNL     1       0.522  -1.660   0.958  0.00  0.00    +0.017 A 
ATOM     18  C   UNL     1      -2.708  -2.973  -1.529  0.00  0.00    +0.047 C 
BRANCH  15  19
ATOM     19  O   UNL     1      -2.329  -3.943   1.095  0.00  0.00    -0.506 OA
ATOM     20  H   UNL     1      -2.078  -4.860   0.915  0.00  0.00    +0.292 HD
ENDBRANCH  15  19
ENDBRANCH   1  16
BRANCH  10  21
ATOM     21  C   UNL     1      -0.944  -0.162   4.369  0.00  0.00    -0.022 A 
ATOM     22  C   UNL     1      -2.104  -0.373   5.092  0.00  0.00    +0.007 A 
ATOM     23  C   UNL     1      -3.204   0.438   4.889  0.00  0.00    +0.015 A 
ATOM     24  C   UNL     1      -3.143   1.467   3.957  0.00  0.00    +0.008 A 
ATOM     25  C   UNL     1      -1.976   1.677   3.233  0.00  0.00    +0.015 A 
ATOM     26  C   UNL     1      -0.879   0.865   3.445  0.00  0.00    +0.007 A 
BRANCH  24  27
ATOM     27  S   UNL     1      -4.543   2.504   3.694  0.00  0.00    -0.129 S 
ATOM     28  C   UNL     1      -3.994   3.669   2.417  0.00  0.00    +0.090 C 
ENDBRANCH  24  27
ENDBRANCH  10  21
BRANCH   9  29
ATOM     29  C   UNL     1       0.708  -0.257   7.040  0.00  0.00    +0.144 C 
BRANCH  29  30
ATOM     30  C   UNL     1       2.195  -0.051   7.174  0.00  0.00    -0.030 A 
ATOM     31  C   UNL     1       2.918  -0.805   8.080  0.00  0.00    +0.005 A 
ATOM     32  C   UNL     1       4.282  -0.616   8.203  0.00  0.00    +0.000 A 
ATOM     33  C   UNL     1       4.922   0.326   7.420  0.00  0.00    +0.000 A 
ATOM     34  C   UNL     1       4.199   1.079   6.514  0.00  0.00    +0.000 A 
ATOM     35  C   UNL     1       2.836   0.888   6.388  0.00  0.00    +0.005 A 
ENDBRANCH  29  30
ENDBRANCH   9  29
TORSDOF 6
