REMARK  Name = ZINC23544746
REMARK  8 active torsions:
REMARK  status: ('A' for Active; 'I' for Inactive)
REMARK    1  A    between atoms: C_1  and  C_2
REMARK    2  A    between atoms: C_2  and  C_4
REMARK    3  A    between atoms: C_2  and  S_20
REMARK    4  A    between atoms: C_10  and  C_15
REMARK    5  A    between atoms: S_20  and  C_21
REMARK    6  A    between atoms: N_25  and  C_26
REMARK    7  A    between atoms: C_31  and  O_32
REMARK    8  A    between atoms: O_32  and  C_33
REMARK                            x       y       z     vdW  Elec       q    Type
REMARK                         _______ _______ _______ _____ _____    ______ ____
ROOT
ATOM      1  C   UNL     1      -0.272   1.925  -0.012  0.00  0.00    +0.027 C 
ATOM      2  C   UNL     1      -0.168   0.407  -0.171  0.00  0.00    +0.117 C 
ENDROOT
BRANCH   2   3
ATOM      3  C   UNL     1       0.479   0.085  -1.494  0.00  0.00    +0.124 A 
ATOM      4  N   UNL     1      -0.303  -0.172  -2.574  0.00  0.00    -0.309 N 
ATOM      5  H   UNL     1      -1.268  -0.145  -2.479  0.00  0.00    +0.170 HD
ATOM      6  C   UNL     1       0.234  -0.464  -3.772  0.00  0.00    +0.260 A 
ATOM      7  O   UNL     1      -0.481  -0.692  -4.733  0.00  0.00    -0.267 OA
ATOM      8  C   UNL     1       1.659  -0.502  -3.903  0.00  0.00    +0.080 A 
ATOM      9  C   UNL     1       2.470  -0.790  -5.081  0.00  0.00    +0.010 A 
ATOM     10  C   UNL     1       3.821  -0.767  -4.963  0.00  0.00    +0.057 A 
ATOM     11  S   UNL     1       4.078  -0.354  -3.248  0.00  0.00    -0.076 S 
ATOM     12  C   UNL     1       2.385  -0.223  -2.734  0.00  0.00    +0.116 A 
ATOM     13  N   UNL     1       1.782   0.062  -1.583  0.00  0.00    -0.225 NA
BRANCH   9  14
ATOM     14  C   UNL     1       1.833  -1.100  -6.378  0.00  0.00    +0.021 A 
ATOM     15  C   UNL     1       2.084  -0.565  -7.613  0.00  0.00    +0.016 A 
ATOM     16  C   UNL     1       1.353  -1.018  -8.692  0.00  0.00    +0.008 A 
ATOM     17  C   UNL     1       0.411  -1.975  -8.498  0.00  0.00    +0.046 A 
ATOM     18  S   UNL     1       0.540  -2.276  -6.743  0.00  0.00    -0.097 S 
ENDBRANCH   9  14
ENDBRANCH   2   3
BRANCH   2  19
ATOM     19  S   UNL     1      -1.827  -0.322  -0.116  0.00  0.00    -0.073 S 
BRANCH  19  20
ATOM     20  C   UNL     1      -2.385   0.011   1.523  0.00  0.00    +0.215 A 
ATOM     21  N   UNL     1      -1.720   0.652   2.460  0.00  0.00    -0.101 NA
ATOM     22  N   UNL     1      -2.415   0.720   3.537  0.00  0.00    -0.022 NA
ATOM     23  N   UNL     1      -3.554   0.140   3.375  0.00  0.00    -0.038 NA
ATOM     24  N   UNL     1      -3.582  -0.341   2.054  0.00  0.00    -0.184 N 
BRANCH  24  25
ATOM     25  C   UNL     1      -4.624  -1.037   1.422  0.00  0.00    +0.111 A 
ATOM     26  C   UNL     1      -4.354  -2.194   0.707  0.00  0.00    +0.031 A 
ATOM     27  C   UNL     1      -5.381  -2.878   0.086  0.00  0.00    +0.002 A 
ATOM     28  C   UNL     1      -6.680  -2.412   0.175  0.00  0.00    +0.004 A 
ATOM     29  C   UNL     1      -6.957  -1.259   0.885  0.00  0.00    +0.048 A 
ATOM     30  C   UNL     1      -5.933  -0.570   1.516  0.00  0.00    +0.146 A 
BRANCH  30  31
ATOM     31  O   UNL     1      -6.205   0.561   2.220  0.00  0.00    -0.493 OA
ATOM     32  C   UNL     1      -7.570   0.980   2.273  0.00  0.00    +0.277 C 
ENDBRANCH  30  31
ENDBRANCH  24  25
ENDBRANCH  19  20
ENDBRANCH   2  19
TORSDOF 6
