REMARK  Name = ZINC26298012
REMARK  12 active torsions:
REMARK  status: ('A' for Active; 'I' for Inactive)
REMARK    1  A    between atoms: C_1  and  C_2
REMARK    2  A    between atoms: C_2  and  C_4
REMARK    3  A    between atoms: C_2  and  N_14
REMARK    4  A    between atoms: C_7  and  S_10
REMARK    5  A    between atoms: S_10  and  N_13
REMARK    6  A    between atoms: N_14  and  C_15
REMARK    7  A    between atoms: N_14  and  C_16
REMARK    8  A    between atoms: C_16  and  C_17
REMARK    9  A    between atoms: C_17  and  C_19
REMARK   10  A    between atoms: C_21  and  C_30
REMARK   11  A    between atoms: C_21  and  C_31
REMARK   12  A    between atoms: N_28  and  C_29
REMARK                            x       y       z     vdW  Elec       q    Type
REMARK                         _______ _______ _______ _____ _____    ______ ____
ROOT
ATOM      1  N   UNL     1      -0.165   4.461   2.800  0.00  0.00    +0.387 N 
ATOM      2  C   UNL     1      -1.101   5.548   2.480  0.00  0.00    -0.095 C 
ATOM      3  H   UNL     1      -0.108   4.375   3.895  0.00  0.00    -0.081 HD
ENDROOT
BRANCH   1   5
ATOM      4  C   UNL     1      -2.079   2.934   2.751  0.00  0.00    -0.008 C 
ATOM      5  C   UNL     1      -0.647   3.178   2.270  0.00  0.00    -0.041 C 
BRANCH   5   6
ATOM      6  C   UNL     1       0.243   2.066   2.761  0.00  0.00    -0.061 A 
ATOM      7  C   UNL     1       0.687   1.097   1.881  0.00  0.00    +0.004 A 
ATOM      8  C   UNL     1       1.503   0.076   2.330  0.00  0.00    +0.029 A 
ATOM      9  C   UNL     1       1.872   0.021   3.661  0.00  0.00    +0.105 A 
ATOM     10  C   UNL     1       1.433   0.994   4.540  0.00  0.00    +0.029 A 
ATOM     11  C   UNL     1       0.616   2.014   4.091  0.00  0.00    +0.004 A 
BRANCH   9  12
ATOM     12  S   UNL     1       2.907  -1.284   4.236  0.00  0.00    +0.056 S 
ATOM     13  O   UNL     1       2.661  -1.413   5.630  0.00  0.00    -0.153 OA
ATOM     14  O   UNL     1       2.739  -2.365   3.330  0.00  0.00    -0.153 OA
BRANCH  12  15
ATOM     15  N   UNL     1       4.474  -0.772   4.077  0.00  0.00    -0.204 NA
ATOM     16  H   UNL     1       5.155  -1.562   4.427  0.00  0.00    +0.144 HD
ATOM     17  H   UNL     1       4.626   0.136   4.679  0.00  0.00    +0.144 HD
ENDBRANCH  12  15
ENDBRANCH   9  12
ENDBRANCH   5   6
ENDBRANCH   1   5
BRANCH   1  18
ATOM     18  C   UNL     1       1.183   4.763   2.300  0.00  0.00    +0.002 C 
BRANCH  18  19
ATOM     19  C   UNL     1       1.741   5.948   3.046  0.00  0.00    +0.141 C 
ATOM     20  O   UNL     1       1.080   6.488   3.910  0.00  0.00    -0.295 OA
BRANCH  19  21
ATOM     21  C   UNL     1       3.024   6.426   2.742  0.00  0.00    +0.064 C 
ATOM     22  C   UNL     1       3.544   7.462   3.444  0.00  0.00    +0.024 C 
ATOM     23  C   UNL     1       2.848   8.258   4.527  0.00  0.00    +0.030 C 
ATOM     24  C   UNL     1       3.878   9.275   4.960  0.00  0.00    -0.015 A 
ATOM     25  C   UNL     1       3.859  10.280   5.902  0.00  0.00    +0.006 A 
ATOM     26  C   UNL     1       4.977  11.075   6.086  0.00  0.00    +0.000 A 
ATOM     27  C   UNL     1       6.109  10.858   5.323  0.00  0.00    +0.002 A 
ATOM     28  C   UNL     1       6.132   9.852   4.379  0.00  0.00    +0.024 A 
ATOM     29  C   UNL     1       5.010   9.047   4.188  0.00  0.00    +0.038 A 
ATOM     30  N   UNL     1       4.795   7.982   3.314  0.00  0.00    -0.305 N 
ATOM     31  C   UNL     1       5.795   7.484   2.367  0.00  0.00    +0.135 C 
ATOM     32  C   UNL     1       1.608   8.957   3.965  0.00  0.00    +0.022 C 
ATOM     33  C   UNL     1       2.467   7.350   5.698  0.00  0.00    +0.022 C 
ENDBRANCH  19  21
ENDBRANCH  18  19
ENDBRANCH   1  18
TORSDOF 7
