REMARK  Name = ZINC00959836
REMARK  4 active torsions:
REMARK  status: ('A' for Active; 'I' for Inactive)
REMARK    1  A    between atoms: C_1  and  S_2
REMARK    2  A    between atoms: S_2  and  C_3
REMARK    3  A    between atoms: C_13  and  C_15
REMARK    4  A    between atoms: C_20  and  N_21
REMARK                            x       y       z     vdW  Elec       q    Type
REMARK                         _______ _______ _______ _____ _____    ______ ____
ROOT
ATOM      1  C   UNL     1      -2.232  -0.991   0.924  0.00  0.00    +0.171 A 
ATOM      2  N   UNL     1      -3.158  -0.054   0.946  0.00  0.00    -0.185 NA
ATOM      3  C   UNL     1      -4.440  -0.344   0.680  0.00  0.00    +0.280 A 
ATOM      4  O   UNL     1      -5.288   0.536   0.706  0.00  0.00    -0.265 OA
ATOM      5  C   UNL     1      -4.805  -1.673   0.369  0.00  0.00    +0.069 A 
ATOM      6  C   UNL     1      -3.841  -2.631   0.354  0.00  0.00    +0.111 A 
ATOM      7  N   UNL     1      -2.544  -2.283   0.627  0.00  0.00    -0.322 N 
ATOM      8  N   UNL     1      -4.166  -3.936   0.065  0.00  0.00    -0.304 N 
ATOM      9  C   UNL     1      -5.459  -4.372   0.167  0.00  0.00    +0.017 C 
ATOM     10  C   UNL     1      -6.483  -3.492   0.169  0.00  0.00    +0.024 C 
ATOM     11  C   UNL     1      -6.233  -2.010   0.058  0.00  0.00    +0.095 C 
ATOM     12  C   UNL     1      -7.815  -3.932   0.268  0.00  0.00    +0.162 C 
ATOM     13  O   UNL     1      -8.713  -3.113   0.286  0.00  0.00    -0.292 OA
ATOM     14  C   UNL     1      -8.150  -5.396   0.352  0.00  0.00    +0.080 C 
ATOM     15  C   UNL     1      -7.056  -6.199  -0.360  0.00  0.00    +0.014 C 
ATOM     16  C   UNL     1      -5.709  -5.855   0.280  0.00  0.00    +0.051 C 
ATOM     17  H   UNL     1      -3.472  -4.553  -0.215  0.00  0.00    +0.153 HD
ATOM     18  H   UNL     1      -1.848  -2.959   0.613  0.00  0.00    +0.169 HD
ENDROOT
BRANCH  11  19
ATOM     19  C   UNL     1      -6.553  -1.559  -1.344  0.00  0.00    -0.005 A 
ATOM     20  C   UNL     1      -5.962  -2.188  -2.424  0.00  0.00    +0.007 A 
ATOM     21  C   UNL     1      -6.255  -1.775  -3.710  0.00  0.00    +0.000 A 
ATOM     22  C   UNL     1      -7.139  -0.732  -3.916  0.00  0.00    +0.002 A 
ATOM     23  C   UNL     1      -7.730  -0.103  -2.837  0.00  0.00    +0.033 A 
ATOM     24  C   UNL     1      -7.440  -0.520  -1.550  0.00  0.00    +0.130 A 
BRANCH  24  25
ATOM     25  N   UNL     1      -8.077   0.150  -0.394  0.00  0.00    +0.057 N 
ATOM     26  O   UNL     1      -9.095   0.784  -0.549  0.00  0.00    -0.126 OA
ATOM     27  O   UNL     1      -7.580   0.064   0.704  0.00  0.00    -0.126 OA
ENDBRANCH  24  25
ENDBRANCH  11  19
BRANCH   1  29
ATOM     28  C   UNL     1      -0.622   1.220   1.606  0.00  0.00    +0.093 C 
ATOM     29  S   UNL     1      -0.559  -0.563   1.277  0.00  0.00    -0.091 S 
ENDBRANCH   1  29
TORSDOF 3
