REMARK  Name = ZINC12998801
REMARK  9 active torsions:
REMARK  status: ('A' for Active; 'I' for Inactive)
REMARK    1  A    between atoms: C_1  and  C_2
REMARK    2  A    between atoms: C_5  and  N_8
REMARK    3  A    between atoms: C_9  and  C_34
REMARK    4  A    between atoms: N_13  and  C_16
REMARK    5  A    between atoms: C_16  and  C_17
REMARK    6  A    between atoms: N_19  and  C_20
REMARK    7  A    between atoms: C_20  and  C_21
REMARK    8  A    between atoms: C_21  and  C_23
REMARK    9  A    between atoms: C_21  and  N_62
REMARK                            x       y       z     vdW  Elec       q    Type
REMARK                         _______ _______ _______ _____ _____    ______ ____
ROOT
ATOM      1  C   UNL     1      -0.094  -3.231  -1.741  0.00  0.00    +0.231 C 
ATOM      2  O   UNL     1      -0.755  -2.898  -2.702  0.00  0.00    -0.274 OA
ATOM      3  N   UNL     1       0.906  -4.123  -1.887  0.00  0.00    -0.315 N 
ATOM      4  H   UNL     1       1.435  -4.389  -1.119  0.00  0.00    +0.149 HD
ENDROOT
BRANCH   1   5
ATOM      5  C   UNL     1      -0.390  -2.647  -0.384  0.00  0.00    +0.213 C 
BRANCH   5  10
ATOM      6  N   UNL     1      -3.630  -1.012  -0.486  0.00  0.00    -0.243 N 
ATOM      7  C   UNL     1      -2.787   0.165  -0.762  0.00  0.00    +0.166 C 
ATOM      8  C   UNL     1      -1.379  -0.395  -0.746  0.00  0.00    +0.244 C 
ATOM      9  O   UNL     1      -0.346   0.215  -0.927  0.00  0.00    -0.273 OA
ATOM     10  N   UNL     1      -1.512  -1.711  -0.489  0.00  0.00    -0.215 N 
ATOM     11  C   UNL     1      -2.796  -2.057  -0.342  0.00  0.00    +0.316 C 
ATOM     12  O   UNL     1      -3.167  -3.190  -0.105  0.00  0.00    -0.252 OA
ATOM     13  C   UNL     1      -2.960   1.219   0.334  0.00  0.00    +0.038 C 
BRANCH   6  18
ATOM     14  C   UNL     1      -9.291  -1.116  -0.123  0.00  0.00    +0.044 C 
ATOM     15  C   UNL     1      -7.787  -1.088  -0.220  0.00  0.00    -0.050 A 
ATOM     16  C   UNL     1      -7.063  -2.254  -0.048  0.00  0.00    +0.005 A 
ATOM     17  C   UNL     1      -5.685  -2.232  -0.135  0.00  0.00    +0.024 A 
ATOM     18  C   UNL     1      -5.026  -1.037  -0.397  0.00  0.00    +0.039 A 
ATOM     19  C   UNL     1      -5.756   0.132  -0.565  0.00  0.00    +0.024 A 
ATOM     20  C   UNL     1      -7.134   0.102  -0.481  0.00  0.00    +0.005 A 
ENDBRANCH   6  18
ENDBRANCH   5  10
ENDBRANCH   1   5
BRANCH   3  21
ATOM     21  C   UNL     1       1.194  -4.691  -3.207  0.00  0.00    +0.093 C 
BRANCH  21  22
ATOM     22  C   UNL     1       2.366  -5.668  -3.097  0.00  0.00    -0.019 C 
BRANCH  22  23
ATOM     23  C   UNL     1       2.660  -6.255  -4.453  0.00  0.00    -0.041 A 
ATOM     24  C   UNL     1       2.256  -7.542  -4.752  0.00  0.00    +0.003 A 
ATOM     25  C   UNL     1       2.526  -8.081  -5.996  0.00  0.00    +0.000 A 
ATOM     26  C   UNL     1       3.200  -7.331  -6.943  0.00  0.00    +0.001 A 
ATOM     27  C   UNL     1       3.604  -6.044  -6.645  0.00  0.00    +0.020 A 
ATOM     28  C   UNL     1       3.330  -5.503  -5.402  0.00  0.00    +0.043 A 
ATOM     29 CL   UNL     1       3.831  -3.883  -5.030  0.00  0.00    -0.083 Cl
ENDBRANCH  22  23
BRANCH  22  34
ATOM     30  C   UNL     1       0.677  -7.307  -2.471  0.00  0.00    -0.078 C 
ATOM     31  C   UNL     1       0.709  -8.698  -1.789  0.00  0.00    -0.020 C 
ATOM     32  C   UNL     1       2.163  -9.166  -2.025  0.00  0.00    -0.020 C 
ATOM     33  C   UNL     1       2.965  -7.877  -2.280  0.00  0.00    -0.078 C 
ATOM     34  N   UNL     1       2.012  -6.773  -2.156  0.00  0.00    +0.385 N 
ATOM     35  H   UNL     1       2.022  -6.413  -1.194  0.00  0.00    -0.081 HD
ENDBRANCH  22  34
ENDBRANCH  21  22
ENDBRANCH   3  21
TORSDOF 7
