REMARK  Name = ZINC28056196
REMARK  3 active torsions:
REMARK  status: ('A' for Active; 'I' for Inactive)
REMARK    1  A    between atoms: C_1  and  C_2
REMARK    2  A    between atoms: C_5  and  C_8
REMARK    3  A    between atoms: C_25  and  C_27
REMARK                            x       y       z     vdW  Elec       q    Type
REMARK                         _______ _______ _______ _____ _____    ______ ____
ROOT
ATOM      1  C   UNL     1       3.663  -0.715   0.560  0.00  0.00    +0.234 C 
ATOM      2  C   UNL     1       2.256  -0.212   0.323  0.00  0.00    +0.025 C 
ATOM      3  C   UNL     1       1.232  -1.055   0.467  0.00  0.00    +0.050 C 
ATOM      4  C   UNL     1       1.518  -2.449   0.882  0.00  0.00    +0.038 A 
ATOM      5  C   UNL     1       0.577  -3.459   0.731  0.00  0.00    +0.013 A 
ATOM      6  C   UNL     1       0.886  -4.744   1.135  0.00  0.00    +0.001 A 
ATOM      7  C   UNL     1       2.124  -5.023   1.688  0.00  0.00    +0.004 A 
ATOM      8  C   UNL     1       3.067  -4.023   1.841  0.00  0.00    +0.046 A 
ATOM      9  C   UNL     1       2.771  -2.733   1.439  0.00  0.00    +0.131 A 
ATOM     10  O   UNL     1       3.671  -1.725   1.568  0.00  0.00    -0.479 OA
ATOM     11  N   UNL     1      -0.095  -0.661   0.255  0.00  0.00    -0.282 N 
ATOM     12  C   UNL     1      -0.348   0.698   0.174  0.00  0.00    +0.240 A 
ATOM     13  N   UNL     1      -1.464   1.368   0.219  0.00  0.00    -0.092 NA
ATOM     14  N   UNL     1      -1.229   2.632   0.114  0.00  0.00    -0.021 NA
ATOM     15  N   UNL     1       0.042   2.847  -0.002  0.00  0.00    -0.042 NA
ATOM     16  N   UNL     1       0.660   1.597   0.027  0.00  0.00    -0.201 N 
ATOM     17  C   UNL     1       2.065   1.232  -0.073  0.00  0.00    +0.174 C 
ATOM     18  H   UNL     1      -0.885  -1.421   0.159  0.00  0.00    +0.155 HD
ENDROOT
BRANCH   1  23
ATOM     19  C   UNL     1       5.750  -2.913  -4.360  0.00  0.00    +0.044 C 
ATOM     20  C   UNL     1       5.206  -2.340  -3.077  0.00  0.00    -0.050 A 
ATOM     21  C   UNL     1       4.266  -3.045  -2.348  0.00  0.00    +0.004 A 
ATOM     22  C   UNL     1       3.767  -2.519  -1.171  0.00  0.00    +0.008 A 
ATOM     23  C   UNL     1       4.207  -1.288  -0.723  0.00  0.00    -0.003 A 
ATOM     24  C   UNL     1       5.143  -0.580  -1.454  0.00  0.00    +0.008 A 
ATOM     25  C   UNL     1       5.646  -1.109  -2.628  0.00  0.00    +0.004 A 
ENDBRANCH   1  23
BRANCH  17  26
ATOM     26  C   UNL     1       2.529   1.426  -1.494  0.00  0.00    -0.016 A 
ATOM     27  C   UNL     1       1.936   0.710  -2.518  0.00  0.00    +0.006 A 
ATOM     28  C   UNL     1       2.357   0.891  -3.822  0.00  0.00    +0.003 A 
ATOM     29  C   UNL     1       3.378   1.779  -4.103  0.00  0.00    +0.038 A 
ATOM     30  C   UNL     1       3.976   2.492  -3.077  0.00  0.00    +0.124 A 
ATOM     31  C   UNL     1       3.550   2.314  -1.772  0.00  0.00    +0.044 A 
ATOM     32  F   UNL     1       4.975   3.360  -3.350  0.00  0.00    -0.205 F 
ENDBRANCH  17  26
TORSDOF 2
