REMARK  Name = ZINC39673154
REMARK  9 active torsions:
REMARK  status: ('A' for Active; 'I' for Inactive)
REMARK    1  A    between atoms: C_1  and  C_2
REMARK    2  A    between atoms: C_5  and  C_9
REMARK    3  A    between atoms: C_7  and  C_8
REMARK    4  A    between atoms: C_9  and  N_10
REMARK    5  A    between atoms: C_11  and  C_13
REMARK    6  A    between atoms: C_24  and  C_26
REMARK    7  A    between atoms: C_27  and  C_37
REMARK    8  A    between atoms: C_30  and  C_31
REMARK    9  A    between atoms: C_33  and  C_36
REMARK                            x       y       z     vdW  Elec       q    Type
REMARK                         _______ _______ _______ _____ _____    ______ ____
ROOT
ATOM      1  C   UNL     1       3.137  -6.551  -0.051  0.00  0.00    +0.100 C 
ATOM      2  C   UNL     1       3.814  -6.202  -1.395  0.00  0.00    +0.121 C 
ATOM      3  N   UNL     1       4.683  -7.366  -1.691  0.00  0.00    -0.296 N 
ATOM      4  C   UNL     1       3.881  -8.540  -1.270  0.00  0.00    +0.115 C 
ATOM      5  C   UNL     1       3.183  -8.087   0.027  0.00  0.00    -0.004 C 
ATOM      6  C   UNL     1       1.768  -8.655   0.090  0.00  0.00    -0.010 C 
ATOM      7  C   UNL     1       1.840 -10.178   0.226  0.00  0.00    -0.082 C 
ATOM      8  N   UNL     1       2.584 -10.528   1.442  0.00  0.00    +0.379 N 
ATOM      9  C   UNL     1       3.971 -10.059   1.333  0.00  0.00    -0.082 C 
ATOM     10  C   UNL     1       3.989  -8.530   1.244  0.00  0.00    -0.010 C 
ATOM     11  C   UNL     1       5.921  -7.358  -2.221  0.00  0.00    +0.252 C 
ATOM     12  O   UNL     1       6.511  -8.406  -2.405  0.00  0.00    -0.270 OA
ATOM     13  H   UNL     1       2.146 -10.094   2.240  0.00  0.00    -0.086 HD
ATOM     14  H   UNL     1       2.578 -11.530   1.562  0.00  0.00    -0.086 HD
ENDROOT
BRANCH  11  15
ATOM     15  C   UNL     1       6.562  -6.081  -2.579  0.00  0.00    +0.108 A 
ATOM     16  C   UNL     1       7.380  -5.287  -1.737  0.00  0.00    +0.093 A 
ATOM     17  N   UNL     1       7.756  -4.240  -2.409  0.00  0.00    -0.082 NA
ATOM     18  O   UNL     1       7.201  -4.306  -3.708  0.00  0.00    -0.352 OA
ATOM     19  C   UNL     1       6.481  -5.434  -3.804  0.00  0.00    +0.201 A 
ATOM     20  C   UNL     1       7.751  -5.603  -0.311  0.00  0.00    +0.070 C 
BRANCH  19  21
ATOM     21  C   UNL     1       5.736  -5.900  -4.993  0.00  0.00    +0.152 A 
ATOM     22  C   UNL     1       5.660  -5.239  -6.244  0.00  0.00    +0.079 A 
ATOM     23  C   UNL     1       4.891  -5.979  -7.061  0.00  0.00    +0.135 A 
ATOM     24  O   UNL     1       4.483  -7.065  -6.386  0.00  0.00    -0.359 OA
ATOM     25  N   UNL     1       5.030  -7.004  -5.081  0.00  0.00    -0.075 NA
ATOM     26  C   UNL     1       4.544  -5.646  -8.489  0.00  0.00    +0.089 C 
ENDBRANCH  19  21
ENDBRANCH  11  15
BRANCH   1  28
ATOM     27  N   UNL     1       1.121  -5.733   1.125  0.00  0.00    -0.311 N 
ATOM     28  C   UNL     1       1.710  -6.067  -0.040  0.00  0.00    +0.218 C 
ATOM     29  O   UNL     1       1.092  -5.979  -1.080  0.00  0.00    -0.275 OA
ATOM     30  H   UNL     1       1.615  -5.803   1.956  0.00  0.00    +0.149 HD
BRANCH  27  31
ATOM     31  C   UNL     1      -0.267  -5.262   1.135  0.00  0.00    +0.139 C 
BRANCH  31  36
ATOM     32  C   UNL     1      -1.867  -4.091   6.563  0.00  0.00    +0.044 C 
ATOM     33  C   UNL     1      -1.449  -4.396   5.147  0.00  0.00    -0.048 A 
ATOM     34  C   UNL     1      -0.876  -3.409   4.367  0.00  0.00    +0.004 A 
ATOM     35  C   UNL     1      -0.493  -3.689   3.069  0.00  0.00    +0.005 A 
ATOM     36  C   UNL     1      -0.683  -4.957   2.550  0.00  0.00    -0.030 A 
ATOM     37  C   UNL     1      -1.256  -5.944   3.331  0.00  0.00    +0.008 A 
ATOM     38  C   UNL     1      -1.635  -5.665   4.630  0.00  0.00    -0.047 A 
ATOM     39  C   UNL     1      -2.254  -6.742   5.483  0.00  0.00    +0.044 C 
ENDBRANCH  31  36
ENDBRANCH  27  31
ENDBRANCH   1  28
TORSDOF 5
