REMARK  Name = ZINC39623222
REMARK  4 active torsions:
REMARK  status: ('A' for Active; 'I' for Inactive)
REMARK    1  A    between atoms: C_5  and  C_7
REMARK    2  A    between atoms: C_7  and  N_8
REMARK    3  A    between atoms: C_9  and  C_11
REMARK    4  A    between atoms: C_22  and  C_24
REMARK                            x       y       z     vdW  Elec       q    Type
REMARK                         _______ _______ _______ _____ _____    ______ ____
ROOT
ATOM      1  C   UNL     1       1.819  -4.511   2.961  0.00  0.00    +0.100 C 
ATOM      2  C   UNL     1       3.261  -4.161   3.393  0.00  0.00    +0.121 C 
ATOM      3  N   UNL     1       3.713  -5.336   4.175  0.00  0.00    -0.297 N 
ATOM      4  C   UNL     1       3.163  -6.501   3.441  0.00  0.00    +0.115 C 
ATOM      5  C   UNL     1       1.760  -6.048   2.993  0.00  0.00    -0.004 C 
ATOM      6  C   UNL     1       0.709  -6.515   3.996  0.00  0.00    -0.010 C 
ATOM      7  C   UNL     1       0.629  -8.044   3.968  0.00  0.00    -0.082 C 
ATOM      8  N   UNL     1       0.277  -8.493   2.616  0.00  0.00    +0.379 N 
ATOM      9  C   UNL     1       1.337  -8.120   1.672  0.00  0.00    -0.082 C 
ATOM     10  C   UNL     1       1.448  -6.594   1.603  0.00  0.00    -0.010 C 
ATOM     11  C   UNL     1       4.457  -5.345   5.299  0.00  0.00    +0.260 C 
ATOM     12  O   UNL     1       4.748  -6.397   5.826  0.00  0.00    -0.271 OA
ATOM     13  H   UNL     1       0.164  -9.495   2.614  0.00  0.00    -0.086 HD
ATOM     14  H   UNL     1      -0.590  -8.059   2.334  0.00  0.00    -0.086 HD
ENDROOT
BRANCH  11  15
ATOM     15  C   UNL     1       4.926  -4.045   5.901  0.00  0.00    +0.296 C 
ATOM     16  C   UNL     1       5.910  -3.357   4.945  0.00  0.00    +0.283 C 
ATOM     17  O   UNL     1       6.346  -2.137   5.553  0.00  0.00    -0.484 OA
ATOM     18  C   UNL     1       6.716  -2.203   6.861  0.00  0.00    +0.162 A 
ATOM     19  C   UNL     1       7.476  -1.178   7.406  0.00  0.00    +0.049 A 
ATOM     20  C   UNL     1       7.857  -1.230   8.734  0.00  0.00    +0.004 A 
ATOM     21  C   UNL     1       7.482  -2.302   9.522  0.00  0.00    +0.004 A 
ATOM     22  C   UNL     1       6.727  -3.327   8.984  0.00  0.00    +0.049 A 
ATOM     23  C   UNL     1       6.342  -3.282   7.652  0.00  0.00    +0.163 A 
ATOM     24  O   UNL     1       5.604  -4.303   7.136  0.00  0.00    -0.473 OA
ENDBRANCH  11  15
BRANCH   1  26
ATOM     25  N   UNL     1       0.298  -3.671   1.201  0.00  0.00    -0.311 N 
ATOM     26  C   UNL     1       1.552  -4.005   1.567  0.00  0.00    +0.218 C 
ATOM     27  O   UNL     1       2.464  -3.897   0.776  0.00  0.00    -0.275 OA
ATOM     28  H   UNL     1      -0.431  -3.756   1.834  0.00  0.00    +0.149 HD
BRANCH  25  29
ATOM     29  C   UNL     1       0.038  -3.178  -0.154  0.00  0.00    +0.141 C 
BRANCH  29  34
ATOM     30  C   UNL     1      -3.607  -3.511  -1.079  0.00  0.00    +0.000 A 
ATOM     31  C   UNL     1      -4.127  -2.328  -0.586  0.00  0.00    +0.001 A 
ATOM     32  C   UNL     1      -3.299  -1.420   0.046  0.00  0.00    +0.020 A 
ATOM     33  C   UNL     1      -1.950  -1.695   0.187  0.00  0.00    +0.046 A 
ATOM     34  C   UNL     1      -1.431  -2.878  -0.306  0.00  0.00    -0.012 A 
ATOM     35  C   UNL     1      -2.259  -3.786  -0.939  0.00  0.00    +0.006 A 
ATOM     36 CL   UNL     1      -0.910  -0.554   0.981  0.00  0.00    -0.083 Cl
ENDBRANCH  29  34
ENDBRANCH  25  29
ENDBRANCH   1  26
TORSDOF 4
