REMARK  Name = ZINC16780073
REMARK  8 active torsions:
REMARK  status: ('A' for Active; 'I' for Inactive)
REMARK    1  A    between atoms: C_1  and  C_2
REMARK    2  A    between atoms: C_4  and  S_11
REMARK    3  A    between atoms: C_5  and  C_10
REMARK    4  A    between atoms: C_6  and  C_9
REMARK    5  A    between atoms: C_7  and  C_8
REMARK    6  A    between atoms: S_11  and  N_14
REMARK    7  A    between atoms: N_14  and  C_15
REMARK    8  A    between atoms: C_21  and  C_23
REMARK                            x       y       z     vdW  Elec       q    Type
REMARK                         _______ _______ _______ _____ _____    ______ ____
ROOT
ATOM      1  S   UNL     1       4.004  -0.858   0.029  0.00  0.00    +0.059 S 
ATOM      2  O   UNL     1       4.996  -0.351   0.911  0.00  0.00    -0.153 OA
ATOM      3  O   UNL     1       3.585  -2.216   0.053  0.00  0.00    -0.153 OA
ENDROOT
BRANCH   1   7
ATOM      4  C   UNL     1       1.436   2.994   2.456  0.00  0.00    +0.044 C 
ATOM      5  C   UNL     1       1.431   1.894   1.426  0.00  0.00    -0.045 A 
ATOM      6  C   UNL     1       2.564   1.127   1.228  0.00  0.00    +0.032 A 
ATOM      7  C   UNL     1       2.559   0.119   0.283  0.00  0.00    +0.109 A 
ATOM      8  C   UNL     1       1.421  -0.124  -0.464  0.00  0.00    -0.021 A 
ATOM      9  C   UNL     1       0.288   0.643  -0.266  0.00  0.00    -0.043 A 
ATOM     10  C   UNL     1       0.293   1.652   0.679  0.00  0.00    -0.044 A 
ATOM     11  C   UNL     1      -0.944   2.483   0.900  0.00  0.00    +0.044 C 
ATOM     12  C   UNL     1      -0.952   0.379  -1.080  0.00  0.00    +0.044 C 
ATOM     13  C   UNL     1       1.416  -1.223  -1.494  0.00  0.00    +0.046 C 
ENDBRANCH   1   7
BRANCH   1  14
ATOM     14  N   UNL     1       4.537  -0.554  -1.509  0.00  0.00    -0.187 NA
ATOM     15  H   UNL     1       4.523  -1.259  -2.175  0.00  0.00    +0.148 HD
BRANCH  14  16
ATOM     16  C   UNL     1       5.029   0.779  -1.863  0.00  0.00    +0.079 C 
ATOM     17  C   UNL     1       3.903   1.581  -2.518  0.00  0.00    +0.020 C 
ATOM     18  C   UNL     1       4.417   2.974  -2.889  0.00  0.00    +0.002 C 
ATOM     19  C   UNL     1       5.586   2.842  -3.867  0.00  0.00    +0.000 C 
ATOM     20  C   UNL     1       6.712   2.040  -3.212  0.00  0.00    +0.005 C 
ATOM     21  C   UNL     1       6.198   0.648  -2.842  0.00  0.00    +0.005 C 
ATOM     22  C   UNL     1       7.324  -0.154  -2.187  0.00  0.00    +0.009 C 
ENDBRANCH  14  16
ENDBRANCH   1  14
TORSDOF 3
