REMARK  Name = ZINC01669030
REMARK  4 active torsions:
REMARK  status: ('A' for Active; 'I' for Inactive)
REMARK    1  A    between atoms: C_6  and  S_7
REMARK    2  A    between atoms: S_7  and  N_10
REMARK    3  A    between atoms: N_13  and  S_14
REMARK    4  A    between atoms: S_14  and  C_17
REMARK                            x       y       z     vdW  Elec       q    Type
REMARK                         _______ _______ _______ _____ _____    ______ ____
ROOT
ATOM      1  N   UNL     1      -0.897   1.885  -1.312  0.00  0.00    -0.168 N 
ATOM      2  C   UNL     1      -1.107   3.195  -1.553  0.00  0.00    +0.338 C 
ATOM      3  O   UNL     1      -0.649   4.032  -0.799  0.00  0.00    -0.250 OA
ATOM      4  N   UNL     1      -1.823   3.576  -2.629  0.00  0.00    -0.168 N 
ATOM      5  H   UNL     1      -1.263   1.218  -1.913  0.00  0.00    +0.178 HD
ATOM      6  H   UNL     1      -2.188   2.909  -3.230  0.00  0.00    +0.178 HD
ENDROOT
BRANCH   1   7
ATOM      7  S   UNL     1      -0.017   1.417   0.010  0.00  0.00    +0.076 S 
ATOM      8  O   UNL     1       0.002  -0.004   0.002  0.00  0.00    -0.150 OA
ATOM      9  O   UNL     1       1.172   2.195   0.003  0.00  0.00    -0.150 OA
BRANCH   7  15
ATOM     10  C   UNL     1      -0.717   3.145   2.003  0.00  0.00    +0.030 A 
ATOM     11  C   UNL     1      -1.434   3.527   3.122  0.00  0.00    +0.023 A 
ATOM     12  C   UNL     1      -2.354   2.660   3.683  0.00  0.00    +0.059 A 
ATOM     13  C   UNL     1      -2.560   1.412   3.122  0.00  0.00    +0.061 A 
ATOM     14  C   UNL     1      -1.846   1.033   2.000  0.00  0.00    +0.050 A 
ATOM     15  C   UNL     1      -0.927   1.900   1.439  0.00  0.00    +0.110 A 
ATOM     16 CL   UNL     1      -3.714   0.323   3.825  0.00  0.00    -0.082 Cl
ATOM     17 CL   UNL     1      -3.250   3.138   5.092  0.00  0.00    -0.082 Cl
ENDBRANCH   7  15
ENDBRANCH   1   7
BRANCH   4  18
ATOM     18  S   UNL     1      -2.080   5.185  -2.925  0.00  0.00    +0.076 S 
ATOM     19  O   UNL     1      -2.834   5.262  -4.127  0.00  0.00    -0.150 OA
ATOM     20  O   UNL     1      -2.532   5.755  -1.704  0.00  0.00    -0.150 OA
BRANCH  18  21
ATOM     21  C   UNL     1      -0.510   5.909  -3.268  0.00  0.00    +0.110 A 
ATOM     22  C   UNL     1       0.247   6.435  -2.238  0.00  0.00    +0.030 A 
ATOM     23  C   UNL     1       1.481   6.998  -2.505  0.00  0.00    +0.023 A 
ATOM     24  C   UNL     1       1.953   7.046  -3.804  0.00  0.00    +0.059 A 
ATOM     25  C   UNL     1       1.192   6.524  -4.836  0.00  0.00    +0.061 A 
ATOM     26  C   UNL     1      -0.040   5.956  -4.567  0.00  0.00    +0.050 A 
ATOM     27 CL   UNL     1       1.783   6.582  -6.468  0.00  0.00    -0.082 Cl
ATOM     28 CL   UNL     1       3.500   7.758  -4.141  0.00  0.00    -0.082 Cl
ENDBRANCH  18  21
ENDBRANCH   4  18
TORSDOF 4
