REMARK  Name = ZINC33249971
REMARK  11 active torsions:
REMARK  status: ('A' for Active; 'I' for Inactive)
REMARK    1  A    between atoms: C_1  and  C_2
REMARK    2  A    between atoms: C_2  and  C_3
REMARK    3  A    between atoms: C_3  and  C_4
REMARK    4  A    between atoms: C_4  and  N_5
REMARK    5  A    between atoms: C_10  and  C_24
REMARK    6  A    between atoms: C_14  and  C_15
REMARK    7  A    between atoms: C_14  and  C_16
REMARK    8  A    between atoms: N_18  and  C_19
REMARK    9  A    between atoms: N_26  and  C_27
REMARK   10  A    between atoms: C_27  and  C_28
REMARK   11  A    between atoms: C_28  and  C_29
REMARK                            x       y       z     vdW  Elec       q    Type
REMARK                         _______ _______ _______ _____ _____    ______ ____
ROOT
ATOM      1  N   UNL     1      -0.196   1.229   2.810  0.00  0.00    -0.281 N 
ATOM      2  C   UNL     1      -0.552   0.141   3.534  0.00  0.00    +0.266 C 
ATOM      3  O   UNL     1      -1.557  -0.496   3.282  0.00  0.00    -0.268 OA
ATOM      4  C   UNL     1       0.345  -0.232   4.640  0.00  0.00    +0.124 A 
ATOM      5  C   UNL     1       0.393  -1.340   5.415  0.00  0.00    +0.067 A 
ATOM      6  C   UNL     1       1.485  -1.133   6.288  0.00  0.00    +0.148 A 
ATOM      7  N   UNL     1       2.009   0.047   5.998  0.00  0.00    -0.166 NA
ATOM      8  N   UNL     1       1.363   0.603   5.048  0.00  0.00    -0.256 N 
ATOM      9  C   UNL     1       1.571   1.913   4.419  0.00  0.00    +0.179 C 
ATOM     10  C   UNL     1       1.115   1.852   2.962  0.00  0.00    +0.130 C 
ATOM     11  C   UNL     1       2.140   1.048   2.159  0.00  0.00    +0.044 C 
ENDROOT
BRANCH  10  12
ATOM     12  C   UNL     1       1.055   3.253   2.411  0.00  0.00    +0.238 C 
ATOM     13  O   UNL     1       1.923   3.647   1.660  0.00  0.00    -0.273 OA
ATOM     14  N   UNL     1       0.038   4.069   2.752  0.00  0.00    -0.311 N 
ATOM     15  H   UNL     1      -0.702   3.742   3.497  0.00  0.00    +0.149 HD
BRANCH  14  16
ATOM     16  C   UNL     1      -0.081   5.390   2.130  0.00  0.00    +0.073 C 
ATOM     17  C   UNL     1       0.747   6.423   2.921  0.00  0.00    +0.022 C 
ATOM     18  C   UNL     1      -0.109   7.714   2.871  0.00  0.00    +0.002 C 
ATOM     19  C   UNL     1      -1.554   7.172   3.001  0.00  0.00    +0.002 C 
ATOM     20  C   UNL     1      -1.544   5.866   2.180  0.00  0.00    +0.022 C 
ENDBRANCH  14  16
ENDBRANCH  10  12
BRANCH   6  21
ATOM     21  C   UNL     1       1.956  -2.064   7.334  0.00  0.00    +0.264 C 
ATOM     22  O   UNL     1       1.387  -3.125   7.504  0.00  0.00    -0.268 OA
ATOM     23  N   UNL     1       3.016  -1.738   8.099  0.00  0.00    -0.310 N 
ATOM     24  H   UNL     1       3.531  -0.778   7.945  0.00  0.00    +0.149 HD
BRANCH  23  25
ATOM     25  C   UNL     1       3.483  -2.662   9.136  0.00  0.00    +0.109 C 
BRANCH  25  26
ATOM     26  C   UNL     1       4.691  -2.055   9.854  0.00  0.00    +0.049 C 
BRANCH  26  27
ATOM     27  C   UNL     1       5.171  -3.005  10.920  0.00  0.00    -0.072 C 
ATOM     28  C   UNL     1       6.133  -3.818  10.620  0.00  0.00    -0.028 C 
ATOM     29  C   UNL     1       6.710  -4.825  11.572  0.00  0.00    +0.027 C 
ATOM     30  C   UNL     1       6.320  -4.476  13.009  0.00  0.00    +0.004 C 
ATOM     31  C   UNL     1       4.807  -4.224  13.055  0.00  0.00    +0.005 C 
ATOM     32  C   UNL     1       4.508  -2.946  12.265  0.00  0.00    +0.030 C 
ENDBRANCH  26  27
ENDBRANCH  25  26
ENDBRANCH  23  25
ENDBRANCH   6  21
BRANCH   1  33
ATOM     33  C   UNL     1      -1.151   1.798   1.856  0.00  0.00    +0.109 C 
BRANCH  33  34
ATOM     34  C   UNL     1      -0.867   1.244   0.459  0.00  0.00    +0.019 C 
BRANCH  34  36
ATOM     35  C   UNL     1      -1.581   1.284  -1.935  0.00  0.00    +0.004 C 
ATOM     36  C   UNL     1      -1.865   1.838  -0.538  0.00  0.00    -0.002 C 
ENDBRANCH  34  36
ENDBRANCH  33  34
ENDBRANCH   1  33
TORSDOF 9
