REMARK  Name = ZINC39595566
REMARK  9 active torsions:
REMARK  status: ('A' for Active; 'I' for Inactive)
REMARK    1  A    between atoms: C_1  and  C_2
REMARK    2  A    between atoms: C_2  and  C_4
REMARK    3  A    between atoms: C_2  and  O_29
REMARK    4  A    between atoms: C_4  and  N_5
REMARK    5  A    between atoms: C_6  and  C_8
REMARK    6  A    between atoms: C_19  and  C_21
REMARK    7  A    between atoms: C_21  and  C_22
REMARK    8  A    between atoms: C_22  and  C_23
REMARK    9  A    between atoms: O_29  and  C_30
REMARK                            x       y       z     vdW  Elec       q    Type
REMARK                         _______ _______ _______ _____ _____    ______ ____
ROOT
ATOM      1  C   UNL     1      -3.163  -3.757  -0.534  0.00  0.00    +0.100 C 
ATOM      2  C   UNL     1      -2.533  -4.168  -1.884  0.00  0.00    +0.121 C 
ATOM      3  N   UNL     1      -3.441  -5.210  -2.419  0.00  0.00    -0.300 N 
ATOM      4  C   UNL     1      -4.800  -4.727  -2.075  0.00  0.00    +0.115 C 
ATOM      5  C   UNL     1      -4.651  -4.125  -0.664  0.00  0.00    -0.004 C 
ATOM      6  C   UNL     1      -5.517  -2.877  -0.529  0.00  0.00    -0.010 C 
ATOM      7  C   UNL     1      -6.994  -3.275  -0.603  0.00  0.00    -0.082 C 
ATOM      8  N   UNL     1      -7.300  -4.227   0.472  0.00  0.00    +0.379 N 
ATOM      9  C   UNL     1      -6.530  -5.462   0.281  0.00  0.00    -0.082 C 
ATOM     10  C   UNL     1      -5.034  -5.156   0.393  0.00  0.00    -0.010 C 
ATOM     11  C   UNL     1      -3.107  -6.341  -3.071  0.00  0.00    +0.216 C 
ATOM     12  O   UNL     1      -3.973  -7.101  -3.450  0.00  0.00    -0.276 OA
ATOM     13  H   UNL     1      -7.060  -3.816   1.362  0.00  0.00    -0.086 HD
ATOM     14  H   UNL     1      -8.286  -4.441   0.459  0.00  0.00    -0.086 HD
ENDROOT
BRANCH   1  16
ATOM     15  N   UNL     1      -2.934  -1.786   0.943  0.00  0.00    -0.312 N 
ATOM     16  C   UNL     1      -3.006  -2.275  -0.311  0.00  0.00    +0.218 C 
ATOM     17  O   UNL     1      -2.945  -1.522  -1.260  0.00  0.00    -0.275 OA
ATOM     18  H   UNL     1      -2.983  -2.389   1.702  0.00  0.00    +0.149 HD
BRANCH  15  19
ATOM     19  C   UNL     1      -2.782  -0.346   1.160  0.00  0.00    +0.148 C 
BRANCH  19  21
ATOM     20  C   UNL     1      -2.567   1.446   2.889  0.00  0.00    +0.053 C 
ATOM     21  C   UNL     1      -2.727  -0.059   2.662  0.00  0.00    +0.187 C 
BRANCH  21  22
ATOM     22  O   UNL     1      -3.936  -0.508   3.277  0.00  0.00    -0.488 OA
BRANCH  22  23
ATOM     23  C   UNL     1      -3.876  -0.822   4.599  0.00  0.00    +0.121 A 
ATOM     24  C   UNL     1      -4.981  -1.371   5.232  0.00  0.00    +0.048 A 
ATOM     25  C   UNL     1      -4.919  -1.689   6.575  0.00  0.00    +0.042 A 
ATOM     26  C   UNL     1      -3.755  -1.459   7.289  0.00  0.00    +0.124 A 
ATOM     27  C   UNL     1      -2.651  -0.910   6.658  0.00  0.00    +0.042 A 
ATOM     28  C   UNL     1      -2.708  -0.598   5.313  0.00  0.00    +0.048 A 
ATOM     29  F   UNL     1      -3.696  -1.770   8.602  0.00  0.00    -0.205 F 
ENDBRANCH  22  23
ENDBRANCH  21  22
ENDBRANCH  19  21
ENDBRANCH  15  19
ENDBRANCH   1  16
BRANCH  11  30
ATOM     30  C   UNL     1      -1.657  -6.663  -3.327  0.00  0.00    +0.100 C 
BRANCH  30  31
ATOM     31  C   UNL     1      -1.554  -7.992  -4.077  0.00  0.00    +0.044 C 
BRANCH  31  32
ATOM     32  C   UNL     1      -0.105  -8.314  -4.334  0.00  0.00    -0.047 A 
ATOM     33  C   UNL     1       0.507  -7.872  -5.493  0.00  0.00    +0.003 A 
ATOM     34  C   UNL     1       1.837  -8.167  -5.728  0.00  0.00    +0.000 A 
ATOM     35  C   UNL     1       2.555  -8.903  -4.805  0.00  0.00    +0.000 A 
ATOM     36  C   UNL     1       1.944  -9.344  -3.646  0.00  0.00    +0.000 A 
ATOM     37  C   UNL     1       0.615  -9.046  -3.409  0.00  0.00    +0.003 A 
ENDBRANCH  31  32
ENDBRANCH  30  31
ENDBRANCH  11  30
TORSDOF 8
