REMARK  Name = ZINC44550512
REMARK  4 active torsions:
REMARK  status: ('A' for Active; 'I' for Inactive)
REMARK    1  A    between atoms: C_4  and  S_7
REMARK    2  A    between atoms: S_7  and  N_10
REMARK    3  A    between atoms: N_13  and  N_14
REMARK    4  A    between atoms: C_15  and  C_16
REMARK                            x       y       z     vdW  Elec       q    Type
REMARK                         _______ _______ _______ _____ _____    ______ ____
ROOT
ATOM      1  N   UNL     1       4.378  -1.079   1.536  0.00  0.00    -0.236 N 
ATOM      2  C   UNL     1       3.621  -1.885   2.341  0.00  0.00    +0.177 C 
ATOM      3  S   UNL     1       2.258  -2.616   1.738  0.00  0.00    -0.013 SA
ATOM      4  N   UNL     1       3.987  -2.088   3.640  0.00  0.00    -0.237 N 
ATOM      5  H   UNL     1       4.783  -1.661   3.992  0.00  0.00    +0.174 HD
ATOM      6  H   UNL     1       5.174  -0.651   1.888  0.00  0.00    +0.190 HD
ENDROOT
BRANCH   4   7
ATOM      7  N   UNL     1       3.212  -2.914   4.465  0.00  0.00    -0.292 N 
ATOM      8  C   UNL     1       3.561  -3.108   5.705  0.00  0.00    +0.115 C 
ATOM      9  N   UNL     1       4.703  -2.496   6.210  0.00  0.00    -0.343 N 
ATOM     10  H   UNL     1       5.240  -1.924   5.639  0.00  0.00    +0.144 HD
ATOM     11  H   UNL     1       4.963  -2.641   7.133  0.00  0.00    +0.144 HD
ATOM     12  H   UNL     1       2.415  -3.341   4.113  0.00  0.00    +0.186 HD
BRANCH   8  13
ATOM     13  C   UNL     1       2.743  -3.980   6.576  0.00  0.00    +0.032 A 
ATOM     14  C   UNL     1       3.334  -4.696   7.624  0.00  0.00    +0.014 A 
ATOM     15  C   UNL     1       2.525  -5.497   8.409  0.00  0.00    +0.020 A 
ATOM     16  C   UNL     1       1.170  -5.564   8.137  0.00  0.00    +0.111 A 
ATOM     17  N   UNL     1       0.640  -4.879   7.142  0.00  0.00    -0.263 NA
ATOM     18  C   UNL     1       1.368  -4.098   6.370  0.00  0.00    +0.122 A 
ENDBRANCH   8  13
ENDBRANCH   4   7
BRANCH   1  19
ATOM     19  S   UNL     1       3.934  -0.832  -0.041  0.00  0.00    +0.079 S 
ATOM     20  O   UNL     1       3.674  -2.114  -0.595  0.00  0.00    -0.148 OA
ATOM     21  O   UNL     1       4.890   0.060  -0.597  0.00  0.00    -0.148 OA
BRANCH  19  25
ATOM     22  C   UNL     1      -0.017   1.378   0.010  0.00  0.00    +0.000 A 
ATOM     23  C   UNL     1       1.171   2.086   0.002  0.00  0.00    +0.002 A 
ATOM     24  C   UNL     1       2.377   1.411  -0.013  0.00  0.00    +0.029 A 
ATOM     25  C   UNL     1       2.396   0.029  -0.020  0.00  0.00    +0.110 A 
ATOM     26  C   UNL     1       1.208  -0.679  -0.012  0.00  0.00    +0.029 A 
ATOM     27  C   UNL     1       0.002  -0.004   0.002  0.00  0.00    +0.002 A 
ENDBRANCH  19  25
ENDBRANCH   1  19
TORSDOF 4
