REMARK  Name = ZINC09136064
REMARK  5 active torsions:
REMARK  status: ('A' for Active; 'I' for Inactive)
REMARK    1  A    between atoms: C_1  and  N_52
REMARK    2  A    between atoms: C_3  and  C_25
REMARK    3  A    between atoms: C_5  and  C_17
REMARK    4  A    between atoms: C_17  and  C_19
REMARK    5  A    between atoms: C_28  and  N_31
REMARK                            x       y       z     vdW  Elec       q    Type
REMARK                         _______ _______ _______ _____ _____    ______ ____
ROOT
ATOM      1  C   UNL     1      -4.925   5.693   1.283  0.00  0.00    -0.094 C 
ATOM      2  C   UNL     1      -3.807   5.580  -0.878  0.00  0.00    -0.068 C 
ATOM      3  C   UNL     1      -2.396   5.968  -1.397  0.00  0.00    +0.012 C 
ATOM      4  C   UNL     1      -1.553   6.008  -0.100  0.00  0.00    +0.070 C 
ATOM      5  C   UNL     1      -2.571   6.210   1.028  0.00  0.00    +0.051 C 
ATOM      6  C   UNL     1      -2.255   7.444   1.830  0.00  0.00    -0.027 A 
ATOM      7  C   UNL     1      -2.152   8.779   1.508  0.00  0.00    +0.004 A 
ATOM      8  C   UNL     1      -1.839   9.704   2.489  0.00  0.00    +0.000 A 
ATOM      9  C   UNL     1      -1.630   9.284   3.790  0.00  0.00    +0.002 A 
ATOM     10  C   UNL     1      -1.731   7.948   4.115  0.00  0.00    +0.023 A 
ATOM     11  C   UNL     1      -2.045   7.010   3.134  0.00  0.00    +0.036 A 
ATOM     12  N   UNL     1      -2.200   5.624   3.213  0.00  0.00    -0.286 N 
ATOM     13  C   UNL     1      -2.508   5.079   2.022  0.00  0.00    +0.212 C 
ATOM     14  O   UNL     1      -2.698   3.903   1.792  0.00  0.00    -0.277 OA
ATOM     15  H   UNL     1      -2.097   5.114   4.031  0.00  0.00    +0.155 HD
ATOM     16  N   UNL     1      -3.885   6.300   0.398  0.00  0.00    +0.391 N 
ATOM     17  H   UNL     1      -4.122   7.285   0.227  0.00  0.00    -0.080 HD
ENDROOT
BRANCH   3  18
ATOM     18  C   UNL     1      -1.867   4.921  -2.344  0.00  0.00    -0.045 A 
ATOM     19  C   UNL     1      -2.581   3.756  -2.555  0.00  0.00    +0.006 A 
ATOM     20  C   UNL     1      -2.099   2.798  -3.427  0.00  0.00    +0.033 A 
ATOM     21  C   UNL     1      -0.898   3.001  -4.081  0.00  0.00    +0.126 A 
ATOM     22  C   UNL     1      -0.182   4.164  -3.866  0.00  0.00    +0.033 A 
ATOM     23  C   UNL     1      -0.666   5.123  -2.997  0.00  0.00    +0.006 A 
BRANCH  21  24
ATOM     24  N   UNL     1      -0.379   1.974  -5.011  0.00  0.00    +0.056 N 
ATOM     25  O   UNL     1       0.679   2.152  -5.588  0.00  0.00    -0.126 OA
ATOM     26  O   UNL     1      -1.011   0.949  -5.201  0.00  0.00    -0.126 OA
ENDBRANCH  21  24
ENDBRANCH   3  18
BRANCH   4  27
ATOM     27  C   UNL     1      -0.815   4.707   0.087  0.00  0.00    +0.184 C 
ATOM     28  O   UNL     1      -1.322   3.666  -0.271  0.00  0.00    -0.290 OA
BRANCH  27  29
ATOM     29  C   UNL     1       0.524   4.701   0.706  0.00  0.00    +0.106 A 
ATOM     30  C   UNL     1       1.205   3.494   0.871  0.00  0.00    +0.031 A 
ATOM     31  C   UNL     1       2.460   3.504   1.458  0.00  0.00    +0.004 A 
ATOM     32  C   UNL     1       2.997   4.721   1.851  0.00  0.00    +0.020 A 
ATOM     33  C   UNL     1       2.266   5.882   1.652  0.00  0.00    +0.111 A 
ATOM     34  N   UNL     1       1.076   5.845   1.097  0.00  0.00    -0.252 NA
ENDBRANCH  27  29
ENDBRANCH   4  27
TORSDOF 4
