REMARK  Name = ZINC39873222
REMARK  5 active torsions:
REMARK  status: ('A' for Active; 'I' for Inactive)
REMARK    1  A    between atoms: N_14  and  C_28
REMARK    2  A    between atoms: C_15  and  C_17
REMARK    3  A    between atoms: C_20  and  O_23
REMARK    4  A    between atoms: O_23  and  C_24
REMARK    5  A    between atoms: C_24  and  C_25
REMARK                            x       y       z     vdW  Elec       q    Type
REMARK                         _______ _______ _______ _____ _____    ______ ____
ROOT
ATOM      1  C   UNL     1      -0.017   1.363   0.009  0.00  0.00    +0.001 A 
ATOM      2  C   UNL     1       1.173   2.078   0.002  0.00  0.00    +0.004 A 
ATOM      3  C   UNL     1       2.387   1.428  -0.017  0.00  0.00    +0.047 A 
ATOM      4  C   UNL     1       2.432   0.034  -0.027  0.00  0.00    +0.139 A 
ATOM      5  C   UNL     1       1.222  -0.679  -0.013  0.00  0.00    +0.064 A 
ATOM      6  C   UNL     1       0.002  -0.004   0.002  0.00  0.00    +0.015 A 
ATOM      7  C   UNL     1       1.261  -2.163  -0.008  0.00  0.00    +0.199 A 
ATOM      8  O   UNL     1       0.272  -2.857  -0.165  0.00  0.00    -0.287 OA
ATOM      9  C   UNL     1       2.603  -2.715   0.203  0.00  0.00    +0.072 A 
ATOM     10  C   UNL     1       3.708  -1.911   0.175  0.00  0.00    +0.199 A 
ATOM     11  O   UNL     1       3.635  -0.584  -0.053  0.00  0.00    -0.450 OA
ATOM     12  C   UNL     1       4.894  -2.746   0.426  0.00  0.00    +0.287 C 
ATOM     13  O   UNL     1       6.037  -2.336   0.471  0.00  0.00    -0.266 OA
ATOM     14  N   UNL     1       4.528  -4.032   0.600  0.00  0.00    -0.253 N 
ATOM     15  C   UNL     1       3.063  -4.110   0.471  0.00  0.00    +0.150 C 
ENDROOT
BRANCH  14  16
ATOM     16  C   UNL     1       5.388  -5.104   0.858  0.00  0.00    +0.038 A 
ATOM     17  C   UNL     1       4.876  -6.386   1.010  0.00  0.00    +0.024 A 
ATOM     18  C   UNL     1       5.728  -7.442   1.264  0.00  0.00    +0.017 A 
ATOM     19  C   UNL     1       7.090  -7.225   1.368  0.00  0.00    +0.018 A 
ATOM     20  C   UNL     1       7.603  -5.949   1.217  0.00  0.00    +0.017 A 
ATOM     21  C   UNL     1       6.757  -4.889   0.956  0.00  0.00    +0.024 A 
ATOM     22 BR   UNL     1       8.254  -8.674   1.716  0.00  0.00    -0.050 Br
ENDBRANCH  14  16
BRANCH  15  23
ATOM     23  C   UNL     1       2.690  -5.011  -0.678  0.00  0.00    -0.022 A 
ATOM     24  C   UNL     1       3.448  -5.004  -1.835  0.00  0.00    +0.009 A 
ATOM     25  C   UNL     1       3.108  -5.828  -2.890  0.00  0.00    +0.046 A 
ATOM     26  C   UNL     1       2.004  -6.663  -2.789  0.00  0.00    +0.121 A 
ATOM     27  C   UNL     1       1.245  -6.668  -1.627  0.00  0.00    +0.046 A 
ATOM     28  C   UNL     1       1.593  -5.846  -0.573  0.00  0.00    +0.009 A 
BRANCH  26  29
ATOM     29  O   UNL     1       1.667  -7.474  -3.825  0.00  0.00    -0.483 OA
BRANCH  29  30
ATOM     30  C   UNL     1       0.519  -8.307  -3.651  0.00  0.00    +0.324 C 
BRANCH  30  31
ATOM     31  C   UNL     1       0.301  -9.129  -4.894  0.00  0.00    +0.248 C 
ATOM     32  O   UNL     1       1.055  -9.014  -5.838  0.00  0.00    -0.272 OA
ATOM     33  N   UNL     1      -0.732  -9.993  -4.959  0.00  0.00    -0.327 N 
ATOM     34  H   UNL     1      -1.335 -10.085  -4.205  0.00  0.00    +0.145 HD
ATOM     35  H   UNL     1      -0.872 -10.523  -5.759  0.00  0.00    +0.145 HD
ENDBRANCH  30  31
ENDBRANCH  29  30
ENDBRANCH  26  29
ENDBRANCH  15  23
TORSDOF 5
