REMARK  Name = ZINC20562136
REMARK  14 active torsions:
REMARK  status: ('A' for Active; 'I' for Inactive)
REMARK    1  A    between atoms: C_1  and  C_2
REMARK    2  A    between atoms: C_2  and  C_3
REMARK    3  A    between atoms: C_3  and  O_4
REMARK    4  A    between atoms: O_4  and  C_5
REMARK    5  A    between atoms: C_5  and  C_7
REMARK    6  A    between atoms: C_8  and  C_36
REMARK    7  A    between atoms: C_12  and  C_14
REMARK    8  A    between atoms: C_16  and  O_22
REMARK    9  A    between atoms: C_17  and  O_21
REMARK   10  A    between atoms: O_22  and  C_23
REMARK   11  A    between atoms: C_26  and  C_32
REMARK   12  A    between atoms: C_28  and  C_31
REMARK   13  A    between atoms: C_32  and  O_34
REMARK   14  A    between atoms: O_34  and  C_35
REMARK                            x       y       z     vdW  Elec       q    Type
REMARK                         _______ _______ _______ _____ _____    ______ ____
ROOT
ATOM      1  C   UNL     1      -0.724   1.576  -1.219  0.00  0.00    +0.065 C 
ATOM      2  C   UNL     1      -1.591   2.601  -1.161  0.00  0.00    +0.016 C 
ATOM      3  N   UNL     1      -1.851   3.220   0.029  0.00  0.00    -0.321 N 
ATOM      4  C   UNL     1      -1.572   2.598   1.216  0.00  0.00    +0.016 C 
ATOM      5  C   UNL     1      -0.704   1.565   1.260  0.00  0.00    +0.025 C 
ATOM      6  C   UNL     1      -0.013   1.086   0.008  0.00  0.00    +0.092 C 
ATOM      7  C   UNL     1      -0.420   0.906   2.469  0.00  0.00    +0.176 C 
ATOM      8  O   UNL     1       0.373  -0.014   2.475  0.00  0.00    -0.291 OA
ATOM      9  C   UNL     1      -1.082   1.320   3.755  0.00  0.00    +0.171 C 
ATOM     10  C   UNL     1      -2.453   1.925   3.438  0.00  0.00    +0.013 C 
ATOM     11  C   UNL     1      -2.257   3.091   2.466  0.00  0.00    +0.055 C 
ATOM     12  C   UNL     1      -3.105   2.434   4.726  0.00  0.00    +0.009 C 
ATOM     13  C   UNL     1      -2.280   3.071  -2.416  0.00  0.00    +0.061 C 
ATOM     14  H   UNL     1      -2.290   4.229   0.040  0.00  0.00    +0.152 HD
ENDROOT
BRANCH   6  15
ATOM     15  C   UNL     1       1.404   1.600  -0.003  0.00  0.00    -0.030 A 
ATOM     16  C   UNL     1       2.461   0.709  -0.012  0.00  0.00    +0.054 A 
ATOM     17  C   UNL     1       3.764   1.179  -0.027  0.00  0.00    +0.163 A 
ATOM     18  C   UNL     1       4.006   2.549  -0.021  0.00  0.00    +0.177 A 
ATOM     19  C   UNL     1       2.942   3.438  -0.007  0.00  0.00    +0.086 A 
ATOM     20  C   UNL     1       1.643   2.961   0.002  0.00  0.00    +0.028 A 
ATOM     21 CL   UNL     1       3.240   5.148   0.001  0.00  0.00    -0.080 Cl
BRANCH  18  22
ATOM     22  O   UNL     1       5.284   3.016  -0.030  0.00  0.00    -0.502 OA
ATOM     23  H   UNL     1       5.474   4.099  -0.026  0.00  0.00    +0.292 HD
ENDBRANCH  18  22
BRANCH  17  24
ATOM     24  O   UNL     1       4.804   0.303  -0.040  0.00  0.00    -0.491 OA
ATOM     25  C   UNL     1       4.481  -1.089  -0.045  0.00  0.00    +0.277 C 
ENDBRANCH  17  24
ENDBRANCH   6  15
BRANCH   1  26
ATOM     26  C   UNL     1      -0.477   0.947  -2.462  0.00  0.00    +0.338 C 
ATOM     27  O   UNL     1      -1.048   1.335  -3.464  0.00  0.00    -0.245 OA
BRANCH  26  28
ATOM     28  O   UNL     1       0.391  -0.084  -2.536  0.00  0.00    -0.461 OA
BRANCH  28  29
ATOM     29  C   UNL     1       0.593  -0.671  -3.823  0.00  0.00    +0.232 C 
BRANCH  29  31
ATOM     30  C   UNL     1       1.818  -2.444  -5.087  0.00  0.00    +0.007 C 
ATOM     31  C   UNL     1       1.603  -1.815  -3.709  0.00  0.00    +0.038 C 
ENDBRANCH  29  31
ENDBRANCH  28  29
ENDBRANCH  26  28
ENDBRANCH   1  26
BRANCH   9  32
ATOM     32  C   UNL     1      -1.256   0.115   4.644  0.00  0.00    +0.318 C 
ATOM     33  O   UNL     1      -2.362  -0.227   4.989  0.00  0.00    -0.250 OA
BRANCH  32  34
ATOM     34  O   UNL     1      -0.181  -0.579   5.051  0.00  0.00    -0.467 OA
ATOM     35  C   UNL     1      -0.424  -1.728   5.905  0.00  0.00    +0.280 C 
ENDBRANCH  32  34
ENDBRANCH   9  32
TORSDOF 9
