REMARK  Name = ZINC23590805
REMARK  7 active torsions:
REMARK  status: ('A' for Active; 'I' for Inactive)
REMARK    1  A    between atoms: C_1  and  C_2
REMARK    2  A    between atoms: C_3  and  N_11
REMARK    3  A    between atoms: C_7  and  N_8
REMARK    4  A    between atoms: C_12  and  C_14
REMARK    5  A    between atoms: C_14  and  S_15
REMARK    6  A    between atoms: S_15  and  C_16
REMARK    7  A    between atoms: C_26  and  C_30
REMARK                            x       y       z     vdW  Elec       q    Type
REMARK                         _______ _______ _______ _____ _____    ______ ____
ROOT
ATOM      1  C   UNL     1       7.694   5.553   1.221  0.00  0.00    +0.191 A 
ATOM      2  N   UNL     1       7.456   4.331   1.676  0.00  0.00    -0.207 NA
ATOM      3  C   UNL     1       6.278   3.720   1.579  0.00  0.00    +0.129 A 
ATOM      4  C   UNL     1       5.241   4.461   0.942  0.00  0.00    +0.051 A 
ATOM      5  C   UNL     1       3.872   4.029   0.709  0.00  0.00    -0.025 A 
ATOM      6  C   UNL     1       3.058   4.906   0.080  0.00  0.00    -0.004 A 
ATOM      7  S   UNL     1       4.062   6.337  -0.230  0.00  0.00    -0.073 S 
ATOM      8  C   UNL     1       5.569   5.761   0.481  0.00  0.00    +0.115 A 
ATOM      9  N   UNL     1       6.766   6.298   0.616  0.00  0.00    -0.214 NA
ATOM     10  C   UNL     1       1.617   4.710  -0.279  0.00  0.00    +0.046 C 
ATOM     11  C   UNL     1       1.284   3.216  -0.159  0.00  0.00    -0.009 C 
ATOM     12  C   UNL     1       1.824   2.700   1.179  0.00  0.00    +0.008 C 
ATOM     13  C   UNL     1       3.352   2.661   1.141  0.00  0.00    +0.037 C 
ATOM     14  C   UNL     1      -0.232   3.021  -0.214  0.00  0.00    +0.008 C 
ATOM     15  N   UNL     1       6.073   2.443   2.068  0.00  0.00    -0.343 N 
ATOM     16  H   UNL     1       5.085   1.968   1.970  0.00  0.00    +0.144 HD
ATOM     17  H   UNL     1       6.897   1.901   2.555  0.00  0.00    +0.144 HD
ENDROOT
BRANCH   1  18
ATOM     18  S   UNL     1       9.310   6.225   1.425  0.00  0.00    -0.077 S 
BRANCH  18  19
ATOM     19  C   UNL     1      10.121   4.844   2.269  0.00  0.00    +0.173 C 
BRANCH  19  21
ATOM     20  N   UNL     1      12.360   4.321   3.180  0.00  0.00    -0.285 N 
ATOM     21  C   UNL     1      11.557   5.203   2.553  0.00  0.00    +0.227 C 
ATOM     22  O   UNL     1      11.989   6.285   2.218  0.00  0.00    -0.275 OA
ATOM     23  H   UNL     1      11.948   3.374   3.558  0.00  0.00    +0.155 HD
BRANCH  20  26
ATOM     24  C   UNL     1      13.786   2.933   5.215  0.00  0.00    +0.048 C 
ATOM     25  C   UNL     1      14.452   3.955   4.331  0.00  0.00    +0.001 A 
ATOM     26  C   UNL     1      13.719   4.610   3.349  0.00  0.00    +0.038 A 
ATOM     27  C   UNL     1      14.335   5.555   2.540  0.00  0.00    +0.024 A 
ATOM     28  C   UNL     1      15.676   5.838   2.711  0.00  0.00    +0.004 A 
ATOM     29  C   UNL     1      16.405   5.181   3.684  0.00  0.00    +0.033 A 
ATOM     30  C   UNL     1      15.794   4.239   4.492  0.00  0.00    +0.131 A 
BRANCH  30  31
ATOM     31  N   UNL     1      16.578   3.538   5.533  0.00  0.00    +0.057 N 
ATOM     32  O   UNL     1      17.721   3.884   5.772  0.00  0.00    -0.126 OA
ATOM     33  O   UNL     1      16.080   2.614   6.151  0.00  0.00    -0.126 OA
ENDBRANCH  30  31
ENDBRANCH  20  26
ENDBRANCH  19  21
ENDBRANCH  18  19
ENDBRANCH   1  18
TORSDOF 5
