REMARK  Name = ZINC06002256
REMARK  4 active torsions:
REMARK  status: ('A' for Active; 'I' for Inactive)
REMARK    1  A    between atoms: C_1  and  C_2
REMARK    2  A    between atoms: C_2  and  S_3
REMARK    3  A    between atoms: S_3  and  C_4
REMARK    4  A    between atoms: C_15  and  C_17
REMARK                            x       y       z     vdW  Elec       q    Type
REMARK                         _______ _______ _______ _____ _____    ______ ____
ROOT
ATOM      1  C   UNL     1      -0.157   3.981  -5.198  0.00  0.00    +0.171 A 
ATOM      2  N   UNL     1      -1.488   4.253  -5.305  0.00  0.00    -0.302 N 
ATOM      3  H   UNL     1      -1.852   4.910  -6.109  0.00  0.00    +0.171 HD
ATOM      4  C   UNL     1      -2.362   3.718  -4.427  0.00  0.00    +0.258 A 
ATOM      5  O   UNL     1      -3.556   3.954  -4.516  0.00  0.00    -0.267 OA
ATOM      6  C   UNL     1      -1.873   2.888  -3.411  0.00  0.00    +0.069 A 
ATOM      7  C   UNL     1      -0.511   2.647  -3.343  0.00  0.00    +0.135 A 
ATOM      8  N   UNL     1       0.308   3.201  -4.243  0.00  0.00    -0.208 NA
ATOM      9  N   UNL     1      -0.009   1.836  -2.345  0.00  0.00    -0.302 N 
ATOM     10  C   UNL     1      -0.741   1.585  -1.216  0.00  0.00    +0.017 C 
ATOM     11  C   UNL     1      -2.077   1.781  -1.198  0.00  0.00    +0.024 C 
ATOM     12  C   UNL     1      -2.812   2.268  -2.420  0.00  0.00    +0.099 C 
ATOM     13  C   UNL     1      -2.827   1.540  -0.033  0.00  0.00    +0.162 C 
ATOM     14  O   UNL     1      -4.030   1.715  -0.053  0.00  0.00    -0.292 OA
ATOM     15  C   UNL     1      -2.172   1.070   1.236  0.00  0.00    +0.080 C 
ATOM     16  C   UNL     1      -0.727   1.579   1.268  0.00  0.00    +0.014 C 
ATOM     17  C   UNL     1      -0.013   1.086   0.008  0.00  0.00    +0.051 C 
ATOM     18  H   UNL     1       0.988   1.384  -2.452  0.00  0.00    +0.153 HD
ENDROOT
BRANCH  12  19
ATOM     19  C   UNL     1      -3.515   1.103  -3.069  0.00  0.00    +0.002 A 
ATOM     20  C   UNL     1      -4.842   0.909  -3.266  0.00  0.00    +0.012 A 
ATOM     21  C   UNL     1      -5.265  -0.247  -3.894  0.00  0.00    +0.008 A 
ATOM     22  C   UNL     1      -4.340  -1.158  -4.285  0.00  0.00    +0.045 A 
ATOM     23  S   UNL     1      -2.817  -0.383  -3.770  0.00  0.00    -0.101 S 
ENDBRANCH  12  19
BRANCH   1  24
ATOM     24  S   UNL     1       0.964   4.687  -6.359  0.00  0.00    -0.088 S 
BRANCH  24  26
ATOM     25  C   UNL     1       3.676   4.494  -6.624  0.00  0.00    +0.016 C 
ATOM     26  C   UNL     1       2.524   4.004  -5.745  0.00  0.00    +0.074 C 
ENDBRANCH  24  26
ENDBRANCH   1  24
TORSDOF 3
