REMARK  Name = ZINC14140658
REMARK  10 active torsions:
REMARK  status: ('A' for Active; 'I' for Inactive)
REMARK    1  A    between atoms: C_1  and  C_2
REMARK    2  A    between atoms: C_2  and  C_4
REMARK    3  A    between atoms: C_2  and  N_14
REMARK    4  A    between atoms: C_7  and  S_10
REMARK    5  A    between atoms: S_10  and  N_13
REMARK    6  A    between atoms: C_15  and  C_17
REMARK    7  A    between atoms: C_17  and  S_18
REMARK    8  A    between atoms: S_18  and  C_19
REMARK    9  A    between atoms: C_21  and  C_30
REMARK   10  A    between atoms: C_22  and  C_24
REMARK                            x       y       z     vdW  Elec       q    Type
REMARK                         _______ _______ _______ _____ _____    ______ ____
ROOT
ATOM      1  C   UNL     1      -5.159   6.406   4.837  0.00  0.00    +0.174 C 
ENDROOT
BRANCH   1   3
ATOM      2  N   UNL     1      -3.817   4.526   3.954  0.00  0.00    -0.308 N 
ATOM      3  C   UNL     1      -4.771   4.950   4.806  0.00  0.00    +0.224 C 
ATOM      4  O   UNL     1      -5.317   4.161   5.547  0.00  0.00    -0.275 OA
ATOM      5  H   UNL     1      -3.380   5.157   3.361  0.00  0.00    +0.149 HD
BRANCH   2   7
ATOM      6  C   UNL     1      -2.390   2.839   5.003  0.00  0.00    +0.033 C 
ATOM      7  C   UNL     1      -3.439   3.110   3.923  0.00  0.00    +0.100 C 
BRANCH   7   8
ATOM      8  C   UNL     1      -2.867   2.772   2.570  0.00  0.00    -0.027 A 
ATOM      9  C   UNL     1      -3.181   1.568   1.968  0.00  0.00    +0.007 A 
ATOM     10  C   UNL     1      -2.657   1.258   0.728  0.00  0.00    +0.029 A 
ATOM     11  C   UNL     1      -1.818   2.152   0.089  0.00  0.00    +0.105 A 
ATOM     12  C   UNL     1      -1.500   3.354   0.693  0.00  0.00    +0.029 A 
ATOM     13  C   UNL     1      -2.028   3.666   1.931  0.00  0.00    +0.007 A 
BRANCH  11  14
ATOM     14  S   UNL     1      -1.150   1.757  -1.493  0.00  0.00    +0.056 S 
ATOM     15  O   UNL     1      -1.160   0.340  -1.595  0.00  0.00    -0.153 OA
ATOM     16  O   UNL     1       0.039   2.522  -1.634  0.00  0.00    -0.153 OA
BRANCH  14  17
ATOM     17  N   UNL     1      -2.214   2.321  -2.629  0.00  0.00    -0.204 NA
ATOM     18  H   UNL     1      -3.026   2.772  -2.351  0.00  0.00    +0.144 HD
ATOM     19  H   UNL     1      -2.025   2.201  -3.573  0.00  0.00    +0.144 HD
ENDBRANCH  14  17
ENDBRANCH  11  14
ENDBRANCH   7   8
ENDBRANCH   2   7
ENDBRANCH   1   3
BRANCH   1  20
ATOM     20  S   UNL     1      -6.456   6.658   6.074  0.00  0.00    -0.058 S 
BRANCH  20  21
ATOM     21  C   UNL     1      -6.710   8.393   5.903  0.00  0.00    +0.258 A 
ATOM     22  N   UNL     1      -7.570   9.104   6.590  0.00  0.00    -0.203 NA
ATOM     23  C   UNL     1      -7.487  10.392   6.191  0.00  0.00    +0.118 A 
ATOM     24  C   UNL     1      -6.522  10.452   5.209  0.00  0.00    +0.164 A 
ATOM     25  O   UNL     1      -6.048   9.194   5.052  0.00  0.00    -0.430 OA
BRANCH  24  26
ATOM     26  C   UNL     1      -6.085  11.655   4.476  0.00  0.00    +0.020 A 
ATOM     27  C   UNL     1      -7.031  12.522   3.921  0.00  0.00    +0.011 A 
ATOM     28  C   UNL     1      -6.615  13.647   3.242  0.00  0.00    +0.001 A 
ATOM     29  C   UNL     1      -5.264  13.914   3.099  0.00  0.00    +0.000 A 
ATOM     30  C   UNL     1      -4.322  13.058   3.641  0.00  0.00    +0.001 A 
ATOM     31  C   UNL     1      -4.723  11.931   4.328  0.00  0.00    +0.011 A 
ENDBRANCH  24  26
BRANCH  23  32
ATOM     32  C   UNL     1      -8.285  11.527   6.711  0.00  0.00    +0.004 A 
ATOM     33  C   UNL     1      -7.674  12.755   6.962  0.00  0.00    +0.010 A 
ATOM     34  C   UNL     1      -8.423  13.810   7.442  0.00  0.00    +0.001 A 
ATOM     35  C   UNL     1      -9.776  13.648   7.684  0.00  0.00    +0.000 A 
ATOM     36  C   UNL     1     -10.387  12.430   7.441  0.00  0.00    +0.001 A 
ATOM     37  C   UNL     1      -9.649  11.370   6.956  0.00  0.00    +0.010 A 
ENDBRANCH  23  32
ENDBRANCH  20  21
ENDBRANCH   1  20
TORSDOF 9
