REMARK  Name = ZINC01742495
REMARK  7 active torsions:
REMARK  status: ('A' for Active; 'I' for Inactive)
REMARK    1  A    between atoms: C_1  and  C_2
REMARK    2  A    between atoms: N_4  and  C_5
REMARK    3  A    between atoms: C_8  and  N_11
REMARK    4  A    between atoms: N_11  and  C_12
REMARK    5  A    between atoms: C_13  and  C_14
REMARK    6  A    between atoms: C_13  and  C_16
REMARK    7  A    between atoms: C_18  and  C_21
REMARK                            x       y       z     vdW  Elec       q    Type
REMARK                         _______ _______ _______ _____ _____    ______ ____
ROOT
ATOM      1  C   UNL     1       2.067  -8.596   0.137  0.00  0.00    +0.093 C 
ATOM      2  C   UNL     1       2.292  -7.251   0.146  0.00  0.00    +0.098 C 
ENDROOT
BRANCH   2   3
ATOM      3  C   UNL     1       1.169  -6.317   0.352  0.00  0.00    +0.120 A 
ATOM      4  N   UNL     1       1.176  -4.993   0.390  0.00  0.00    -0.238 NA
ATOM      5  C   UNL     1       0.064  -4.307   0.592  0.00  0.00    +0.086 A 
ATOM      6  C   UNL     1      -1.120  -4.978   0.754  0.00  0.00    +0.075 A 
ATOM      7  S   UNL     1      -0.564  -6.671   0.611  0.00  0.00    -0.074 S 
BRANCH   5   8
ATOM      8  C   UNL     1       0.096  -2.826   0.636  0.00  0.00    +0.086 A 
ATOM      9  C   UNL     1       1.276  -2.152   0.475  0.00  0.00    +0.028 A 
ATOM     10  C   UNL     1       1.252  -0.689   0.528  0.00  0.00    +0.019 A 
ATOM     11  C   UNL     1       2.432   0.048   0.368  0.00  0.00    +0.026 A 
ATOM     12  C   UNL     1       2.389   1.423   0.421  0.00  0.00    +0.019 A 
ATOM     13  C   UNL     1       1.183   2.079   0.632  0.00  0.00    +0.019 A 
ATOM     14  C   UNL     1       0.014   1.366   0.790  0.00  0.00    +0.048 A 
ATOM     15  C   UNL     1       0.032  -0.023   0.741  0.00  0.00    +0.139 A 
ATOM     16  O   UNL     1      -1.113  -0.721   0.896  0.00  0.00    -0.422 OA
ATOM     17  C   UNL     1      -1.135  -2.061   0.854  0.00  0.00    +0.347 A 
ATOM     18  O   UNL     1      -2.191  -2.650   0.999  0.00  0.00    -0.244 OA
ATOM     19 BR   UNL     1       3.980   2.423   0.206  0.00  0.00    -0.050 Br
ENDBRANCH   5   8
ENDBRANCH   2   3
BRANCH   1  20
ATOM     20  N   UNL     1       3.107  -9.461  -0.054  0.00  0.00    -0.319 N 
ATOM     21  H   UNL     1       4.126  -9.072  -0.200  0.00  0.00    +0.152 HD
BRANCH  20  25
ATOM     22  C   UNL     1       2.420 -13.572  -0.083  0.00  0.00    +0.033 A 
ATOM     23  C   UNL     1       3.707 -13.081  -0.267  0.00  0.00    +0.025 A 
ATOM     24  C   UNL     1       3.934 -11.720  -0.258  0.00  0.00    +0.025 A 
ATOM     25  C   UNL     1       2.877 -10.840  -0.064  0.00  0.00    +0.031 A 
ATOM     26  C   UNL     1       1.591 -11.331   0.127  0.00  0.00    +0.025 A 
ATOM     27  C   UNL     1       1.363 -12.692   0.111  0.00  0.00    +0.025 A 
BRANCH  22  31
ATOM     28  C   UNL     1       0.730 -16.913  -0.481  0.00  0.00    +0.109 C 
ATOM     29  C   UNL     1       1.029 -15.439  -0.578  0.00  0.00    +0.214 C 
ATOM     30  O   UNL     1       0.226 -14.690  -1.093  0.00  0.00    -0.276 OA
ATOM     31  N   UNL     1       2.189 -14.953  -0.093  0.00  0.00    -0.286 N 
ATOM     32  H   UNL     1       2.954 -15.641   0.295  0.00  0.00    +0.155 HD
ENDBRANCH  22  31
ENDBRANCH  20  25
ENDBRANCH   1  20
BRANCH   2  33
ATOM     33  C   UNL     1       3.618  -6.746  -0.044  0.00  0.00    +0.103 C 
ATOM     34  N   UNL     1       4.670  -6.345  -0.195  0.00  0.00    -0.191 NA
ENDBRANCH   2  33
TORSDOF 6
