REMARK  Name = ZINC64227712
REMARK  11 active torsions:
REMARK  status: ('A' for Active; 'I' for Inactive)
REMARK    1  A    between atoms: C_1  and  C_2
REMARK    2  A    between atoms: C_4  and  C_37
REMARK    3  A    between atoms: N_6  and  C_32
REMARK    4  A    between atoms: C_7  and  N_20
REMARK    5  A    between atoms: C_9  and  C_11
REMARK    6  A    between atoms: C_21  and  C_23
REMARK    7  A    between atoms: C_27  and  N_29
REMARK    8  A    between atoms: C_32  and  C_33
REMARK    9  A    between atoms: C_33  and  C_34
REMARK   10  A    between atoms: C_34  and  O_35
REMARK   11  A    between atoms: O_35  and  C_36
REMARK                            x       y       z     vdW  Elec       q    Type
REMARK                         _______ _______ _______ _____ _____    ______ ____
ROOT
ATOM      1  C   UNL     1      -0.479   1.122   0.272  0.00  0.00    +0.009 C 
ATOM      2  C   UNL     1      -0.277  -0.354  -0.076  0.00  0.00    +0.013 C 
ATOM      3  C   UNL     1       0.802  -0.504  -1.170  0.00  0.00    +0.059 C 
ATOM      4  N   UNL     1       2.059  -0.765  -0.423  0.00  0.00    -0.281 NA
ATOM      5  C   UNL     1       1.646  -1.668   0.682  0.00  0.00    +0.151 C 
ATOM      6  C   UNL     1       0.276  -1.121   1.143  0.00  0.00    +0.071 C 
ATOM      7  C   UNL     1       0.920   0.786  -1.984  0.00  0.00    +0.024 C 
ENDROOT
BRANCH   6   8
ATOM      8  C   UNL     1      -0.660  -2.272   1.516  0.00  0.00    +0.180 C 
ATOM      9  N   UNL     1      -1.970  -1.745   1.921  0.00  0.00    -0.363 N 
ATOM     10  C   UNL     1      -2.175  -2.114   3.153  0.00  0.00    +0.060 A 
ATOM     11  C   UNL     1      -3.287  -1.895   4.089  0.00  0.00    +0.027 A 
ATOM     12  C   UNL     1      -3.220  -2.411   5.332  0.00  0.00    +0.002 A 
ATOM     13  C   UNL     1      -2.119  -3.159   5.785  0.00  0.00    +0.002 A 
ATOM     14  C   UNL     1      -1.047  -3.418   5.008  0.00  0.00    +0.027 A 
ATOM     15  C   UNL     1      -1.010  -2.906   3.631  0.00  0.00    +0.060 A 
ATOM     16  N   UNL     1      -0.129  -2.997   2.677  0.00  0.00    -0.363 N 
ATOM     17  H   UNL     1      -2.571  -1.218   1.372  0.00  0.00    +0.162 HD
ATOM     18  H   UNL     1       0.723  -3.460   2.724  0.00  0.00    +0.162 HD
ENDBRANCH   6   8
BRANCH   5  19
ATOM     19  N   UNL     1       1.510  -3.043   0.194  0.00  0.00    -0.295 N 
ATOM     20  C   UNL     1       2.437  -3.967   0.517  0.00  0.00    +0.245 C 
ATOM     21  O   UNL     1       3.385  -3.660   1.213  0.00  0.00    -0.270 OA
ATOM     22  H   UNL     1       0.754  -3.288  -0.361  0.00  0.00    +0.151 HD
BRANCH  20  23
ATOM     23  C   UNL     1       2.299  -5.355   0.025  0.00  0.00    +0.039 A 
ATOM     24  C   UNL     1       1.215  -5.709  -0.780  0.00  0.00    +0.013 A 
ATOM     25  C   UNL     1       1.093  -7.005  -1.236  0.00  0.00    +0.003 A 
ATOM     26  C   UNL     1       2.042  -7.953  -0.898  0.00  0.00    +0.033 A 
ATOM     27  C   UNL     1       3.119  -7.609  -0.101  0.00  0.00    +0.127 A 
ATOM     28  C   UNL     1       3.256  -6.314   0.357  0.00  0.00    +0.045 A 
BRANCH  27  29
ATOM     29  N   UNL     1       4.130  -8.629   0.256  0.00  0.00    +0.056 N 
ATOM     30  O   UNL     1       4.014  -9.763  -0.149  0.00  0.00    -0.126 OA
ATOM     31  O   UNL     1       5.072  -8.330   0.953  0.00  0.00    -0.126 OA
ENDBRANCH  27  29
ENDBRANCH  20  23
ENDBRANCH   5  19
BRANCH   4  32
ATOM     32  C   UNL     1       3.059  -1.410  -1.284  0.00  0.00    +0.089 C 
BRANCH  32  33
ATOM     33  C   UNL     1       4.436  -1.317  -0.624  0.00  0.00    +0.043 C 
BRANCH  33  34
ATOM     34  C   UNL     1       5.455  -2.098  -1.457  0.00  0.00    +0.160 C 
BRANCH  34  35
ATOM     35  O   UNL     1       6.741  -2.012  -0.841  0.00  0.00    -0.383 OA
ATOM     36  C   UNL     1       7.771  -2.711  -1.543  0.00  0.00    +0.193 C 
ENDBRANCH  34  35
ENDBRANCH  33  34
ENDBRANCH  32  33
ENDBRANCH   4  32
TORSDOF 8
