REMARK  Name = ZINC05224896
REMARK  12 active torsions:
REMARK  status: ('A' for Active; 'I' for Inactive)
REMARK    1  A    between atoms: C_1  and  C_2
REMARK    2  A    between atoms: C_2  and  C_3
REMARK    3  A    between atoms: C_2  and  C_4
REMARK    4  A    between atoms: C_4  and  C_5
REMARK    5  A    between atoms: C_5  and  O_7
REMARK    6  A    between atoms: O_7  and  C_8
REMARK    7  A    between atoms: C_10  and  N_74
REMARK    8  A    between atoms: C_16  and  C_19
REMARK    9  A    between atoms: C_17  and  O_18
REMARK   10  A    between atoms: C_20  and  C_21
REMARK   11  A    between atoms: C_30  and  C_31
REMARK   12  A    between atoms: C_30  and  C_32
REMARK                            x       y       z     vdW  Elec       q    Type
REMARK                         _______ _______ _______ _____ _____    ______ ____
ROOT
ATOM      1  C   UNL     1       0.136  -0.422   0.099  0.00  0.00    +0.210 C 
ATOM      2  C   UNL     1      -1.300  -0.551   0.614  0.00  0.00    +0.015 C 
ATOM      3  C   UNL     1      -2.250   0.091  -0.365  0.00  0.00    +0.026 A 
ATOM      4  C   UNL     1      -1.873   0.355  -1.671  0.00  0.00    +0.127 A 
ATOM      5  C   UNL     1      -2.778   0.945  -2.554  0.00  0.00    +0.047 A 
ATOM      6  C   UNL     1      -4.046   1.273  -2.141  0.00  0.00    +0.015 A 
ATOM      7  C   UNL     1      -4.438   1.014  -0.822  0.00  0.00    +0.017 A 
ATOM      8  C   UNL     1      -3.527   0.418   0.066  0.00  0.00    +0.129 A 
ATOM      9  O   UNL     1      -0.628   0.059  -2.128  0.00  0.00    -0.482 OA
ATOM     10  C   UNL     1       0.162  -0.860  -1.371  0.00  0.00    +0.140 C 
ATOM     11  C   UNL     1       1.602  -0.849  -1.887  0.00  0.00    +0.059 C 
ATOM     12  C   UNL     1      -0.422  -2.268  -1.500  0.00  0.00    +0.059 C 
ENDROOT
BRANCH   2  18
ATOM     13  C   UNL     1      -1.419   1.580   1.759  0.00  0.00    -0.049 C 
ATOM     14  C   UNL     1      -1.599   2.235   3.131  0.00  0.00    +0.141 C 
ATOM     15  O   UNL     1      -0.560   1.789   4.007  0.00  0.00    -0.383 OA
ATOM     16  C   UNL     1      -0.527   0.370   4.184  0.00  0.00    +0.141 C 
ATOM     17  C   UNL     1      -0.336  -0.304   2.822  0.00  0.00    -0.049 C 
ATOM     18  N   UNL     1      -1.437   0.112   1.929  0.00  0.00    +0.390 N 
ATOM     19  H   UNL     1      -2.332  -0.165   2.350  0.00  0.00    -0.081 HD
ENDBRANCH   2  18
BRANCH   8  20
ATOM     20  O   UNL     1      -3.897   0.162   1.346  0.00  0.00    -0.506 OA
ATOM     21  H   UNL     1      -3.796   0.916   1.943  0.00  0.00    +0.292 HD
ENDBRANCH   8  20
BRANCH   7  22
ATOM     22  C   UNL     1      -5.790   1.361  -0.370  0.00  0.00    +0.016 C 
ATOM     23  C   UNL     1      -6.662   1.935  -1.228  0.00  0.00    +0.068 C 
BRANCH  23  24
ATOM     24  C   UNL     1      -7.969   2.271  -0.792  0.00  0.00    +0.240 C 
ATOM     25  O   UNL     1      -8.274   2.134   0.379  0.00  0.00    -0.271 OA
ATOM     26  N   UNL     1      -8.874   2.742  -1.673  0.00  0.00    -0.294 N 
ATOM     27  C   UNL     1      -8.497   3.025  -3.067  0.00  0.00    +0.136 C 
ATOM     28  C   UNL     1      -9.513   2.331  -3.988  0.00  0.00    +0.179 C 
ATOM     29  O   UNL     1     -10.835   2.711  -3.599  0.00  0.00    -0.377 OA
ATOM     30  C   UNL     1     -11.194   2.306  -2.276  0.00  0.00    +0.179 C 
ATOM     31  C   UNL     1     -10.266   2.993  -1.268  0.00  0.00    +0.136 C 
ENDBRANCH  23  24
ENDBRANCH   7  22
BRANCH   1  32
ATOM     32  O   UNL     1       0.572   0.959   0.206  0.00  0.00    -0.459 OA
BRANCH  32  33
ATOM     33  C   UNL     1       1.885   1.171   0.392  0.00  0.00    +0.308 C 
ATOM     34  O   UNL     1       2.644   0.233   0.463  0.00  0.00    -0.251 OA
BRANCH  33  35
ATOM     35  C   UNL     1       2.411   2.577   0.513  0.00  0.00    +0.123 C 
BRANCH  35  37
ATOM     36  C   UNL     1       4.596   1.962  -0.531  0.00  0.00    +0.008 C 
ATOM     37  C   UNL     1       3.927   2.539   0.718  0.00  0.00    -0.007 C 
ATOM     38  C   UNL     1       4.445   3.957   0.965  0.00  0.00    +0.008 C 
ENDBRANCH  35  37
ENDBRANCH  33  35
ENDBRANCH  32  33
ENDBRANCH   1  32
TORSDOF 8
