REMARK  Name = ZINC61458525
REMARK  14 active torsions:
REMARK  status: ('A' for Active; 'I' for Inactive)
REMARK    1  A    between atoms: C_1  and  C_2
REMARK    2  A    between atoms: C_3  and  C_4
REMARK    3  A    between atoms: C_7  and  O_12
REMARK    4  A    between atoms: C_8  and  O_10
REMARK    5  A    between atoms: O_10  and  C_11
REMARK    6  A    between atoms: O_12  and  C_13
REMARK    7  A    between atoms: C_13  and  C_14
REMARK    8  A    between atoms: N_16  and  C_17
REMARK    9  A    between atoms: C_17  and  C_18
REMARK   10  A    between atoms: C_18  and  C_19
REMARK   11  A    between atoms: C_19  and  C_20
REMARK   12  A    between atoms: C_22  and  C_25
REMARK   13  A    between atoms: C_25  and  C_26
REMARK   14  A    between atoms: C_25  and  C_27
REMARK                            x       y       z     vdW  Elec       q    Type
REMARK                         _______ _______ _______ _____ _____    ______ ____
ROOT
ATOM      1  C   UNL     1       0.141  -8.417  -0.096  0.00  0.00    +0.251 C 
ATOM      2  O   UNL     1       0.702  -8.870  -1.071  0.00  0.00    -0.272 OA
ATOM      3  N   UNL     1      -0.379  -9.247   0.829  0.00  0.00    -0.312 N 
ATOM      4  H   UNL     1      -0.828  -8.884   1.609  0.00  0.00    +0.149 HD
ENDROOT
BRANCH   1   5
ATOM      5  C   UNL     1       0.024  -6.925   0.080  0.00  0.00    +0.324 C 
BRANCH   5   6
ATOM      6  O   UNL     1       0.647  -6.264  -1.024  0.00  0.00    -0.479 OA
BRANCH   6  10
ATOM      7  C   UNL     1       0.596  -2.131  -1.010  0.00  0.00    -0.022 A 
ATOM      8  C   UNL     1       0.006  -2.845   0.035  0.00  0.00    +0.012 A 
ATOM      9  C   UNL     1       0.025  -4.224   0.026  0.00  0.00    +0.050 A 
ATOM     10  C   UNL     1       0.630  -4.905  -1.020  0.00  0.00    +0.163 A 
ATOM     11  C   UNL     1       1.220  -4.199  -2.066  0.00  0.00    +0.162 A 
ATOM     12  C   UNL     1       1.199  -2.817  -2.065  0.00  0.00    +0.057 A 
BRANCH   7  15
ATOM     13  C   UNL     1      -0.018   1.503   0.010  0.00  0.00    +0.035 C 
ATOM     14  C   UNL     1       0.002  -0.004   0.002  0.00  0.00    -0.030 C 
ATOM     15  C   UNL     1       0.576  -0.654  -1.002  0.00  0.00    +0.003 C 
ENDBRANCH   7  15
BRANCH  11  16
ATOM     16  O   UNL     1       1.812  -4.870  -3.090  0.00  0.00    -0.491 OA
ATOM     17  C   UNL     1       2.397  -4.083  -4.129  0.00  0.00    +0.277 C 
ENDBRANCH  11  16
ENDBRANCH   6  10
ENDBRANCH   5   6
ENDBRANCH   1   5
BRANCH   3  18
ATOM     18  C   UNL     1      -0.266 -10.698   0.658  0.00  0.00    +0.105 C 
BRANCH  18  19
ATOM     19  C   UNL     1      -0.933 -11.404   1.840  0.00  0.00    +0.028 C 
BRANCH  19  20
ATOM     20  C   UNL     1      -0.814 -12.919   1.661  0.00  0.00    +0.100 C 
BRANCH  20  21
ATOM     21  C   UNL     1      -1.471 -13.615   2.825  0.00  0.00    +0.227 A 
ATOM     22  N   UNL     1      -2.721 -13.983   2.889  0.00  0.00    -0.196 NA
ATOM     23  C   UNL     1      -2.966 -14.572   4.065  0.00  0.00    +0.174 A 
ATOM     24  N   UNL     1      -1.870 -14.587   4.766  0.00  0.00    -0.061 NA
ATOM     25  O   UNL     1      -0.871 -13.968   3.969  0.00  0.00    -0.338 OA
BRANCH  23  26
ATOM     26  C   UNL     1      -4.296 -15.128   4.506  0.00  0.00    +0.054 C 
ATOM     27  C   UNL     1      -4.154 -16.625   4.790  0.00  0.00    +0.015 C 
ATOM     28  C   UNL     1      -4.754 -14.409   5.776  0.00  0.00    +0.015 C 
ENDBRANCH  23  26
ENDBRANCH  20  21
ENDBRANCH  19  20
ENDBRANCH  18  19
ENDBRANCH   3  18
TORSDOF 10
