REMARK  Name = ZINC09265301
REMARK  6 active torsions:
REMARK  status: ('A' for Active; 'I' for Inactive)
REMARK    1  A    between atoms: C_4  and  N_7
REMARK    2  A    between atoms: C_8  and  C_10
REMARK    3  A    between atoms: C_10  and  N_11
REMARK    4  A    between atoms: C_13  and  C_20
REMARK    5  A    between atoms: N_24  and  C_28
REMARK    6  A    between atoms: C_28  and  C_29
REMARK                            x       y       z     vdW  Elec       q    Type
REMARK                         _______ _______ _______ _____ _____    ______ ____
ROOT
ATOM      1  N   UNL     1      -2.574   4.570  -1.072  0.00  0.00    -0.337 N 
ATOM      2  C   UNL     1      -3.125   3.335  -0.952  0.00  0.00    +0.095 A 
ATOM      3  C   UNL     1      -2.140   2.410  -0.747  0.00  0.00    +0.002 A 
ATOM      4  C   UNL     1      -0.864   3.150  -0.753  0.00  0.00    +0.007 A 
ATOM      5  C   UNL     1      -1.200   4.497  -0.963  0.00  0.00    +0.050 A 
ATOM      6  C   UNL     1      -0.190   5.451  -1.026  0.00  0.00    +0.026 A 
ATOM      7  C   UNL     1       1.126   5.069  -0.877  0.00  0.00    +0.002 A 
ATOM      8  C   UNL     1       1.456   3.739  -0.665  0.00  0.00    +0.001 A 
ATOM      9  C   UNL     1       0.469   2.780  -0.599  0.00  0.00    +0.010 A 
ENDROOT
BRANCH   3  10
ATOM     10  C   UNL     1      -2.316   0.970  -0.557  0.00  0.00    +0.038 C 
ATOM     11  C   UNL     1      -3.348   0.504   0.199  0.00  0.00    +0.098 C 
ATOM     12  C   UNL     1      -4.249   1.274   0.983  0.00  0.00    +0.269 C 
ATOM     13  O   UNL     1      -4.246   2.485   1.111  0.00  0.00    -0.268 OA
ATOM     14  N   UNL     1      -5.108   0.410   1.560  0.00  0.00    -0.216 N 
ATOM     15  C   UNL     1      -4.803  -0.845   1.188  0.00  0.00    +0.313 C 
ATOM     16  O   UNL     1      -5.399  -1.843   1.546  0.00  0.00    -0.252 OA
ATOM     17  N   UNL     1      -3.744  -0.833   0.357  0.00  0.00    -0.265 N 
ATOM     18  H   UNL     1      -3.329  -1.606  -0.056  0.00  0.00    +0.157 HD
BRANCH  14  19
ATOM     19  C   UNL     1      -6.205   0.782   2.456  0.00  0.00    +0.153 C 
BRANCH  19  20
ATOM     20  C   UNL     1      -7.452   1.030   1.648  0.00  0.00    -0.029 A 
ATOM     21  C   UNL     1      -7.726   2.298   1.171  0.00  0.00    +0.008 A 
ATOM     22  C   UNL     1      -8.867   2.526   0.426  0.00  0.00    +0.038 A 
ATOM     23  C   UNL     1      -9.741   1.485   0.164  0.00  0.00    +0.123 A 
ATOM     24  C   UNL     1      -9.469   0.215   0.646  0.00  0.00    +0.038 A 
ATOM     25  C   UNL     1      -8.325  -0.011   1.387  0.00  0.00    +0.008 A 
ATOM     26  F   UNL     1     -10.860   1.707  -0.561  0.00  0.00    -0.205 F 
ENDBRANCH  19  20
ENDBRANCH  14  19
ENDBRANCH   3  10
BRANCH   1  27
ATOM     27  C   UNL     1      -3.330   5.804  -1.302  0.00  0.00    +0.217 C 
BRANCH  27  29
ATOM     28  N   UNL     1      -4.032   7.185  -3.230  0.00  0.00    -0.284 N 
ATOM     29  C   UNL     1      -3.384   6.092  -2.780  0.00  0.00    +0.237 C 
ATOM     30  O   UNL     1      -2.843   5.342  -3.564  0.00  0.00    -0.274 OA
ATOM     31  H   UNL     1      -4.397   7.826  -2.600  0.00  0.00    +0.155 HD
BRANCH  28  35
ATOM     32  C   UNL     1      -4.467   7.808  -7.326  0.00  0.00    +0.000 A 
ATOM     33  C   UNL     1      -4.462   6.521  -6.821  0.00  0.00    +0.002 A 
ATOM     34  C   UNL     1      -4.318   6.311  -5.463  0.00  0.00    +0.023 A 
ATOM     35  C   UNL     1      -4.178   7.394  -4.606  0.00  0.00    +0.033 A 
ATOM     36  C   UNL     1      -4.189   8.686  -5.115  0.00  0.00    +0.023 A 
ATOM     37  C   UNL     1      -4.328   8.889  -6.474  0.00  0.00    +0.002 A 
ENDBRANCH  28  35
ENDBRANCH  27  29
ENDBRANCH   1  27
TORSDOF 6
