REMARK  Name = ZINC00377668
REMARK  7 active torsions:
REMARK  status: ('A' for Active; 'I' for Inactive)
REMARK    1  A    between atoms: C_1  and  C_2
REMARK    2  A    between atoms: C_2  and  C_3
REMARK    3  A    between atoms: C_2  and  C_4
REMARK    4  A    between atoms: C_2  and  C_5
REMARK    5  A    between atoms: C_12  and  N_24
REMARK    6  A    between atoms: C_13  and  C_22
REMARK    7  A    between atoms: C_14  and  C_16
REMARK                            x       y       z     vdW  Elec       q    Type
REMARK                         _______ _______ _______ _____ _____    ______ ____
ROOT
ATOM      1  C   UNL     1       0.919  -0.352  -2.071  0.00  0.00    +0.049 A 
ATOM      2  C   UNL     1       1.131  -1.677  -2.059  0.00  0.00    +0.050 A 
ATOM      3  C   UNL     1       1.994  -1.993  -3.132  0.00  0.00    +0.245 A 
ATOM      4  N   UNL     1       2.281  -0.888  -3.756  0.00  0.00    -0.135 NA
ATOM      5  N   UNL     1       1.612   0.165  -3.112  0.00  0.00    -0.277 N 
ATOM      6  H   UNL     1       1.643   1.100  -3.367  0.00  0.00    +0.189 HD
ATOM      7  O   UNL     1       2.399  -3.267  -3.381  0.00  0.00    -0.421 OA
ATOM      8  C   UNL     1       2.176  -4.188  -2.422  0.00  0.00    +0.201 C 
ATOM      9  C   UNL     1       1.364  -4.005  -1.359  0.00  0.00    +0.099 C 
ATOM     10  C   UNL     1       0.597  -2.729  -1.121  0.00  0.00    +0.108 C 
ENDROOT
BRANCH  10  11
ATOM     11  C   UNL     1      -0.868  -2.958  -1.395  0.00  0.00    +0.004 A 
ATOM     12  C   UNL     1      -1.893  -3.064  -0.516  0.00  0.00    +0.013 A 
ATOM     13  C   UNL     1      -3.171  -3.276  -0.999  0.00  0.00    +0.028 A 
ATOM     14  C   UNL     1      -3.360  -3.373  -2.339  0.00  0.00    +0.078 A 
ATOM     15  S   UNL     1      -1.701  -3.153  -2.961  0.00  0.00    -0.081 S 
ATOM     16 CL   UNL     1      -4.832  -3.635  -3.220  0.00  0.00    -0.076 Cl
ENDBRANCH  10  11
BRANCH   1  18
ATOM     17  C   UNL     1       0.205   1.918  -1.375  0.00  0.00    +0.017 C 
ATOM     18  C   UNL     1       0.060   0.419  -1.103  0.00  0.00    +0.004 C 
ATOM     19  C   UNL     1       0.506   0.116   0.329  0.00  0.00    +0.017 C 
ATOM     20  C   UNL     1      -1.403   0.008  -1.279  0.00  0.00    +0.017 C 
ENDBRANCH   1  18
BRANCH   8  21
ATOM     21  N   UNL     1       2.818  -5.395  -2.534  0.00  0.00    -0.328 N 
ATOM     22  H   UNL     1       3.409  -5.562  -3.284  0.00  0.00    +0.145 HD
ATOM     23  H   UNL     1       2.682  -6.082  -1.862  0.00  0.00    +0.145 HD
ENDBRANCH   8  21
BRANCH   9  24
ATOM     24  C   UNL     1       1.225  -5.071  -0.414  0.00  0.00    +0.101 C 
ATOM     25  N   UNL     1       1.115  -5.918   0.335  0.00  0.00    -0.191 NA
ENDBRANCH   9  24
TORSDOF 4
