REMARK  Name = ZINC13393261
REMARK  9 active torsions:
REMARK  status: ('A' for Active; 'I' for Inactive)
REMARK    1  A    between atoms: C_1  and  O_2
REMARK    2  A    between atoms: O_2  and  C_3
REMARK    3  A    between atoms: C_6  and  C_10
REMARK    4  A    between atoms: C_10  and  C_11
REMARK    5  A    between atoms: C_11  and  C_14
REMARK    6  A    between atoms: N_12  and  O_13
REMARK    7  A    between atoms: N_16  and  C_17
REMARK    8  A    between atoms: C_17  and  C_18
REMARK    9  A    between atoms: C_18  and  C_19
REMARK                            x       y       z     vdW  Elec       q    Type
REMARK                         _______ _______ _______ _____ _____    ______ ____
ROOT
ATOM      1  C   UNL     1       3.867  -1.871   6.511  0.00  0.00    +0.262 C 
ATOM      2  O   UNL     1       4.209  -1.008   7.296  0.00  0.00    -0.269 OA
ATOM      3  N   UNL     1       4.159  -3.163   6.761  0.00  0.00    -0.310 N 
ATOM      4  H   UNL     1       3.952  -3.843   6.101  0.00  0.00    +0.149 HD
ENDROOT
BRANCH   1   5
ATOM      5  C   UNL     1       3.132  -1.504   5.285  0.00  0.00    +0.145 C 
ATOM      6  N   UNL     1       2.939  -0.259   4.995  0.00  0.00    -0.087 NA
BRANCH   6   7
ATOM      7  O   UNL     1       3.336   0.750   5.906  0.00  0.00    -0.409 OA
ATOM      8  H   UNL     1       3.151   1.649   5.602  0.00  0.00    +0.328 HD
ENDBRANCH   6   7
BRANCH   5   9
ATOM      9  C   UNL     1       2.605  -2.581   4.372  0.00  0.00    +0.099 C 
BRANCH   9  13
ATOM     10  C   UNL     1       0.602  -0.781   1.052  0.00  0.00    +0.148 A 
ATOM     11  C   UNL     1       1.960  -1.057   0.978  0.00  0.00    +0.061 A 
ATOM     12  C   UNL     1       2.605  -1.639   2.053  0.00  0.00    +0.023 A 
ATOM     13  C   UNL     1       1.899  -1.946   3.202  0.00  0.00    -0.039 A 
ATOM     14  C   UNL     1       0.546  -1.672   3.278  0.00  0.00    +0.023 A 
ATOM     15  C   UNL     1      -0.103  -1.085   2.208  0.00  0.00    +0.061 A 
ATOM     16 BR   UNL     1      -1.952  -0.703   2.317  0.00  0.00    -0.046 Br
ATOM     17 BR   UNL     1       2.926  -0.639  -0.593  0.00  0.00    -0.046 Br
BRANCH  10  19
ATOM     18  C   UNL     1      -0.073   1.220  -0.041  0.00  0.00    +0.277 C 
ATOM     19  O   UNL     1      -0.035  -0.208  -0.003  0.00  0.00    -0.493 OA
ENDBRANCH  10  19
ENDBRANCH   9  13
ENDBRANCH   5   9
ENDBRANCH   1   5
BRANCH   3  20
ATOM     20  C   UNL     1       4.789  -3.539   8.029  0.00  0.00    +0.110 C 
BRANCH  20  21
ATOM     21  C   UNL     1       5.011  -5.053   8.058  0.00  0.00    +0.073 C 
BRANCH  21  22
ATOM     22  C   UNL     1       5.659  -5.440   9.362  0.00  0.00    +0.036 A 
ATOM     23  C   UNL     1       6.973  -5.416   9.641  0.00  0.00    +0.106 A 
ATOM     24  N   UNL     1       7.145  -5.833  10.907  0.00  0.00    -0.334 N 
ATOM     25  H   UNL     1       7.998  -5.911  11.361  0.00  0.00    +0.168 HD
ATOM     26  C   UNL     1       5.976  -6.119  11.431  0.00  0.00    +0.168 A 
ATOM     27  N   UNL     1       5.758  -6.578  12.719  0.00  0.00    -0.330 N 
ATOM     28  N   UNL     1       5.016  -5.881  10.498  0.00  0.00    -0.332 N 
ATOM     29  H   UNL     1       4.060  -6.001  10.610  0.00  0.00    +0.168 HD
ATOM     30  H   UNL     1       6.507  -6.715  13.319  0.00  0.00    +0.145 HD
ATOM     31  H   UNL     1       4.854  -6.763  13.021  0.00  0.00    +0.145 HD
ENDBRANCH  21  22
ENDBRANCH  20  21
ENDBRANCH   3  20
TORSDOF 8
