REMARK  Name = ZINC59117724
REMARK  9 active torsions:
REMARK  status: ('A' for Active; 'I' for Inactive)
REMARK    1  A    between atoms: C_1  and  C_2
REMARK    2  A    between atoms: C_2  and  C_3
REMARK    3  A    between atoms: C_3  and  C_4
REMARK    4  A    between atoms: C_4  and  C_5
REMARK    5  A    between atoms: C_5  and  N_6
REMARK    6  A    between atoms: C_15  and  C_17
REMARK    7  A    between atoms: N_19  and  C_20
REMARK    8  A    between atoms: C_20  and  C_21
REMARK    9  A    between atoms: C_30  and  C_33
REMARK                            x       y       z     vdW  Elec       q    Type
REMARK                         _______ _______ _______ _____ _____    ______ ____
ROOT
ATOM      1  C   UNL     1      -0.715  -6.573   3.737  0.00  0.00    +0.265 C 
ATOM      2  O   UNL     1      -0.792  -7.784   3.809  0.00  0.00    -0.268 OA
ATOM      3  N   UNL     1      -1.669  -5.803   4.298  0.00  0.00    -0.306 N 
ATOM      4  H   UNL     1      -1.607  -4.836   4.241  0.00  0.00    +0.149 HD
ENDROOT
BRANCH   1  14
ATOM      5  N   UNL     1       1.464  -4.020   2.365  0.00  0.00    -0.228 N 
ATOM      6  C   UNL     1       2.494  -4.642   1.755  0.00  0.00    +0.275 A 
ATOM      7  O   UNL     1       3.374  -4.002   1.209  0.00  0.00    -0.266 OA
ATOM      8  C   UNL     1       2.529  -6.111   1.764  0.00  0.00    +0.050 A 
ATOM      9  C   UNL     1       3.546  -6.847   1.164  0.00  0.00    +0.014 A 
ATOM     10  C   UNL     1       3.505  -8.224   1.217  0.00  0.00    +0.001 A 
ATOM     11  C   UNL     1       2.463  -8.879   1.861  0.00  0.00    +0.001 A 
ATOM     12  C   UNL     1       1.446  -8.168   2.462  0.00  0.00    +0.011 A 
ATOM     13  C   UNL     1       1.468  -6.778   2.420  0.00  0.00    +0.020 A 
ATOM     14  C   UNL     1       0.422  -5.945   3.036  0.00  0.00    +0.154 A 
ATOM     15  N   UNL     1       0.515  -4.640   2.958  0.00  0.00    -0.163 NA
BRANCH   5  16
ATOM     16  C   UNL     1       1.434  -2.555   2.353  0.00  0.00    +0.147 C 
BRANCH  16  17
ATOM     17  C   UNL     1       0.671  -2.071   1.118  0.00  0.00    +0.023 C 
BRANCH  17  18
ATOM     18  C   UNL     1       0.640  -0.541   1.106  0.00  0.00    +0.002 C 
BRANCH  18  20
ATOM     19  C   UNL     1      -0.154   1.473  -0.141  0.00  0.00    +0.004 C 
ATOM     20  C   UNL     1      -0.123  -0.057  -0.129  0.00  0.00    -0.003 C 
ENDBRANCH  18  20
ENDBRANCH  17  18
ENDBRANCH  16  17
ENDBRANCH   5  16
ENDBRANCH   1  14
BRANCH   3  21
ATOM     21  C   UNL     1      -2.797  -6.425   4.995  0.00  0.00    +0.141 C 
BRANCH  21  22
ATOM     22  C   UNL     1      -3.713  -5.352   5.526  0.00  0.00    -0.014 A 
ATOM     23  C   UNL     1      -3.515  -4.828   6.797  0.00  0.00    +0.010 A 
ATOM     24  C   UNL     1      -4.377  -3.845   7.247  0.00  0.00    +0.042 A 
ATOM     25  C   UNL     1      -5.409  -3.417   6.416  0.00  0.00    +0.099 A 
ATOM     26  N   UNL     1      -5.564  -3.943   5.211  0.00  0.00    -0.349 N 
ATOM     27  C   UNL     1      -4.753  -4.878   4.753  0.00  0.00    +0.089 A 
ATOM     28  N   UNL     1      -6.283  -2.431   6.856  0.00  0.00    -0.317 N 
ATOM     29  C   UNL     1      -6.212  -1.927   8.234  0.00  0.00    +0.107 C 
ATOM     30  C   UNL     1      -7.599  -2.044   8.874  0.00  0.00    +0.022 C 
ATOM     31  C   UNL     1      -8.624  -1.325   7.995  0.00  0.00    -0.011 C 
ATOM     32  C   UNL     1      -8.671  -1.989   6.616  0.00  0.00    +0.022 C 
ATOM     33  C   UNL     1      -7.293  -1.867   5.949  0.00  0.00    +0.107 C 
ATOM     34  C   UNL     1     -10.005  -1.411   8.648  0.00  0.00    +0.007 C 
ATOM     35  H   UNL     1      -6.290  -3.630   4.649  0.00  0.00    +0.167 HD
ENDBRANCH  21  22
ENDBRANCH   3  21
TORSDOF 7
