REMARK  Name = ZINC39940320
REMARK  6 active torsions:
REMARK  status: ('A' for Active; 'I' for Inactive)
REMARK    1  A    between atoms: C_1  and  C_2
REMARK    2  A    between atoms: C_3  and  C_29
REMARK    3  A    between atoms: C_6  and  S_8
REMARK    4  A    between atoms: S_8  and  C_9
REMARK    5  A    between atoms: C_14  and  C_21
REMARK    6  A    between atoms: C_29  and  C_30
REMARK                            x       y       z     vdW  Elec       q    Type
REMARK                         _______ _______ _______ _____ _____    ______ ____
ROOT
ATOM      1  C   UNL     1       1.994   2.582  -4.269  0.00  0.00    +0.182 C 
ATOM      2  C   UNL     1       2.896   3.137  -5.354  0.00  0.00    +0.050 C 
ATOM      3  C   UNL     1       3.824   2.276  -5.904  0.00  0.00    +0.013 A 
ATOM      4  C   UNL     1       4.702   2.719  -6.921  0.00  0.00    +0.019 A 
ATOM      5  C   UNL     1       5.620   1.838  -7.453  0.00  0.00    -0.017 A 
ATOM      6  C   UNL     1       5.694   0.510  -6.999  0.00  0.00    +0.010 A 
ATOM      7  C   UNL     1       4.873   0.039  -6.025  0.00  0.00    +0.024 A 
ATOM      8  C   UNL     1       3.911   0.883  -5.438  0.00  0.00    +0.042 A 
ATOM      9  N   UNL     1       3.111   0.407  -4.482  0.00  0.00    -0.284 N 
ATOM     10  C   UNL     1       2.186   1.133  -3.881  0.00  0.00    +0.236 C 
ATOM     11  O   UNL     1       1.489   0.636  -3.017  0.00  0.00    -0.274 OA
ATOM     12 CL   UNL     1       2.766   4.786  -5.881  0.00  0.00    -0.086 Cl
ATOM     13  H   UNL     1       3.214  -0.519  -4.215  0.00  0.00    +0.155 HD
ENDROOT
BRANCH   5  14
ATOM     14  C   UNL     1       6.542   2.298  -8.519  0.00  0.00    -0.018 A 
ATOM     15  C   UNL     1       6.484   3.614  -8.975  0.00  0.00    +0.008 A 
ATOM     16  C   UNL     1       7.344   4.037  -9.967  0.00  0.00    +0.001 A 
ATOM     17  C   UNL     1       8.264   3.157 -10.510  0.00  0.00    +0.000 A 
ATOM     18  C   UNL     1       8.326   1.850 -10.062  0.00  0.00    +0.001 A 
ATOM     19  C   UNL     1       7.475   1.418  -9.066  0.00  0.00    +0.008 A 
ENDBRANCH   5  14
BRANCH   1  20
ATOM     20  S   UNL     1       0.276   2.789  -4.813  0.00  0.00    -0.069 S 
BRANCH  20  26
ATOM     21  C   UNL     1      -0.004   1.256   0.058  0.00  0.00    +0.066 C 
ATOM     22  C   UNL     1      -0.740   1.666  -1.191  0.00  0.00    +0.050 A 
ATOM     23  C   UNL     1      -2.105   1.697  -1.198  0.00  0.00    +0.042 A 
ATOM     24  C   UNL     1      -2.771   2.083  -2.374  0.00  0.00    +0.256 A 
ATOM     25  N   UNL     1      -2.035   2.410  -3.458  0.00  0.00    -0.302 N 
ATOM     26  C   UNL     1      -0.676   2.361  -3.393  0.00  0.00    +0.170 A 
ATOM     27  N   UNL     1      -0.059   2.003  -2.283  0.00  0.00    -0.228 NA
ATOM     28  O   UNL     1      -3.989   2.121  -2.415  0.00  0.00    -0.267 OA
ATOM     29  H   UNL     1      -2.474   2.679  -4.281  0.00  0.00    +0.171 HD
BRANCH  23  30
ATOM     30  C   UNL     1      -2.886   1.323   0.036  0.00  0.00    +0.077 C 
BRANCH  30  31
ATOM     31  C   UNL     1      -3.262  -0.135  -0.031  0.00  0.00    -0.043 A 
ATOM     32  C   UNL     1      -4.397  -0.525  -0.716  0.00  0.00    +0.004 A 
ATOM     33  C   UNL     1      -4.742  -1.862  -0.777  0.00  0.00    +0.000 A 
ATOM     34  C   UNL     1      -3.952  -2.809  -0.153  0.00  0.00    +0.000 A 
ATOM     35  C   UNL     1      -2.816  -2.419   0.532  0.00  0.00    +0.000 A 
ATOM     36  C   UNL     1      -2.469  -1.082   0.589  0.00  0.00    +0.004 A 
ENDBRANCH  30  31
ENDBRANCH  23  30
ENDBRANCH  20  26
ENDBRANCH   1  20
TORSDOF 5
