REMARK  Name = ZINC40391756
REMARK  13 active torsions:
REMARK  status: ('A' for Active; 'I' for Inactive)
REMARK    1  A    between atoms: C_1  and  C_2
REMARK    2  A    between atoms: C_2  and  C_4
REMARK    3  A    between atoms: C_2  and  N_7
REMARK    4  A    between atoms: C_4  and  C_5
REMARK    5  A    between atoms: C_4  and  C_6
REMARK    6  A    between atoms: C_10  and  C_14
REMARK    7  A    between atoms: C_15  and  C_27
REMARK    8  A    between atoms: C_17  and  S_20
REMARK    9  A    between atoms: S_20  and  C_21
REMARK   10  A    between atoms: C_21  and  C_22
REMARK   11  A    between atoms: C_22  and  C_24
REMARK   12  A    between atoms: C_22  and  O_26
REMARK   13  A    between atoms: C_24  and  O_25
REMARK                            x       y       z     vdW  Elec       q    Type
REMARK                         _______ _______ _______ _____ _____    ______ ____
ROOT
ATOM      1  C   UNL     1      -3.492  -0.109  -3.736  0.00  0.00    +0.075 A 
ATOM      2  C   UNL     1      -4.115   0.615  -4.735  0.00  0.00    +0.098 A 
ATOM      3  N   UNL     1      -5.426   0.680  -4.437  0.00  0.00    -0.221 NA
ATOM      4  C   UNL     1      -5.655   0.040  -3.314  0.00  0.00    +0.167 A 
ATOM      5  N   UNL     1      -4.485  -0.472  -2.843  0.00  0.00    -0.332 N 
ATOM      6  H   UNL     1      -4.369  -0.992  -2.032  0.00  0.00    +0.168 HD
ENDROOT
BRANCH   1  10
ATOM      7  N   UNL     1       0.688  -0.476  -1.203  0.00  0.00    -0.326 N 
ATOM      8  C   UNL     1      -0.015  -0.612  -2.395  0.00  0.00    +0.119 A 
ATOM      9  C   UNL     1      -1.365  -0.293  -2.436  0.00  0.00    +0.053 A 
ATOM     10  C   UNL     1      -2.058  -0.435  -3.643  0.00  0.00    +0.005 A 
ATOM     11  C   UNL     1      -1.349  -0.898  -4.764  0.00  0.00    +0.030 A 
ATOM     12  C   UNL     1      -0.011  -1.192  -4.636  0.00  0.00    +0.113 A 
ATOM     13  N   UNL     1       0.612  -1.040  -3.481  0.00  0.00    -0.240 NA
ATOM     14  H   UNL     1       1.632  -0.695  -1.170  0.00  0.00    +0.148 HD
BRANCH   7  16
ATOM     15  C   UNL     1      -0.019   1.526   0.010  0.00  0.00    +0.028 C 
ATOM     16  C   UNL     1       0.002  -0.004   0.002  0.00  0.00    +0.071 C 
BRANCH  16  17
ATOM     17  C   UNL     1       0.742  -0.511   1.242  0.00  0.00    +0.003 C 
ATOM     18  C   UNL     1       0.026  -0.018   2.500  0.00  0.00    +0.009 C 
ATOM     19  C   UNL     1       0.763  -2.041   1.233  0.00  0.00    +0.009 C 
ENDBRANCH  16  17
ENDBRANCH   7  16
ENDBRANCH   1  10
BRANCH   2  20
ATOM     20  C   UNL     1      -3.457   1.213  -5.920  0.00  0.00    +0.003 A 
ATOM     21  C   UNL     1      -2.163   1.724  -5.819  0.00  0.00    +0.013 A 
ATOM     22  C   UNL     1      -1.555   2.279  -6.926  0.00  0.00    +0.039 A 
ATOM     23  C   UNL     1      -2.228   2.330  -8.136  0.00  0.00    +0.123 A 
ATOM     24  C   UNL     1      -3.513   1.824  -8.242  0.00  0.00    +0.039 A 
ATOM     25  C   UNL     1      -4.128   1.261  -7.142  0.00  0.00    +0.013 A 
ATOM     26  F   UNL     1      -1.628   2.875  -9.217  0.00  0.00    -0.205 F 
ENDBRANCH   2  20
BRANCH   4  27
ATOM     27  S   UNL     1      -7.229  -0.134  -2.542  0.00  0.00    -0.085 S 
BRANCH  27  28
ATOM     28  C   UNL     1      -8.361   0.751  -3.650  0.00  0.00    +0.111 C 
BRANCH  28  29
ATOM     29  C   UNL     1      -9.784   0.678  -3.090  0.00  0.00    +0.150 C 
BRANCH  29  30
ATOM     30  O   UNL     1      -9.844   1.381  -1.848  0.00  0.00    -0.389 OA
ATOM     31  H   UNL     1      -9.611   2.317  -1.914  0.00  0.00    +0.210 HD
ENDBRANCH  29  30
BRANCH  29  32
ATOM     32  C   UNL     1     -10.756   1.315  -4.084  0.00  0.00    +0.188 C 
BRANCH  32  33
ATOM     33  O   UNL     1     -12.096   1.143  -3.617  0.00  0.00    -0.392 OA
ATOM     34  H   UNL     1     -12.768   1.523  -4.199  0.00  0.00    +0.210 HD
ENDBRANCH  32  33
ENDBRANCH  29  32
ENDBRANCH  28  29
ENDBRANCH  27  28
ENDBRANCH   4  27
TORSDOF 10
