REMARK  Name = ZINC04199116
REMARK  17 active torsions:
REMARK  status: ('A' for Active; 'I' for Inactive)
REMARK    1  A    between atoms: C_1  and  C_2
REMARK    2  A    between atoms: C_2  and  C_29
REMARK    3  A    between atoms: C_3  and  C_4
REMARK    4  A    between atoms: C_4  and  C_5
REMARK    5  A    between atoms: C_5  and  C_6
REMARK    6  A    between atoms: C_6  and  C_28
REMARK    7  A    between atoms: C_7  and  C_8
REMARK    8  A    between atoms: C_8  and  C_9
REMARK    9  A    between atoms: C_9  and  C_10
REMARK   10  A    between atoms: C_10  and  C_27
REMARK   11  A    between atoms: C_11  and  C_25
REMARK   12  A    between atoms: C_11  and  O_26
REMARK   13  A    between atoms: N_12  and  C_16
REMARK   14  A    between atoms: C_18  and  C_23
REMARK   15  A    between atoms: C_18  and  C_24
REMARK   16  A    between atoms: C_19  and  C_21
REMARK   17  A    between atoms: C_19  and  C_22
REMARK                            x       y       z     vdW  Elec       q    Type
REMARK                         _______ _______ _______ _____ _____    ______ ____
ROOT
ATOM      1  C   UNL     1      -1.098  -3.858   0.473  0.00  0.00    +0.158 C 
ATOM      2  C   UNL     1      -2.094  -4.225   1.590  0.00  0.00    +0.175 C 
ATOM      3  N   UNL     1      -3.141  -4.985   0.890  0.00  0.00    -0.233 N 
ATOM      4  C   UNL     1      -2.827  -5.058  -0.411  0.00  0.00    +0.406 C 
ATOM      5  O   UNL     1      -3.520  -5.631  -1.229  0.00  0.00    -0.226 OA
ATOM      6  O   UNL     1      -1.682  -4.443  -0.727  0.00  0.00    -0.439 OA
ATOM      7  C   UNL     1      -2.679  -2.962   2.224  0.00  0.00    +0.068 C 
ATOM      8  C   UNL     1       0.276  -4.469   0.756  0.00  0.00    +0.060 C 
ENDROOT
BRANCH   3   9
ATOM      9  C   UNL     1      -4.335  -5.569   1.514  0.00  0.00    +0.080 C 
ATOM     10  C   UNL     1      -4.346  -7.076   1.266  0.00  0.00    +0.010 C 
ATOM     11  C   UNL     1      -5.604  -7.712   1.854  0.00  0.00    -0.072 C 
ATOM     12  C   UNL     1      -6.837  -5.558   1.517  0.00  0.00    -0.072 C 
ATOM     13  C   UNL     1      -5.584  -4.960   0.874  0.00  0.00    +0.010 C 
ATOM     14  C   UNL     1      -7.003  -5.023   2.939  0.00  0.00    -0.010 C 
ATOM     15  C   UNL     1      -8.053  -5.075   0.696  0.00  0.00    -0.010 C 
ATOM     16  C   UNL     1      -5.465  -7.826   3.375  0.00  0.00    -0.010 C 
ATOM     17  C   UNL     1      -5.697  -9.151   1.296  0.00  0.00    -0.010 C 
ATOM     18  N   UNL     1      -6.874  -7.045   1.460  0.00  0.00    +0.386 N 
ATOM     19  H   UNL     1      -7.615  -7.371   2.090  0.00  0.00    -0.084 HD
ATOM     20  H   UNL     1      -7.096  -7.323   0.497  0.00  0.00    -0.084 HD
ENDBRANCH   3   9
BRANCH   2  21
ATOM     21  O   UNL     1      -1.459  -5.036   2.581  0.00  0.00    -0.368 OA
ATOM     22  H   UNL     1      -2.041  -5.296   3.308  0.00  0.00    +0.212 HD
ENDBRANCH   2  21
BRANCH   1  23
ATOM     23  C   UNL     1      -0.989  -2.338   0.330  0.00  0.00    +0.056 C 
BRANCH  23  24
ATOM     24  C   UNL     1       0.004  -2.001  -0.784  0.00  0.00    +0.031 C 
BRANCH  24  26
ATOM     25  C   UNL     1      -0.051   0.057  -2.097  0.00  0.00    -0.076 C 
ATOM     26  C   UNL     1       0.112  -0.504  -0.924  0.00  0.00    -0.028 C 
ATOM     27  C   UNL     1      -0.197  -0.799  -3.328  0.00  0.00    +0.039 C 
BRANCH  25  28
ATOM     28  C   UNL     1      -0.091   1.559  -2.214  0.00  0.00    +0.034 C 
BRANCH  28  29
ATOM     29  C   UNL     1       1.304   2.081  -2.564  0.00  0.00    +0.031 C 
BRANCH  29  32
ATOM     30  C   UNL     1       2.764   3.682  -0.758  0.00  0.00    +0.038 C 
ATOM     31  C   UNL     1       1.994   4.322  -1.884  0.00  0.00    -0.080 C 
ATOM     32  C   UNL     1       1.263   3.583  -2.681  0.00  0.00    -0.028 C 
ATOM     33  C   UNL     1       2.064   5.813  -2.093  0.00  0.00    +0.038 C 
ENDBRANCH  29  32
ENDBRANCH  28  29
ENDBRANCH  25  28
ENDBRANCH  24  26
ENDBRANCH  23  24
ENDBRANCH   1  23
TORSDOF 8
