REMARK  Name = ZINC49958896
REMARK  4 active torsions:
REMARK  status: ('A' for Active; 'I' for Inactive)
REMARK    1  A    between atoms: C_1  and  C_2
REMARK    2  A    between atoms: C_14  and  C_15
REMARK    3  A    between atoms: N_17  and  C_18
REMARK    4  A    between atoms: C_18  and  C_25
REMARK                            x       y       z     vdW  Elec       q    Type
REMARK                         _______ _______ _______ _____ _____    ______ ____
ROOT
ATOM      1  C   UNL     1      -0.018   1.503   0.010  0.00  0.00    +0.048 C 
ATOM      2  C   UNL     1       0.002  -0.004   0.002  0.00  0.00    +0.008 A 
ATOM      3  C   UNL     1       0.008  -0.842  -1.141  0.00  0.00    +0.024 A 
ATOM      4  C   UNL     1      -0.002  -0.585  -2.528  0.00  0.00    +0.012 A 
ATOM      5  C   UNL     1       0.007  -1.601  -3.421  0.00  0.00    +0.009 A 
ATOM      6  C   UNL     1       0.027  -2.941  -2.977  0.00  0.00    -0.014 A 
ATOM      7  C   UNL     1       0.037  -4.004  -3.893  0.00  0.00    +0.008 A 
ATOM      8  C   UNL     1       0.058  -5.288  -3.439  0.00  0.00    +0.001 A 
ATOM      9  C   UNL     1       0.069  -5.565  -2.075  0.00  0.00    +0.001 A 
ATOM     10  C   UNL     1       0.059  -4.558  -1.157  0.00  0.00    +0.012 A 
ATOM     11  C   UNL     1       0.039  -3.224  -1.590  0.00  0.00    +0.025 A 
ATOM     12  C   UNL     1       0.029  -2.157  -0.664  0.00  0.00    +0.144 A 
ATOM     13  O   UNL     1       0.034  -2.106   0.680  0.00  0.00    -0.449 OA
ATOM     14  C   UNL     1       0.024  -0.819   1.089  0.00  0.00    +0.193 A 
ENDROOT
BRANCH  14  15
ATOM     15  C   UNL     1       0.032  -0.371   2.488  0.00  0.00    +0.280 C 
ATOM     16  O   UNL     1       0.019   0.817   2.746  0.00  0.00    -0.267 OA
ATOM     17  N   UNL     1       0.054  -1.278   3.485  0.00  0.00    -0.302 N 
ATOM     18  H   UNL     1       0.065  -2.225   3.279  0.00  0.00    +0.150 HD
BRANCH  17  19
ATOM     19  C   UNL     1       0.062  -0.831   4.881  0.00  0.00    +0.053 C 
ATOM     20  C   UNL     1      -1.148   0.072   5.112  0.00  0.00    +0.049 C 
ATOM     21  C   UNL     1      -2.369  -0.771   5.577  0.00  0.00    +0.168 C 
ATOM     22  S   UNL     1      -1.512  -1.960   6.701  0.00  0.00    -0.029 S 
ATOM     23  O   UNL     1      -1.294  -1.338   7.960  0.00  0.00    -0.174 OA
ATOM     24  O   UNL     1      -2.171  -3.217   6.642  0.00  0.00    -0.174 OA
ATOM     25  C   UNL     1       0.088  -2.071   5.796  0.00  0.00    +0.191 C 
ATOM     26  C   UNL     1       1.333  -0.014   5.125  0.00  0.00    +0.033 C 
ENDBRANCH  17  19
ENDBRANCH  14  15
TORSDOF 2
