REMARK  Name = ZINC39631441
REMARK  12 active torsions:
REMARK  status: ('A' for Active; 'I' for Inactive)
REMARK    1  A    between atoms: C_1  and  C_2
REMARK    2  A    between atoms: C_2  and  C_4
REMARK    3  A    between atoms: C_2  and  N_11
REMARK    4  A    between atoms: C_4  and  C_5
REMARK    5  A    between atoms: C_5  and  C_6
REMARK    6  A    between atoms: C_6  and  C_7
REMARK    7  A    between atoms: C_7  and  C_8
REMARK    8  A    between atoms: C_7  and  C_9
REMARK    9  A    between atoms: C_7  and  O_10
REMARK   10  A    between atoms: C_12  and  C_14
REMARK   11  A    between atoms: C_25  and  C_27
REMARK   12  A    between atoms: C_31  and  C_33
REMARK                            x       y       z     vdW  Elec       q    Type
REMARK                         _______ _______ _______ _____ _____    ______ ____
ROOT
ATOM      1  C   UNL     1       1.301  -1.378   3.952  0.00  0.00    +0.100 C 
ATOM      2  C   UNL     1       2.313  -0.217   4.077  0.00  0.00    +0.121 C 
ATOM      3  N   UNL     1       1.698   0.712   5.054  0.00  0.00    -0.296 N 
ATOM      4  C   UNL     1       1.090  -0.175   6.074  0.00  0.00    +0.115 C 
ATOM      5  C   UNL     1       0.502  -1.349   5.266  0.00  0.00    -0.004 C 
ATOM      6  C   UNL     1       0.688  -2.659   6.026  0.00  0.00    -0.010 C 
ATOM      7  C   UNL     1      -0.161  -2.629   7.300  0.00  0.00    -0.082 C 
ATOM      8  N   UNL     1      -1.573  -2.442   6.945  0.00  0.00    +0.379 N 
ATOM      9  C   UNL     1      -1.758  -1.138   6.297  0.00  0.00    -0.082 C 
ATOM     10  C   UNL     1      -0.976  -1.105   4.981  0.00  0.00    -0.010 C 
ATOM     11  C   UNL     1       1.694   2.059   5.022  0.00  0.00    +0.247 C 
ATOM     12  O   UNL     1       2.131   2.646   4.051  0.00  0.00    -0.270 OA
ATOM     13  H   UNL     1      -1.859  -3.174   6.312  0.00  0.00    -0.086 HD
ATOM     14  H   UNL     1      -2.137  -2.484   7.781  0.00  0.00    -0.086 HD
ENDROOT
BRANCH  11  15
ATOM     15  C   UNL     1       1.159   2.823   6.168  0.00  0.00    +0.038 A 
ATOM     16  C   UNL     1       1.066   2.226   7.426  0.00  0.00    +0.016 A 
ATOM     17  C   UNL     1       0.565   2.943   8.492  0.00  0.00    +0.039 A 
ATOM     18  C   UNL     1       0.155   4.256   8.315  0.00  0.00    +0.135 A 
ATOM     19  C   UNL     1       0.245   4.854   7.068  0.00  0.00    +0.091 A 
ATOM     20  C   UNL     1       0.749   4.147   5.997  0.00  0.00    +0.028 A 
ATOM     21  F   UNL     1      -0.336   4.954   9.363  0.00  0.00    -0.205 F 
BRANCH  19  22
ATOM     22  C   UNL     1      -0.204   6.281   6.883  0.00  0.00    +0.420 C 
ATOM     23  F   UNL     1      -0.017   6.660   5.550  0.00  0.00    -0.166 F 
ATOM     24  F   UNL     1      -1.559   6.390   7.214  0.00  0.00    -0.166 F 
ATOM     25  F   UNL     1       0.548   7.117   7.715  0.00  0.00    -0.166 F 
ENDBRANCH  19  22
ENDBRANCH  11  15
BRANCH   1  27
ATOM     26  N   UNL     1      -0.210  -2.199   2.174  0.00  0.00    -0.312 N 
ATOM     27  C   UNL     1       0.385  -1.151   2.777  0.00  0.00    +0.218 C 
ATOM     28  O   UNL     1       0.184  -0.025   2.373  0.00  0.00    -0.275 OA
ATOM     29  H   UNL     1      -0.050  -3.099   2.497  0.00  0.00    +0.149 HD
BRANCH  26  31
ATOM     30  C   UNL     1      -0.273  -1.898  -0.252  0.00  0.00    +0.028 C 
ATOM     31  C   UNL     1      -1.101  -1.978   1.032  0.00  0.00    +0.070 C 
BRANCH  31  32
ATOM     32  C   UNL     1      -2.093  -3.138   0.927  0.00  0.00    +0.022 C 
BRANCH  32  33
ATOM     33  C   UNL     1      -3.005  -3.142   2.156  0.00  0.00    +0.005 C 
BRANCH  33  34
ATOM     34  C   UNL     1      -3.997  -4.301   2.051  0.00  0.00    +0.034 C 
BRANCH  34  35
ATOM     35  C   UNL     1      -4.909  -4.305   3.280  0.00  0.00    +0.061 C 
ATOM     36  C   UNL     1      -5.817  -5.535   3.237  0.00  0.00    +0.041 C 
ATOM     37  C   UNL     1      -4.055  -4.346   4.548  0.00  0.00    +0.041 C 
BRANCH  35  38
ATOM     38  O   UNL     1      -5.710  -3.122   3.282  0.00  0.00    -0.389 OA
ATOM     39  H   UNL     1      -6.313  -3.057   4.035  0.00  0.00    +0.210 HD
ENDBRANCH  35  38
ENDBRANCH  34  35
ENDBRANCH  33  34
ENDBRANCH  32  33
ENDBRANCH  31  32
ENDBRANCH  26  31
ENDBRANCH   1  27
TORSDOF 9
