REMARK  Name = ZINC38617629
REMARK  10 active torsions:
REMARK  status: ('A' for Active; 'I' for Inactive)
REMARK    1  A    between atoms: C_1  and  O_2
REMARK    2  A    between atoms: O_2  and  C_3
REMARK    3  A    between atoms: C_6  and  C_9
REMARK    4  A    between atoms: C_11  and  C_15
REMARK    5  A    between atoms: C_19  and  S_32
REMARK    6  A    between atoms: N_21  and  C_22
REMARK    7  A    between atoms: C_24  and  O_30
REMARK    8  A    between atoms: C_27  and  O_28
REMARK    9  A    between atoms: O_28  and  C_29
REMARK   10  A    between atoms: O_30  and  C_31
REMARK                            x       y       z     vdW  Elec       q    Type
REMARK                         _______ _______ _______ _____ _____    ______ ____
ROOT
ATOM      1  C   UNL     1       2.628  -4.798   6.770  0.00  0.00    +0.188 C 
ATOM      2  N   UNL     1       2.354  -6.179   6.293  0.00  0.00    -0.232 NA
ATOM      3  N   UNL     1       2.102  -6.916   7.542  0.00  0.00    -0.226 NA
ATOM      4  C   UNL     1       3.060  -6.337   8.511  0.00  0.00    +0.214 C 
ATOM      5  N   UNL     1       3.393  -4.986   8.020  0.00  0.00    -0.283 N 
ATOM      6  H   UNL     1       3.152  -6.558   5.805  0.00  0.00    +0.143 HD
ATOM      7  H   UNL     1       1.151  -6.785   7.853  0.00  0.00    +0.143 HD
ENDROOT
BRANCH   5   8
ATOM      8  C   UNL     1       4.262  -4.066   8.617  0.00  0.00    +0.078 A 
ATOM      9  C   UNL     1       3.779  -3.157   9.546  0.00  0.00    +0.072 A 
ATOM     10  C   UNL     1       4.642  -2.246  10.136  0.00  0.00    +0.122 A 
ATOM     11  C   UNL     1       5.987  -2.244   9.796  0.00  0.00    +0.049 A 
ATOM     12  C   UNL     1       6.471  -3.149   8.869  0.00  0.00    +0.051 A 
ATOM     13  C   UNL     1       5.614  -4.065   8.282  0.00  0.00    +0.141 A 
BRANCH  13  14
ATOM     14  O   UNL     1       6.092  -4.960   7.375  0.00  0.00    -0.493 OA
ATOM     15  C   UNL     1       7.489  -4.901   7.080  0.00  0.00    +0.277 C 
ENDBRANCH  13  14
BRANCH  10  16
ATOM     16  O   UNL     1       4.170  -1.354  11.047  0.00  0.00    -0.495 OA
ATOM     17  C   UNL     1       5.115  -0.445  11.615  0.00  0.00    +0.277 C 
ENDBRANCH  10  16
ENDBRANCH   5   8
BRANCH   1  20
ATOM     18  C   UNL     1       2.577  -2.541   4.295  0.00  0.00    +0.091 C 
ATOM     19  C   UNL     1       2.697  -3.875   4.440  0.00  0.00    +0.034 C 
ATOM     20  C   UNL     1       3.462  -4.032   5.742  0.00  0.00    +0.189 C 
ATOM     21  N   UNL     1       3.679  -2.642   6.174  0.00  0.00    -0.176 NA
ATOM     22  N   UNL     1       3.173  -1.896   5.332  0.00  0.00    -0.154 NA
BRANCH  18  26
ATOM     23  C   UNL     1       0.626  -0.618   1.041  0.00  0.00    +0.120 A 
ATOM     24  C   UNL     1       1.202   0.142   2.050  0.00  0.00    +0.046 A 
ATOM     25  C   UNL     1       1.835  -0.479   3.107  0.00  0.00    +0.013 A 
ATOM     26  C   UNL     1       1.896  -1.870   3.161  0.00  0.00    +0.002 A 
ATOM     27  C   UNL     1       1.317  -2.631   2.146  0.00  0.00    +0.013 A 
ATOM     28  C   UNL     1       0.681  -2.005   1.095  0.00  0.00    +0.046 A 
BRANCH  23  30
ATOM     29  C   UNL     1      -0.017   1.425   0.010  0.00  0.00    +0.277 C 
ATOM     30  O   UNL     1       0.002  -0.004   0.002  0.00  0.00    -0.495 OA
ENDBRANCH  23  30
ENDBRANCH  18  26
ENDBRANCH   1  20
BRANCH   4  31
ATOM     31  S   UNL     1       2.296  -6.229  10.152  0.00  0.00    -0.139 S 
ATOM     32  H   UNL     1       2.017  -7.507  10.466  0.00  0.00    +0.105 HD
ENDBRANCH   4  31
TORSDOF 7
