REMARK  Name = ZINC09239397
REMARK  6 active torsions:
REMARK  status: ('A' for Active; 'I' for Inactive)
REMARK    1  A    between atoms: C_1  and  C_2
REMARK    2  A    between atoms: C_2  and  C_3
REMARK    3  A    between atoms: C_3  and  C_4
REMARK    4  A    between atoms: C_10  and  C_25
REMARK    5  A    between atoms: C_12  and  C_15
REMARK    6  A    between atoms: N_17  and  C_18
REMARK                            x       y       z     vdW  Elec       q    Type
REMARK                         _______ _______ _______ _____ _____    ______ ____
ROOT
ATOM      1  C   UNL     1      -1.498   3.593   2.533  0.00  0.00    +0.151 A 
ATOM      2  N   UNL     1      -2.774   3.836   2.661  0.00  0.00    -0.132 NA
ATOM      3  N   UNL     1      -3.032   4.229   3.860  0.00  0.00    -0.121 NA
ATOM      4  C   UNL     1      -1.929   4.261   4.554  0.00  0.00    +0.209 A 
ATOM      5  N   UNL     1      -0.910   3.864   3.735  0.00  0.00    -0.225 N 
ATOM      6  N   UNL     1       0.407   3.772   4.053  0.00  0.00    -0.272 N 
ATOM      7  C   UNL     1       0.658   3.643   5.489  0.00  0.00    +0.140 C 
ATOM      8  C   UNL     1       0.096   4.855   6.243  0.00  0.00    +0.166 C 
ATOM      9  S   UNL     1      -1.717   4.717   6.246  0.00  0.00    -0.069 S 
ATOM     10  H   UNL     1       0.852   3.027   3.539  0.00  0.00    +0.167 HD
ENDROOT
BRANCH   7  11
ATOM     11  C   UNL     1       2.143   3.552   5.729  0.00  0.00    -0.024 A 
ATOM     12  C   UNL     1       3.010   4.354   5.009  0.00  0.00    +0.007 A 
ATOM     13  C   UNL     1       4.371   4.275   5.233  0.00  0.00    +0.020 A 
ATOM     14  C   UNL     1       4.868   3.385   6.168  0.00  0.00    +0.041 A 
ATOM     15  C   UNL     1       4.001   2.579   6.884  0.00  0.00    +0.020 A 
ATOM     16  C   UNL     1       2.639   2.663   6.663  0.00  0.00    +0.007 A 
ATOM     17 CL   UNL     1       6.579   3.280   6.444  0.00  0.00    -0.084 Cl
ENDBRANCH   7  11
BRANCH   8  18
ATOM     18  C   UNL     1       0.610   4.857   7.660  0.00  0.00    +0.233 C 
ATOM     19  O   UNL     1       0.896   3.811   8.203  0.00  0.00    -0.274 OA
ATOM     20  N   UNL     1       0.751   6.022   8.323  0.00  0.00    -0.282 N 
ATOM     21  H   UNL     1       0.600   6.863   7.865  0.00  0.00    +0.155 HD
BRANCH  20  22
ATOM     22  C   UNL     1       1.117   6.017   9.675  0.00  0.00    +0.069 A 
ATOM     23  C   UNL     1       0.845   4.909  10.466  0.00  0.00    +0.026 A 
ATOM     24  C   UNL     1       1.212   4.906  11.798  0.00  0.00    +0.002 A 
ATOM     25  C   UNL     1       1.840   6.008  12.347  0.00  0.00    +0.003 A 
ATOM     26  C   UNL     1       2.108   7.116  11.565  0.00  0.00    +0.040 A 
ATOM     27  C   UNL     1       1.749   7.125  10.230  0.00  0.00    +0.144 A 
ATOM     28  F   UNL     1       2.010   8.208   9.466  0.00  0.00    -0.204 F 
ENDBRANCH  20  22
ENDBRANCH   8  18
BRANCH   1  29
ATOM     29  C   UNL     1      -0.802   3.108   1.287  0.00  0.00    +0.078 C 
BRANCH  29  31
ATOM     30  C   UNL     1      -0.073   1.085   0.014  0.00  0.00    +0.004 C 
ATOM     31  C   UNL     1      -0.780   1.578   1.278  0.00  0.00    +0.004 C 
ENDBRANCH  29  31
ENDBRANCH   1  29
TORSDOF 5
