REMARK  Name = ZINC35966156
REMARK  7 active torsions:
REMARK  status: ('A' for Active; 'I' for Inactive)
REMARK    1  A    between atoms: C_1  and  C_2
REMARK    2  A    between atoms: C_6  and  C_8
REMARK    3  A    between atoms: N_13  and  C_16
REMARK    4  A    between atoms: C_16  and  C_18
REMARK    5  A    between atoms: C_16  and  C_24
REMARK    6  A    between atoms: N_26  and  C_27
REMARK    7  A    between atoms: N_34  and  C_38
REMARK                            x       y       z     vdW  Elec       q    Type
REMARK                         _______ _______ _______ _____ _____    ______ ____
ROOT
ATOM      1  C   UNL     1      -0.072  -2.819   1.880  0.00  0.00    +0.142 C 
ATOM      2  C   UNL     1      -1.478  -3.225   2.272  0.00  0.00    +0.058 C 
ATOM      3  C   UNL     1      -1.782  -4.539   2.246  0.00  0.00    +0.042 C 
ATOM      4  C   UNL     1      -3.226  -4.651   2.678  0.00  0.00    +0.160 C 
ATOM      5  N   UNL     1      -3.653  -3.267   2.934  0.00  0.00    -0.277 N 
ATOM      6  C   UNL     1      -2.597  -2.472   2.683  0.00  0.00    +0.247 C 
ATOM      7  O   UNL     1      -2.606  -1.260   2.797  0.00  0.00    -0.270 OA
ATOM      8  N   UNL     1      -0.855  -5.472   1.877  0.00  0.00    -0.260 N 
ATOM      9  C   UNL     1       0.400  -5.169   1.521  0.00  0.00    +0.307 C 
ATOM     10  O   UNL     1       1.156  -6.068   1.208  0.00  0.00    -0.252 OA
ATOM     11  N   UNL     1       0.852  -3.900   1.499  0.00  0.00    -0.288 N 
ATOM     12  C   UNL     1      -1.256  -6.881   1.872  0.00  0.00    +0.139 C 
ATOM     13  H   UNL     1       1.765  -3.704   1.237  0.00  0.00    +0.151 HD
ENDROOT
BRANCH   1  19
ATOM     14  C   UNL     1      -0.195   1.866   0.123  0.00  0.00    +0.044 C 
ATOM     15  C   UNL     1      -0.231   0.379  -0.121  0.00  0.00    -0.050 A 
ATOM     16  C   UNL     1      -0.356  -0.107  -1.409  0.00  0.00    +0.003 A 
ATOM     17  C   UNL     1      -0.390  -1.471  -1.632  0.00  0.00    +0.001 A 
ATOM     18  C   UNL     1      -0.298  -2.348  -0.568  0.00  0.00    +0.006 A 
ATOM     19  C   UNL     1      -0.172  -1.862   0.720  0.00  0.00    -0.022 A 
ATOM     20  C   UNL     1      -0.134  -0.498   0.943  0.00  0.00    +0.009 A 
ENDBRANCH   1  19
BRANCH   5  21
ATOM     21  C   UNL     1      -4.980  -2.835   3.379  0.00  0.00    +0.193 C 
BRANCH  21  22
ATOM     22  C   UNL     1      -5.628  -2.010   2.298  0.00  0.00    -0.018 A 
ATOM     23  C   UNL     1      -5.605  -2.447   0.987  0.00  0.00    +0.006 A 
ATOM     24  C   UNL     1      -6.200  -1.690  -0.005  0.00  0.00    +0.000 A 
ATOM     25  C   UNL     1      -6.819  -0.497   0.314  0.00  0.00    +0.000 A 
ATOM     26  C   UNL     1      -6.844  -0.060   1.625  0.00  0.00    +0.000 A 
ATOM     27  C   UNL     1      -6.253  -0.819   2.618  0.00  0.00    +0.006 A 
ENDBRANCH  21  22
BRANCH  21  28
ATOM     28  C   UNL     1      -5.831  -4.044   3.668  0.00  0.00    +0.242 C 
ATOM     29  O   UNL     1      -5.375  -5.157   3.516  0.00  0.00    -0.273 OA
ATOM     30  N   UNL     1      -7.100  -3.889   4.094  0.00  0.00    -0.284 N 
ATOM     31  H   UNL     1      -7.489  -3.001   4.146  0.00  0.00    +0.155 HD
BRANCH  30  32
ATOM     32  C   UNL     1      -7.858  -5.008   4.462  0.00  0.00    +0.034 A 
ATOM     33  C   UNL     1      -9.228  -5.024   4.237  0.00  0.00    +0.026 A 
ATOM     34  C   UNL     1      -9.973  -6.129   4.600  0.00  0.00    +0.040 A 
ATOM     35  C   UNL     1      -9.354  -7.219   5.189  0.00  0.00    +0.124 A 
ATOM     36  C   UNL     1      -7.988  -7.204   5.415  0.00  0.00    +0.040 A 
ATOM     37  C   UNL     1      -7.239  -6.104   5.047  0.00  0.00    +0.026 A 
ATOM     38  F   UNL     1     -10.085  -8.298   5.545  0.00  0.00    -0.205 F 
ENDBRANCH  30  32
ENDBRANCH  21  28
ENDBRANCH   5  21
TORSDOF 5
