REMARK  Name = ZINC36227384
REMARK  13 active torsions:
REMARK  status: ('A' for Active; 'I' for Inactive)
REMARK    1  A    between atoms: C_1  and  C_2
REMARK    2  A    between atoms: C_7  and  N_12
REMARK    3  A    between atoms: C_9  and  C_11
REMARK    4  A    between atoms: C_13  and  C_15
REMARK    5  A    between atoms: C_15  and  C_16
REMARK    6  A    between atoms: C_16  and  C_18
REMARK    7  A    between atoms: C_16  and  N_21
REMARK    8  A    between atoms: C_18  and  C_19
REMARK    9  A    between atoms: C_18  and  C_20
REMARK   10  A    between atoms: N_21  and  S_22
REMARK   11  A    between atoms: S_22  and  C_25
REMARK   12  A    between atoms: C_28  and  N_31
REMARK   13  A    between atoms: C_32  and  C_34
REMARK                            x       y       z     vdW  Elec       q    Type
REMARK                         _______ _______ _______ _____ _____    ______ ____
ROOT
ATOM      1  C   UNL     1       1.165   0.691   7.260  0.00  0.00    +0.088 C 
ENDROOT
BRANCH   1   2
ATOM      2  C   UNL     1       1.725   0.109   8.560  0.00  0.00    +0.002 C 
ATOM      3  C   UNL     1       1.451   1.077   9.712  0.00  0.00    +0.009 C 
ATOM      4  C   UNL     1       1.049  -1.233   8.850  0.00  0.00    +0.009 C 
ENDBRANCH   1   2
BRANCH   1   5
ATOM      5  N   UNL     1       1.712   2.034   7.052  0.00  0.00    -0.186 NA
ATOM      6  H   UNL     1       2.660   2.151   6.884  0.00  0.00    +0.148 HD
BRANCH   5   7
ATOM      7  S   UNL     1       0.711   3.352   7.103  0.00  0.00    +0.059 S 
ATOM      8  O   UNL     1       1.538   4.497   6.942  0.00  0.00    -0.153 OA
ATOM      9  O   UNL     1      -0.377   3.071   6.232  0.00  0.00    -0.153 OA
BRANCH   7  10
ATOM     10  C   UNL     1       0.044   3.438   8.731  0.00  0.00    +0.105 A 
ATOM     11  C   UNL     1      -1.093   2.718   9.050  0.00  0.00    +0.030 A 
ATOM     12  C   UNL     1      -1.618   2.783  10.325  0.00  0.00    +0.025 A 
ATOM     13  C   UNL     1      -1.003   3.571  11.289  0.00  0.00    +0.033 A 
ATOM     14  C   UNL     1       0.139   4.292  10.966  0.00  0.00    +0.025 A 
ATOM     15  C   UNL     1       0.662   4.219   9.690  0.00  0.00    +0.030 A 
BRANCH  13  16
ATOM     16  N   UNL     1      -1.533   3.639  12.582  0.00  0.00    -0.286 N 
ATOM     17  C   UNL     1      -1.451   4.786  13.284  0.00  0.00    +0.214 C 
ATOM     18  O   UNL     1      -0.995   5.783  12.766  0.00  0.00    -0.276 OA
ATOM     19  C   UNL     1      -1.927   4.830  14.714  0.00  0.00    +0.109 C 
ATOM     20  H   UNL     1      -1.959   2.860  12.973  0.00  0.00    +0.155 HD
ENDBRANCH  13  16
ENDBRANCH   7  10
ENDBRANCH   5   7
ENDBRANCH   1   5
BRANCH   1  21
ATOM     21  C   UNL     1       1.560  -0.208   6.087  0.00  0.00    +0.116 C 
BRANCH  21  23
ATOM     22  N   UNL     1       1.114  -0.344   3.658  0.00  0.00    -0.312 N 
ATOM     23  C   UNL     1       0.907   0.296   4.825  0.00  0.00    +0.215 C 
ATOM     24  O   UNL     1       0.197   1.278   4.862  0.00  0.00    -0.276 OA
ATOM     25  H   UNL     1       1.682  -1.129   3.629  0.00  0.00    +0.149 HD
BRANCH  22  31
ATOM     26  C   UNL     1       0.570   1.743  -0.024  0.00  0.00    +0.008 C 
ATOM     27  C   UNL     1       0.638   0.215  -0.061  0.00  0.00    -0.009 C 
ATOM     28  C   UNL     1      -0.777  -0.356  -0.167  0.00  0.00    +0.003 C 
ATOM     29  C   UNL     1      -1.599   0.088   1.045  0.00  0.00    +0.002 C 
ATOM     30  C   UNL     1      -0.936  -0.424   2.326  0.00  0.00    +0.022 C 
ATOM     31  C   UNL     1       0.479   0.147   2.431  0.00  0.00    +0.076 C 
ATOM     32  C   UNL     1       1.300  -0.297   1.219  0.00  0.00    +0.009 C 
ATOM     33  C   UNL     1       2.716   0.274   1.325  0.00  0.00    +0.009 C 
ENDBRANCH  22  31
ENDBRANCH  21  23
ENDBRANCH   1  21
TORSDOF 8
