REMARK  Name = ZINC36855859
REMARK  5 active torsions:
REMARK  status: ('A' for Active; 'I' for Inactive)
REMARK    1  A    between atoms: C_4  and  N_7
REMARK    2  A    between atoms: C_17  and  S_18
REMARK    3  A    between atoms: S_18  and  C_19
REMARK    4  A    between atoms: C_19  and  C_20
REMARK    5  A    between atoms: N_22  and  C_23
REMARK                            x       y       z     vdW  Elec       q    Type
REMARK                         _______ _______ _______ _____ _____    ______ ____
ROOT
ATOM      1  S   UNL     1       2.109  -2.875   0.124  0.00  0.00    -0.078 S 
ENDROOT
BRANCH   1  12
ATOM      2  N   UNL     1       3.631  -0.664  -0.135  0.00  0.00    -0.255 N 
ATOM      3  C   UNL     1       4.789   0.030  -0.233  0.00  0.00    +0.267 A 
ATOM      4  O   UNL     1       4.790   1.243  -0.342  0.00  0.00    -0.267 OA
ATOM      5  C   UNL     1       6.044  -0.732  -0.203  0.00  0.00    +0.065 A 
ATOM      6  C   UNL     1       7.287  -0.109  -0.296  0.00  0.00    +0.015 A 
ATOM      7  C   UNL     1       8.425  -0.866  -0.262  0.00  0.00    +0.001 A 
ATOM      8  C   UNL     1       8.355  -2.248  -0.135  0.00  0.00    +0.002 A 
ATOM      9  C   UNL     1       7.149  -2.885  -0.042  0.00  0.00    +0.028 A 
ATOM     10  C   UNL     1       5.968  -2.138  -0.074  0.00  0.00    +0.079 A 
ATOM     11  N   UNL     1       4.753  -2.728   0.017  0.00  0.00    -0.223 NA
ATOM     12  C   UNL     1       3.647  -2.026  -0.007  0.00  0.00    +0.177 A 
BRANCH   2  16
ATOM     13  C   UNL     1      -0.008   1.365  -0.204  0.00  0.00    +0.000 A 
ATOM     14  C   UNL     1       0.421   0.758   0.962  0.00  0.00    +0.002 A 
ATOM     15  C   UNL     1       1.627   0.085   0.988  0.00  0.00    +0.026 A 
ATOM     16  C   UNL     1       2.408   0.018  -0.158  0.00  0.00    +0.052 A 
ATOM     17  C   UNL     1       1.974   0.628  -1.327  0.00  0.00    +0.026 A 
ATOM     18  C   UNL     1       0.767   1.300  -1.347  0.00  0.00    +0.002 A 
ENDBRANCH   2  16
ENDBRANCH   1  12
BRANCH   1  19
ATOM     19  C   UNL     1       2.583  -4.620   0.272  0.00  0.00    +0.173 C 
BRANCH  19  20
ATOM     20  C   UNL     1       1.344  -5.469   0.393  0.00  0.00    +0.227 C 
ATOM     21  O   UNL     1       0.248  -4.948   0.380  0.00  0.00    -0.275 OA
ATOM     22  N   UNL     1       1.452  -6.807   0.515  0.00  0.00    -0.285 N 
ATOM     23  H   UNL     1       2.328  -7.217   0.595  0.00  0.00    +0.155 HD
BRANCH  22  24
ATOM     24  C   UNL     1       0.301  -7.605   0.526  0.00  0.00    +0.037 A 
ATOM     25  C   UNL     1       0.265  -8.760   1.295  0.00  0.00    +0.027 A 
ATOM     26  C   UNL     1      -0.870  -9.549   1.308  0.00  0.00    +0.051 A 
ATOM     27  C   UNL     1      -1.973  -9.188   0.555  0.00  0.00    +0.167 A 
ATOM     28  C   UNL     1      -1.941  -8.028  -0.217  0.00  0.00    +0.169 A 
ATOM     29  C   UNL     1      -0.806  -7.237  -0.227  0.00  0.00    +0.072 A 
ATOM     30  O   UNL     1      -3.147  -7.901  -0.855  0.00  0.00    -0.447 OA
ATOM     31  C   UNL     1      -3.686  -9.231  -0.841  0.00  0.00    +0.254 C 
ATOM     32  O   UNL     1      -3.200  -9.779   0.393  0.00  0.00    -0.448 OA
ATOM     33  C   UNL     1      -3.194 -10.043  -2.044  0.00  0.00    +0.093 C 
ATOM     34  C   UNL     1      -4.401 -10.948  -2.403  0.00  0.00    +0.008 C 
ATOM     35  C   UNL     1      -5.617 -10.024  -2.138  0.00  0.00    +0.008 C 
ATOM     36  C   UNL     1      -5.213  -9.216  -0.884  0.00  0.00    +0.093 C 
ENDBRANCH  22  24
ENDBRANCH  19  20
ENDBRANCH   1  19
TORSDOF 5
