REMARK  Name = ZINC10960072
REMARK  11 active torsions:
REMARK  status: ('A' for Active; 'I' for Inactive)
REMARK    1  A    between atoms: C_1  and  C_2
REMARK    2  A    between atoms: C_5  and  C_8
REMARK    3  A    between atoms: N_14  and  C_15
REMARK    4  A    between atoms: C_15  and  C_16
REMARK    5  A    between atoms: C_16  and  C_17
REMARK    6  A    between atoms: N_19  and  C_20
REMARK    7  A    between atoms: C_20  and  C_22
REMARK    8  A    between atoms: C_20  and  C_26
REMARK    9  A    between atoms: C_22  and  C_23
REMARK   10  A    between atoms: C_23  and  C_24
REMARK   11  A    between atoms: C_23  and  C_25
REMARK                            x       y       z     vdW  Elec       q    Type
REMARK                         _______ _______ _______ _____ _____    ______ ____
ROOT
ATOM      1  C   UNL     1      -0.980  -4.002   4.516  0.00  0.00    +0.215 C 
ATOM      2  O   UNL     1       0.097  -3.637   4.938  0.00  0.00    -0.276 OA
ATOM      3  N   UNL     1      -2.081  -3.884   5.285  0.00  0.00    -0.305 N 
ATOM      4  H   UNL     1      -2.942  -4.176   4.947  0.00  0.00    +0.149 HD
ENDROOT
BRANCH   1   5
ATOM      5  C   UNL     1      -1.088  -4.587   3.131  0.00  0.00    +0.117 C 
BRANCH   5   6
ATOM      6  C   UNL     1       0.295  -4.607   2.477  0.00  0.00    +0.135 C 
BRANCH   6  13
ATOM      7  C   UNL     1       0.069  -4.239  -0.020  0.00  0.00    +0.163 A 
ATOM      8  N   UNL     1      -0.017  -4.989  -1.082  0.00  0.00    -0.153 NA
ATOM      9  N   UNL     1       0.023  -6.329  -0.671  0.00  0.00    -0.254 N 
ATOM     10  H   UNL     1      -0.022  -7.107  -1.248  0.00  0.00    +0.191 HD
ATOM     11  C   UNL     1       0.137  -6.338   0.672  0.00  0.00    +0.176 A 
ATOM     12  S   UNL     1       0.227  -7.726   1.670  0.00  0.00    -0.011 S 
ATOM     13  N   UNL     1       0.172  -5.056   1.088  0.00  0.00    -0.303 N 
BRANCH   7  18
ATOM     14  C   UNL     1       0.050   1.517   0.037  0.00  0.00    +0.044 C 
ATOM     15  C   UNL     1       0.055   0.010   0.022  0.00  0.00    -0.050 A 
ATOM     16  C   UNL     1       0.399  -0.666  -1.135  0.00  0.00    +0.004 A 
ATOM     17  C   UNL     1       0.406  -2.046  -1.155  0.00  0.00    +0.012 A 
ATOM     18  C   UNL     1       0.065  -2.759  -0.005  0.00  0.00    +0.019 A 
ATOM     19  C   UNL     1      -0.281  -2.071   1.158  0.00  0.00    +0.012 A 
ATOM     20  C   UNL     1      -0.279  -0.691   1.167  0.00  0.00    +0.004 A 
ENDBRANCH   7  18
ENDBRANCH   6  13
ENDBRANCH   5   6
ENDBRANCH   1   5
BRANCH   3  21
ATOM     21  C   UNL     1      -1.976  -3.316   6.631  0.00  0.00    +0.139 C 
BRANCH  21  22
ATOM     22  C   UNL     1      -3.305  -2.731   7.034  0.00  0.00    +0.129 A 
ATOM     23  N   UNL     1      -3.541  -1.410   7.255  0.00  0.00    -0.340 N 
ATOM     24  H   UNL     1      -2.894  -0.690   7.182  0.00  0.00    +0.167 HD
ATOM     25  C   UNL     1      -4.871  -1.282   7.602  0.00  0.00    +0.066 A 
ATOM     26  C   UNL     1      -5.684  -0.207   7.937  0.00  0.00    +0.028 A 
ATOM     27  C   UNL     1      -7.011  -0.424   8.241  0.00  0.00    +0.002 A 
ATOM     28  C   UNL     1      -7.538  -1.708   8.215  0.00  0.00    +0.002 A 
ATOM     29  C   UNL     1      -6.753  -2.777   7.888  0.00  0.00    +0.030 A 
ATOM     30  C   UNL     1      -5.405  -2.581   7.575  0.00  0.00    +0.089 A 
ATOM     31  N   UNL     1      -4.397  -3.416   7.216  0.00  0.00    -0.231 NA
ENDBRANCH  21  22
BRANCH  21  32
ATOM     32  C   UNL     1      -1.581  -4.415   7.620  0.00  0.00    +0.033 C 
BRANCH  32  33
ATOM     33  C   UNL     1      -0.177  -4.922   7.285  0.00  0.00    -0.015 C 
ATOM     34  C   UNL     1       0.837  -3.798   7.503  0.00  0.00    +0.007 C 
ATOM     35  C   UNL     1       0.168  -6.104   8.193  0.00  0.00    +0.007 C 
ENDBRANCH  32  33
ENDBRANCH  21  32
ENDBRANCH   3  21
TORSDOF 8
