REMARK  Name = ZINC63654919
REMARK  7 active torsions:
REMARK  status: ('A' for Active; 'I' for Inactive)
REMARK    1  A    between atoms: C_1  and  C_2
REMARK    2  A    between atoms: C_5  and  C_8
REMARK    3  A    between atoms: C_10  and  S_18
REMARK    4  A    between atoms: S_18  and  C_19
REMARK    5  A    between atoms: C_19  and  C_20
REMARK    6  A    between atoms: C_20  and  N_21
REMARK    7  A    between atoms: C_22  and  C_24
REMARK                            x       y       z     vdW  Elec       q    Type
REMARK                         _______ _______ _______ _____ _____    ______ ____
ROOT
ATOM      1  C   UNL     1       0.066  -4.245  -0.005  0.00  0.00    +0.147 C 
ATOM      2  C   UNL     1       1.465  -4.761   0.248  0.00  0.00    +0.021 C 
ATOM      3  C   UNL     1       1.385  -5.503   1.423  0.00  0.00    +0.010 A 
ATOM      4  C   UNL     1       2.348  -6.224   2.162  0.00  0.00    +0.011 A 
ATOM      5  C   UNL     1       1.980  -6.869   3.299  0.00  0.00    +0.001 A 
ATOM      6  C   UNL     1       0.664  -6.840   3.762  0.00  0.00    +0.002 A 
ATOM      7  C   UNL     1      -0.312  -6.167   3.103  0.00  0.00    +0.026 A 
ATOM      8  C   UNL     1      -0.003  -5.468   1.908  0.00  0.00    +0.044 A 
ATOM      9  N   UNL     1      -0.760  -4.752   1.095  0.00  0.00    -0.373 N 
ATOM     10  H   UNL     1      -1.709  -4.587   1.208  0.00  0.00    +0.161 HD
ENDROOT
BRANCH   1  15
ATOM     11  C   UNL     1       0.045   1.534  -0.007  0.00  0.00    +0.044 C 
ATOM     12  C   UNL     1       0.050   0.027  -0.007  0.00  0.00    -0.050 A 
ATOM     13  C   UNL     1       0.040  -0.664  -1.204  0.00  0.00    +0.004 A 
ATOM     14  C   UNL     1       0.045  -2.047  -1.203  0.00  0.00    +0.006 A 
ATOM     15  C   UNL     1       0.061  -2.738  -0.006  0.00  0.00    -0.020 A 
ATOM     16  C   UNL     1       0.073  -2.046   1.191  0.00  0.00    +0.006 A 
ATOM     17  C   UNL     1       0.072  -0.664   1.191  0.00  0.00    +0.004 A 
ENDBRANCH   1  15
BRANCH   2  18
ATOM     18  S   UNL     1       2.815  -4.498  -0.681  0.00  0.00    -0.125 S 
BRANCH  18  19
ATOM     19  C   UNL     1       4.159  -5.257   0.272  0.00  0.00    +0.093 C 
BRANCH  19  20
ATOM     20  C   UNL     1       5.497  -4.960  -0.408  0.00  0.00    +0.115 C 
BRANCH  20  21
ATOM     21  N   UNL     1       6.582  -5.573   0.362  0.00  0.00    -0.314 N 
ATOM     22  C   UNL     1       7.859  -5.442  -0.051  0.00  0.00    +0.219 C 
ATOM     23  O   UNL     1       8.108  -4.818  -1.060  0.00  0.00    -0.275 OA
ATOM     24  H   UNL     1       6.382  -6.073   1.169  0.00  0.00    +0.149 HD
BRANCH  22  25
ATOM     25  C   UNL     1       8.975  -6.073   0.741  0.00  0.00    +0.048 C 
ATOM     26  C   UNL     1       8.984  -5.496   2.158  0.00  0.00    +0.019 C 
ATOM     27  C   UNL     1      10.118  -6.136   2.962  0.00  0.00    -0.009 C 
ATOM     28  C   UNL     1      11.456  -5.839   2.282  0.00  0.00    +0.007 C 
ATOM     29  C   UNL     1      11.447  -6.416   0.865  0.00  0.00    -0.009 C 
ATOM     30  C   UNL     1      10.313  -5.776   0.061  0.00  0.00    +0.019 C 
ATOM     31  C   UNL     1      11.233  -7.930   0.932  0.00  0.00    +0.007 C 
ATOM     32  C   UNL     1       9.895  -8.226   1.613  0.00  0.00    -0.009 C 
ATOM     33  C   UNL     1       9.904  -7.649   3.029  0.00  0.00    +0.007 C 
ATOM     34  C   UNL     1       8.761  -7.586   0.808  0.00  0.00    +0.019 C 
ENDBRANCH  22  25
ENDBRANCH  20  21
ENDBRANCH  19  20
ENDBRANCH  18  19
ENDBRANCH   2  18
TORSDOF 6
