REMARK  Name = ZINC19462189
REMARK  7 active torsions:
REMARK  status: ('A' for Active; 'I' for Inactive)
REMARK    1  A    between atoms: C_1  and  C_2
REMARK    2  A    between atoms: C_9  and  N_14
REMARK    3  A    between atoms: C_15  and  C_17
REMARK    4  A    between atoms: C_24  and  C_27
REMARK    5  A    between atoms: C_27  and  C_28
REMARK    6  A    between atoms: C_27  and  C_29
REMARK    7  A    between atoms: C_27  and  C_30
REMARK                            x       y       z     vdW  Elec       q    Type
REMARK                         _______ _______ _______ _____ _____    ______ ____
ROOT
ATOM      1  N   UNL     1       5.785   1.614  -1.535  0.00  0.00    -0.280 N 
ATOM      2  C   UNL     1       4.588   1.487  -0.929  0.00  0.00    +0.270 C 
ATOM      3  O   UNL     1       4.502   1.606   0.278  0.00  0.00    -0.268 OA
ATOM      4  H   UNL     1       5.879   1.421  -2.614  0.00  0.00    +0.155 HD
ENDROOT
BRANCH   1  12
ATOM      5  C   UNL     1      10.447   5.444   0.828  0.00  0.00    +0.062 C 
ATOM      6  C   UNL     1      10.216   4.427   1.947  0.00  0.00    +0.256 C 
ATOM      7  C   UNL     1       8.882   4.691   2.598  0.00  0.00    +0.258 C 
ATOM      8  O   UNL     1       8.808   5.427   3.558  0.00  0.00    -0.271 OA
ATOM      9  N   UNL     1       7.769   4.104   2.106  0.00  0.00    -0.279 N 
ATOM     10  C   UNL     1       7.887   3.229   1.016  0.00  0.00    +0.077 A 
ATOM     11  C   UNL     1       6.773   2.864   0.281  0.00  0.00    +0.050 A 
ATOM     12  C   UNL     1       6.910   1.991  -0.791  0.00  0.00    +0.036 A 
ATOM     13  C   UNL     1       8.163   1.497  -1.129  0.00  0.00    +0.027 A 
ATOM     14  C   UNL     1       9.277   1.867  -0.399  0.00  0.00    +0.049 A 
ATOM     15  C   UNL     1       9.144   2.732   0.674  0.00  0.00    +0.143 A 
ATOM     16  O   UNL     1      10.232   3.106   1.401  0.00  0.00    -0.478 OA
ATOM     17  H   UNL     1       6.790   4.315   2.560  0.00  0.00    +0.155 HD
ENDBRANCH   1  12
BRANCH   2  18
ATOM     18  C   UNL     1       3.376   1.203  -1.734  0.00  0.00    +0.171 A 
ATOM     19  C   UNL     1       2.058   1.042  -1.261  0.00  0.00    +0.027 A 
ATOM     20  C   UNL     1       1.323   0.803  -2.373  0.00  0.00    +0.141 A 
ATOM     21  O   UNL     1       2.169   0.826  -3.401  0.00  0.00    -0.359 OA
ATOM     22  N   UNL     1       3.307   1.049  -3.038  0.00  0.00    -0.073 NA
ATOM     23  C   UNL     1      -0.165   0.570  -2.359  0.00  0.00    +0.078 C 
ATOM     24  C   UNL     1      -0.717   1.059  -1.013  0.00  0.00    +0.012 C 
ATOM     25  C   UNL     1       0.112   0.468   0.131  0.00  0.00    -0.001 C 
ATOM     26  C   UNL     1       1.509   1.105   0.135  0.00  0.00    +0.045 C 
BRANCH  25  27
ATOM     27  C   UNL     1      -0.583   0.753   1.464  0.00  0.00    -0.035 C 
ATOM     28  C   UNL     1      -0.712   2.265   1.657  0.00  0.00    +0.011 C 
ATOM     29  C   UNL     1      -1.974   0.118   1.460  0.00  0.00    +0.011 C 
ATOM     30  C   UNL     1       0.245   0.162   2.607  0.00  0.00    +0.011 C 
ENDBRANCH  25  27
ENDBRANCH   2  18
TORSDOF 3
