REMARK  Name = ZINC58849736
REMARK  7 active torsions:
REMARK  status: ('A' for Active; 'I' for Inactive)
REMARK    1  A    between atoms: C_1  and  C_2
REMARK    2  A    between atoms: C_5  and  O_35
REMARK    3  A    between atoms: C_6  and  N_8
REMARK    4  A    between atoms: N_8  and  S_9
REMARK    5  A    between atoms: S_9  and  C_12
REMARK    6  A    between atoms: C_25  and  C_28
REMARK    7  A    between atoms: O_35  and  C_36
REMARK                            x       y       z     vdW  Elec       q    Type
REMARK                         _______ _______ _______ _____ _____    ______ ____
ROOT
ATOM      1  C   UNL     1      -2.408  -2.184   3.470  0.00  0.00    +0.109 A 
ATOM      2  C   UNL     1      -3.032  -1.107   2.865  0.00  0.00    +0.030 A 
ATOM      3  C   UNL     1      -4.396  -1.134   2.659  0.00  0.00    +0.025 A 
ATOM      4  C   UNL     1      -5.141  -2.240   3.054  0.00  0.00    +0.031 A 
ATOM      5  C   UNL     1      -4.515  -3.325   3.649  0.00  0.00    -0.018 A 
ATOM      6  C   UNL     1      -3.144  -3.286   3.854  0.00  0.00    +0.034 A 
ATOM      7  C   UNL     1      -5.274  -4.544   4.050  0.00  0.00    +0.049 C 
ATOM      8  C   UNL     1      -5.498  -4.609   5.539  0.00  0.00    -0.023 C 
ATOM      9  C   UNL     1      -6.672  -5.127   5.799  0.00  0.00    -0.030 C 
ATOM     10  C   UNL     1      -7.403  -5.477   4.521  0.00  0.00    +0.033 C 
ATOM     11  C   UNL     1      -6.670  -4.652   3.438  0.00  0.00    +0.029 C 
ATOM     12  C   UNL     1      -7.379  -3.321   3.297  0.00  0.00    +0.105 C 
ATOM     13  N   UNL     1      -6.517  -2.244   2.857  0.00  0.00    -0.336 N 
ATOM     14  H   UNL     1      -6.922  -1.477   2.423  0.00  0.00    +0.147 HD
ENDROOT
BRANCH  12  15
ATOM     15  C   UNL     1      -7.997  -2.965   4.624  0.00  0.00    -0.027 A 
ATOM     16  C   UNL     1      -7.218  -2.413   5.624  0.00  0.00    +0.007 A 
ATOM     17  C   UNL     1      -7.785  -2.086   6.841  0.00  0.00    +0.020 A 
ATOM     18  C   UNL     1      -9.133  -2.312   7.060  0.00  0.00    +0.041 A 
ATOM     19  C   UNL     1      -9.912  -2.865   6.059  0.00  0.00    +0.020 A 
ATOM     20  C   UNL     1      -9.345  -3.186   4.840  0.00  0.00    +0.007 A 
ATOM     21 CL   UNL     1      -9.845  -1.903   8.589  0.00  0.00    -0.084 Cl
ENDBRANCH  12  15
BRANCH   1  22
ATOM     22  S   UNL     1      -0.668  -2.150   3.743  0.00  0.00    +0.072 S 
ATOM     23  O   UNL     1      -0.407  -3.049   4.813  0.00  0.00    -0.150 OA
ATOM     24  O   UNL     1      -0.290  -0.781   3.790  0.00  0.00    -0.150 OA
BRANCH  22  25
ATOM     25  N   UNL     1       0.052  -2.794   2.398  0.00  0.00    -0.213 N 
ATOM     26  H   UNL     1       0.601  -3.590   2.475  0.00  0.00    +0.174 HD
BRANCH  25  32
ATOM     27  C   UNL     1      -0.517   1.286  -0.285  0.00  0.00    +0.044 C 
ATOM     28  C   UNL     1      -0.411  -0.214  -0.182  0.00  0.00    -0.048 A 
ATOM     29  C   UNL     1      -0.494  -0.991  -1.322  0.00  0.00    +0.007 A 
ATOM     30  C   UNL     1      -0.397  -2.368  -1.234  0.00  0.00    +0.048 A 
ATOM     31  C   UNL     1      -0.215  -2.972  -0.000  0.00  0.00    +0.142 A 
ATOM     32  C   UNL     1      -0.131  -2.189   1.149  0.00  0.00    +0.090 A 
ATOM     33  C   UNL     1      -0.224  -0.808   1.052  0.00  0.00    +0.031 A 
BRANCH  31  34
ATOM     34  O   UNL     1      -0.120  -4.326   0.088  0.00  0.00    -0.493 OA
ATOM     35  C   UNL     1      -0.216  -5.064  -1.132  0.00  0.00    +0.277 C 
ENDBRANCH  31  34
ENDBRANCH  25  32
ENDBRANCH  22  25
ENDBRANCH   1  22
TORSDOF 5
