REMARK  Name = ZINC08789933
REMARK  10 active torsions:
REMARK  status: ('A' for Active; 'I' for Inactive)
REMARK    1  A    between atoms: C_1  and  N_63
REMARK    2  A    between atoms: C_14  and  C_16
REMARK    3  A    between atoms: C_17  and  O_37
REMARK    4  A    between atoms: N_22  and  C_25
REMARK    5  A    between atoms: C_25  and  C_26
REMARK    6  A    between atoms: C_26  and  C_27
REMARK    7  A    between atoms: C_30  and  O_35
REMARK    8  A    between atoms: C_31  and  O_33
REMARK    9  A    between atoms: O_33  and  C_34
REMARK   10  A    between atoms: O_35  and  C_36
REMARK                            x       y       z     vdW  Elec       q    Type
REMARK                         _______ _______ _______ _____ _____    ______ ____
ROOT
ATOM      1  C   UNL     1       6.576  -0.265   0.916  0.00  0.00    +0.069 A 
ATOM      2  C   UNL     1       7.292  -1.334   0.464  0.00  0.00    +0.201 A 
ATOM      3  N   UNL     1       7.776  -2.251   1.362  0.00  0.00    -0.278 N 
ATOM      4  H   UNL     1       8.289  -3.011   1.045  0.00  0.00    +0.173 HD
ATOM      5  C   UNL     1       7.541  -2.106   2.679  0.00  0.00    +0.332 A 
ATOM      6  O   UNL     1       7.974  -2.931   3.459  0.00  0.00    -0.246 OA
ATOM      7  N   UNL     1       6.832  -1.061   3.144  0.00  0.00    -0.260 N 
ATOM      8  C   UNL     1       6.342  -0.134   2.297  0.00  0.00    +0.262 A 
ATOM      9  O   UNL     1       5.701   0.810   2.724  0.00  0.00    -0.267 OA
ENDROOT
BRANCH   1  23
ATOM     10  C   UNL     1       7.938   2.228   0.273  0.00  0.00    -0.095 C 
ATOM     11  C   UNL     1       5.812   3.149  -0.434  0.00  0.00    -0.073 C 
ATOM     12  C   UNL     1       4.335   3.238  -0.024  0.00  0.00    +0.019 C 
ATOM     13  C   UNL     1       3.769   1.841  -0.024  0.00  0.00    -0.022 A 
ATOM     14  C   UNL     1       2.374   1.421  -0.013  0.00  0.00    +0.003 A 
ATOM     15  C   UNL     1       1.150   2.094   0.002  0.00  0.00    +0.010 A 
ATOM     16  C   UNL     1      -0.017   1.384   0.010  0.00  0.00    +0.001 A 
ATOM     17  C   UNL     1       0.002  -0.004   0.002  0.00  0.00    +0.002 A 
ATOM     18  C   UNL     1       1.197  -0.689  -0.014  0.00  0.00    +0.026 A 
ATOM     19  C   UNL     1       2.397   0.012  -0.022  0.00  0.00    +0.047 A 
ATOM     20  N   UNL     1       3.720  -0.375  -0.037  0.00  0.00    -0.359 N 
ATOM     21  H   UNL     1       4.032  -1.294  -0.046  0.00  0.00    +0.166 HD
ATOM     22  C   UNL     1       4.527   0.725  -0.038  0.00  0.00    +0.011 A 
ATOM     23  C   UNL     1       6.038   0.758  -0.050  0.00  0.00    +0.020 C 
ATOM     24  N   UNL     1       6.470   2.108   0.388  0.00  0.00    +0.387 N 
ATOM     25  H   UNL     1       6.200   2.240   1.370  0.00  0.00    -0.081 HD
ENDBRANCH   1  23
BRANCH   2  26
ATOM     26  O   UNL     1       7.526  -1.486  -0.857  0.00  0.00    -0.493 OA
ATOM     27  H   UNL     1       8.041  -2.274  -1.077  0.00  0.00    +0.294 HD
ENDBRANCH   2  26
BRANCH   7  28
ATOM     28  C   UNL     1       6.591  -0.929   4.583  0.00  0.00    +0.134 C 
BRANCH  28  29
ATOM     29  C   UNL     1       5.292  -1.648   4.951  0.00  0.00    +0.057 C 
BRANCH  29  30
ATOM     30  C   UNL     1       5.044  -1.513   6.431  0.00  0.00    -0.042 A 
ATOM     31  C   UNL     1       5.540  -2.464   7.304  0.00  0.00    +0.007 A 
ATOM     32  C   UNL     1       5.321  -2.341   8.663  0.00  0.00    +0.049 A 
ATOM     33  C   UNL     1       4.592  -1.269   9.153  0.00  0.00    +0.161 A 
ATOM     34  C   UNL     1       4.088  -0.315   8.274  0.00  0.00    +0.162 A 
ATOM     35  C   UNL     1       4.316  -0.441   6.914  0.00  0.00    +0.053 A 
BRANCH  34  36
ATOM     36  O   UNL     1       3.372   0.739   8.751  0.00  0.00    -0.491 OA
ATOM     37  C   UNL     1       2.886   1.680   7.791  0.00  0.00    +0.277 C 
ENDBRANCH  34  36
BRANCH  33  38
ATOM     38  O   UNL     1       4.370  -1.150  10.489  0.00  0.00    -0.491 OA
ATOM     39  C   UNL     1       4.917  -2.167  11.331  0.00  0.00    +0.277 C 
ENDBRANCH  33  38
ENDBRANCH  29  30
ENDBRANCH  28  29
ENDBRANCH   7  28
TORSDOF 7
