REMARK  Name = ZINC33712687
REMARK  11 active torsions:
REMARK  status: ('A' for Active; 'I' for Inactive)
REMARK    1  A    between atoms: C_1  and  C_2
REMARK    2  A    between atoms: C_2  and  O_3
REMARK    3  A    between atoms: O_3  and  C_4
REMARK    4  A    between atoms: C_4  and  C_6
REMARK    5  A    between atoms: C_6  and  C_8
REMARK    6  A    between atoms: C_6  and  N_19
REMARK    7  A    between atoms: C_8  and  C_9
REMARK    8  A    between atoms: C_20  and  C_22
REMARK    9  A    between atoms: C_25  and  C_27
REMARK   10  A    between atoms: C_27  and  C_29
REMARK   11  A    between atoms: C_27  and  N_30
REMARK                            x       y       z     vdW  Elec       q    Type
REMARK                         _______ _______ _______ _____ _____    ______ ____
ROOT
ATOM      1  C   UNL     1       4.175   0.620   1.402  0.00  0.00    +0.186 C 
ENDROOT
BRANCH   1   2
ATOM      2  N   UNL     1       3.851   1.937   1.955  0.00  0.00    -0.297 N 
ATOM      3  C   UNL     1       3.745   2.100   3.289  0.00  0.00    +0.266 C 
ATOM      4  O   UNL     1       3.918   1.153   4.033  0.00  0.00    -0.268 OA
ATOM      5  H   UNL     1       3.695   2.793   1.282  0.00  0.00    +0.150 HD
BRANCH   3   6
ATOM      6  C   UNL     1       3.419   3.425   3.846  0.00  0.00    +0.163 A 
ATOM      7  C   UNL     1       3.275   3.735   5.163  0.00  0.00    +0.230 A 
ATOM      8  O   UNL     1       2.983   5.044   5.228  0.00  0.00    -0.449 OA
ATOM      9  C   UNL     1       2.941   5.526   3.978  0.00  0.00    +0.181 A 
ATOM     10  N   UNL     1       3.200   4.567   3.140  0.00  0.00    -0.210 NA
BRANCH   9  11
ATOM     11  C   UNL     1       2.641   6.955   3.603  0.00  0.00    +0.010 C 
ATOM     12  C   UNL     1       1.143   7.220   3.765  0.00  0.00    -0.005 C 
BRANCH  11  13
ATOM     13  N   UNL     1       3.396   7.860   4.479  0.00  0.00    +0.386 N 
ATOM     14  H   UNL     1       3.177   8.902   4.206  0.00  0.00    -0.089 HD
ATOM     15  H   UNL     1       4.473   7.668   4.363  0.00  0.00    -0.089 HD
ATOM     16  H   UNL     1       3.104   7.686   5.525  0.00  0.00    -0.089 HD
ENDBRANCH  11  13
ENDBRANCH   9  11
ENDBRANCH   3   6
ENDBRANCH   1   2
BRANCH   1  17
ATOM     17  C   UNL     1       5.670   0.430   1.398  0.00  0.00    +0.328 C 
ATOM     18  O   UNL     1       6.391   1.306   1.815  0.00  0.00    -0.249 OA
BRANCH  17  19
ATOM     19  O   UNL     1       6.201  -0.711   0.932  0.00  0.00    -0.464 OA
BRANCH  19  21
ATOM     20  C   UNL     1       8.064  -2.183   0.392  0.00  0.00    +0.048 C 
ATOM     21  C   UNL     1       7.649  -0.824   0.959  0.00  0.00    +0.229 C 
ENDBRANCH  19  21
ENDBRANCH  17  19
ENDBRANCH   1  17
BRANCH   1  22
ATOM     22  C   UNL     1       3.646   0.524  -0.031  0.00  0.00    +0.071 C 
BRANCH  22  23
ATOM     23  C   UNL     1       2.140   0.591  -0.015  0.00  0.00    -0.020 A 
ATOM     24  C   UNL     1       1.295  -0.452  -0.013  0.00  0.00    +0.087 A 
ATOM     25  N   UNL     1       0.002  -0.004   0.002  0.00  0.00    -0.360 N 
ATOM     26  H   UNL     1      -0.829  -0.724   0.006  0.00  0.00    +0.165 HD
ATOM     27  C   UNL     1      -0.017   1.373   0.010  0.00  0.00    +0.047 A 
ATOM     28  C   UNL     1       1.322   1.806  -0.001  0.00  0.00    +0.003 A 
ATOM     29  C   UNL     1       1.612   3.171   0.004  0.00  0.00    +0.010 A 
ATOM     30  C   UNL     1       0.593   4.082   0.019  0.00  0.00    +0.001 A 
ATOM     31  C   UNL     1      -0.729   3.659   0.029  0.00  0.00    +0.002 A 
ATOM     32  C   UNL     1      -1.038   2.317   0.029  0.00  0.00    +0.026 A 
ENDBRANCH  22  23
ENDBRANCH   1  22
TORSDOF 9
