REMARK  Name = ZINC39678459
REMARK  6 active torsions:
REMARK  status: ('A' for Active; 'I' for Inactive)
REMARK    1  A    between atoms: C_3  and  C_11
REMARK    2  A    between atoms: C_5  and  O_7
REMARK    3  A    between atoms: O_7  and  C_8
REMARK    4  A    between atoms: C_11  and  N_12
REMARK    5  A    between atoms: C_13  and  C_15
REMARK    6  A    between atoms: C_26  and  C_28
REMARK                            x       y       z     vdW  Elec       q    Type
REMARK                         _______ _______ _______ _____ _____    ______ ____
ROOT
ATOM      1  C   UNL     1       5.656   3.360   3.708  0.00  0.00    +0.100 C 
ATOM      2  C   UNL     1       5.846   1.885   4.127  0.00  0.00    +0.121 C 
ATOM      3  N   UNL     1       7.288   1.619   3.918  0.00  0.00    -0.296 N 
ATOM      4  C   UNL     1       7.961   2.862   4.366  0.00  0.00    +0.115 C 
ATOM      5  C   UNL     1       7.046   3.998   3.869  0.00  0.00    -0.004 C 
ATOM      6  C   UNL     1       7.543   4.527   2.527  0.00  0.00    -0.010 C 
ATOM      7  C   UNL     1       8.901   5.207   2.724  0.00  0.00    -0.082 C 
ATOM      8  N   UNL     1       8.764   6.308   3.685  0.00  0.00    +0.379 N 
ATOM      9  C   UNL     1       8.374   5.780   4.998  0.00  0.00    -0.082 C 
ATOM     10  C   UNL     1       6.994   5.124   4.898  0.00  0.00    -0.010 C 
ATOM     11  C   UNL     1       7.860   0.500   3.432  0.00  0.00    +0.247 C 
ATOM     12  O   UNL     1       7.166  -0.393   2.987  0.00  0.00    -0.270 OA
ATOM     13  H   UNL     1       9.645   6.793   3.767  0.00  0.00    -0.086 HD
ATOM     14  H   UNL     1       8.058   6.951   3.360  0.00  0.00    -0.086 HD
ENDROOT
BRANCH  11  15
ATOM     15  C   UNL     1       9.332   0.358   3.438  0.00  0.00    +0.040 A 
ATOM     16  C   UNL     1      10.106   1.131   4.305  0.00  0.00    +0.033 A 
ATOM     17  C   UNL     1      11.480   0.995   4.307  0.00  0.00    +0.043 A 
ATOM     18  C   UNL     1      12.090   0.093   3.451  0.00  0.00    +0.040 A 
ATOM     19  C   UNL     1      11.327  -0.676   2.589  0.00  0.00    +0.043 A 
ATOM     20  C   UNL     1       9.952  -0.553   2.583  0.00  0.00    +0.033 A 
ATOM     21 CL   UNL     1      12.101  -1.803   1.520  0.00  0.00    -0.083 Cl
ATOM     22 CL   UNL     1      12.445   1.956   5.384  0.00  0.00    -0.083 Cl
ENDBRANCH  11  15
BRANCH   1  24
ATOM     23  N   UNL     1       4.535   4.530   1.839  0.00  0.00    -0.311 N 
ATOM     24  C   UNL     1       5.204   3.443   2.272  0.00  0.00    +0.218 C 
ATOM     25  O   UNL     1       5.442   2.532   1.508  0.00  0.00    -0.275 OA
ATOM     26  H   UNL     1       4.344   5.258   2.450  0.00  0.00    +0.149 HD
BRANCH  23  27
ATOM     27  C   UNL     1       4.095   4.610   0.443  0.00  0.00    +0.139 C 
BRANCH  27  30
ATOM     28  C   UNL     1       3.426   8.233  -0.390  0.00  0.00    +0.004 A 
ATOM     29  C   UNL     1       4.083   7.034  -0.182  0.00  0.00    +0.005 A 
ATOM     30  C   UNL     1       3.376   5.915   0.218  0.00  0.00    -0.027 A 
ATOM     31  C   UNL     1       2.010   5.993   0.411  0.00  0.00    +0.051 A 
ATOM     32  C   UNL     1       1.349   7.195   0.203  0.00  0.00    +0.127 A 
ATOM     33  C   UNL     1       2.061   8.316  -0.198  0.00  0.00    +0.046 A 
BRANCH  32  34
ATOM     34  O   UNL     1       0.005   7.274   0.392  0.00  0.00    -0.434 OA
BRANCH  34  35
ATOM     35  C   UNL     1      -0.609   8.543   0.160  0.00  0.00    +0.541 C 
ATOM     36  F   UNL     1      -0.052   9.495   1.020  0.00  0.00    -0.166 F 
ATOM     37  F   UNL     1      -0.393   8.930  -1.167  0.00  0.00    -0.166 F 
ENDBRANCH  34  35
ENDBRANCH  32  34
ENDBRANCH  27  30
ENDBRANCH  23  27
ENDBRANCH   1  24
TORSDOF 6
