REMARK  Name = ZINC07334231
REMARK  6 active torsions:
REMARK  status: ('A' for Active; 'I' for Inactive)
REMARK    1  A    between atoms: C_1  and  N_53
REMARK    2  A    between atoms: C_2  and  C_3
REMARK    3  A    between atoms: C_2  and  N_53
REMARK    4  A    between atoms: C_10  and  C_11
REMARK    5  A    between atoms: C_10  and  N_53
REMARK    6  A    between atoms: N_13  and  C_14
REMARK                            x       y       z     vdW  Elec       q    Type
REMARK                         _______ _______ _______ _____ _____    ______ ____
ROOT
ATOM      1  C   UNL     1      -8.603   2.060   2.739  0.00  0.00    +0.201 C 
ATOM      2  O   UNL     1      -7.936   1.047   2.767  0.00  0.00    -0.278 OA
ATOM      3  N   UNL     1      -8.068   3.206   2.272  0.00  0.00    -0.287 N 
ATOM      4  H   UNL     1      -8.574   4.032   2.320  0.00  0.00    +0.155 HD
ENDROOT
BRANCH   3   5
ATOM      5  C   UNL     1      -6.782   3.203   1.716  0.00  0.00    +0.037 A 
ATOM      6  C   UNL     1      -5.959   4.311   1.864  0.00  0.00    +0.027 A 
ATOM      7  C   UNL     1      -4.691   4.310   1.316  0.00  0.00    +0.051 A 
ATOM      8  C   UNL     1      -4.236   3.204   0.618  0.00  0.00    +0.167 A 
ATOM      9  C   UNL     1      -5.059   2.090   0.468  0.00  0.00    +0.169 A 
ATOM     10  C   UNL     1      -6.330   2.092   1.017  0.00  0.00    +0.072 A 
ATOM     11  O   UNL     1      -4.389   1.144  -0.254  0.00  0.00    -0.447 OA
ATOM     12  C   UNL     1      -3.009   1.536  -0.209  0.00  0.00    +0.254 C 
ATOM     13  O   UNL     1      -3.047   2.956  -0.009  0.00  0.00    -0.448 OA
ATOM     14  C   UNL     1      -2.322   1.204  -1.530  0.00  0.00    +0.093 C 
ATOM     15  C   UNL     1      -0.860   1.655  -1.474  0.00  0.00    +0.008 C 
ATOM     16  C   UNL     1      -0.151   0.943  -0.320  0.00  0.00    +0.000 C 
ATOM     17  C   UNL     1      -0.838   1.303   1.000  0.00  0.00    +0.008 C 
ATOM     18  C   UNL     1      -2.300   0.852   0.954  0.00  0.00    +0.093 C 
ENDBRANCH   3   5
BRANCH   1  19
ATOM     19  C   UNL     1     -10.028   2.038   3.227  0.00  0.00    +0.019 C 
BRANCH  19  21
ATOM     20  C   UNL     1      -9.588   0.314   4.869  0.00  0.00    -0.095 C 
ATOM     21  N   UNL     1     -10.363   0.665   3.661  0.00  0.00    +0.386 N 
ATOM     22  H   UNL     1     -10.122   0.010   2.908  0.00  0.00    -0.081 HD
BRANCH  21  23
ATOM     23  C   UNL     1     -11.810   0.563   3.941  0.00  0.00    -0.043 C 
BRANCH  23  24
ATOM     24  C   UNL     1     -12.161  -0.886   4.165  0.00  0.00    -0.064 A 
ATOM     25  C   UNL     1     -12.527  -1.681   3.095  0.00  0.00    +0.004 A 
ATOM     26  C   UNL     1     -12.844  -3.010   3.297  0.00  0.00    +0.038 A 
ATOM     27  C   UNL     1     -12.804  -3.544   4.575  0.00  0.00    +0.123 A 
ATOM     28  C   UNL     1     -12.442  -2.745   5.646  0.00  0.00    +0.038 A 
ATOM     29  C   UNL     1     -12.121  -1.417   5.440  0.00  0.00    +0.004 A 
ATOM     30  F   UNL     1     -13.118  -4.843   4.775  0.00  0.00    -0.205 F 
ENDBRANCH  23  24
ENDBRANCH  21  23
ENDBRANCH  19  21
ENDBRANCH   1  19
TORSDOF 5
