REMARK  Name = ZINC45890814
REMARK  8 active torsions:
REMARK  status: ('A' for Active; 'I' for Inactive)
REMARK    1  A    between atoms: C_1  and  C_2
REMARK    2  A    between atoms: C_3  and  N_12
REMARK    3  A    between atoms: C_4  and  C_11
REMARK    4  A    between atoms: C_6  and  N_9
REMARK    5  A    between atoms: C_13  and  C_15
REMARK    6  A    between atoms: C_15  and  C_16
REMARK    7  A    between atoms: C_15  and  C_17
REMARK    8  A    between atoms: C_15  and  C_18
REMARK                            x       y       z     vdW  Elec       q    Type
REMARK                         _______ _______ _______ _____ _____    ______ ____
ROOT
ATOM      1  C   UNL     1       1.457   1.212  -0.363  0.00  0.00    +0.047 C 
ATOM      2  C   UNL     1       0.710  -0.088  -0.212  0.00  0.00    -0.013 A 
ATOM      3  C   UNL     1      -0.087  -0.556  -1.249  0.00  0.00    +0.041 A 
ATOM      4  C   UNL     1      -0.776  -1.753  -1.110  0.00  0.00    -0.013 A 
ATOM      5  C   UNL     1      -0.668  -2.480   0.060  0.00  0.00    +0.044 A 
ATOM      6  C   UNL     1       0.129  -2.013   1.097  0.00  0.00    +0.053 A 
ATOM      7  C   UNL     1       0.823  -0.818   0.956  0.00  0.00    +0.044 A 
ATOM      8 BR   UNL     1       1.914  -0.185   2.365  0.00  0.00    -0.048 Br
ATOM      9 BR   UNL     1      -1.607  -4.111   0.250  0.00  0.00    -0.048 Br
ATOM     10  C   UNL     1      -1.641  -2.260  -2.235  0.00  0.00    +0.047 C 
ENDROOT
BRANCH   3  11
ATOM     11  N   UNL     1      -0.196   0.182  -2.436  0.00  0.00    -0.285 N 
ATOM     12  C   UNL     1       0.192  -0.363  -3.606  0.00  0.00    +0.223 C 
ATOM     13  O   UNL     1       0.560  -1.518  -3.644  0.00  0.00    -0.275 OA
ATOM     14  H   UNL     1      -0.551   1.084  -2.415  0.00  0.00    +0.155 HD
BRANCH  12  15
ATOM     15  C   UNL     1       0.170   0.463  -4.866  0.00  0.00    +0.039 C 
ATOM     16  C   UNL     1       0.654  -0.387  -6.042  0.00  0.00    +0.020 C 
ATOM     17  C   UNL     1      -1.258   0.941  -5.136  0.00  0.00    +0.020 C 
ATOM     18  C   UNL     1       1.090   1.674  -4.698  0.00  0.00    +0.020 C 
ENDBRANCH  12  15
ENDBRANCH   3  11
BRANCH   6  19
ATOM     19  N   UNL     1       0.238  -2.749   2.283  0.00  0.00    -0.356 N 
ATOM     20  H   UNL     1      -0.243  -3.586   2.381  0.00  0.00    +0.142 HD
ATOM     21  H   UNL     1       0.795  -2.423   3.007  0.00  0.00    +0.142 HD
ENDBRANCH   6  19
TORSDOF 3
