REMARK  Name = ZINC62561298
REMARK  6 active torsions:
REMARK  status: ('A' for Active; 'I' for Inactive)
REMARK    1  A    between atoms: C_1  and  C_2
REMARK    2  A    between atoms: C_2  and  C_3
REMARK    3  A    between atoms: C_5  and  N_23
REMARK    4  A    between atoms: N_9  and  C_22
REMARK    5  A    between atoms: C_12  and  C_15
REMARK    6  A    between atoms: C_18  and  C_21
REMARK                            x       y       z     vdW  Elec       q    Type
REMARK                         _______ _______ _______ _____ _____    ______ ____
ROOT
ATOM      1  C   UNL     1      -1.412  -0.526   0.013  0.00  0.00    -0.044 A 
ATOM      2  C   UNL     1      -2.048  -0.765   1.216  0.00  0.00    +0.030 A 
ATOM      3  C   UNL     1      -3.351  -1.246   1.234  0.00  0.00    +0.069 A 
ATOM      4  C   UNL     1      -4.014  -1.486   0.035  0.00  0.00    +0.164 A 
ATOM      5  C   UNL     1      -3.368  -1.243  -1.173  0.00  0.00    +0.080 A 
ATOM      6  C   UNL     1      -2.069  -0.758  -1.181  0.00  0.00    +0.031 A 
ATOM      7  N   UNL     1      -4.047  -1.491  -2.375  0.00  0.00    -0.268 N 
ATOM      8  C   UNL     1      -5.388  -1.651  -2.349  0.00  0.00    +0.265 C 
ATOM      9  O   UNL     1      -5.992  -1.897  -3.372  0.00  0.00    -0.271 OA
ATOM     10  C   UNL     1      -6.131  -1.524  -1.043  0.00  0.00    +0.289 C 
ATOM     11  O   UNL     1      -5.291  -1.955   0.031  0.00  0.00    -0.471 OA
ATOM     12  C   UNL     1      -3.313  -1.574  -3.640  0.00  0.00    +0.138 C 
ENDROOT
BRANCH  10  13
ATOM     13  C   UNL     1      -6.521  -0.084  -0.827  0.00  0.00    +0.002 A 
ATOM     14  C   UNL     1      -5.590   0.821  -0.352  0.00  0.00    +0.008 A 
ATOM     15  C   UNL     1      -5.949   2.141  -0.154  0.00  0.00    +0.004 A 
ATOM     16  C   UNL     1      -7.238   2.556  -0.430  0.00  0.00    -0.050 A 
ATOM     17  C   UNL     1      -8.169   1.651  -0.905  0.00  0.00    +0.004 A 
ATOM     18  C   UNL     1      -7.809   0.332  -1.108  0.00  0.00    +0.008 A 
ATOM     19  C   UNL     1      -7.629   3.995  -0.212  0.00  0.00    +0.044 C 
ENDBRANCH  10  13
BRANCH   3  20
ATOM     20  N   UNL     1      -3.994  -1.488   2.453  0.00  0.00    -0.355 N 
ATOM     21  H   UNL     1      -3.530  -1.321   3.288  0.00  0.00    +0.142 HD
ATOM     22  H   UNL     1      -4.904  -1.824   2.463  0.00  0.00    +0.142 HD
ENDBRANCH   3  20
BRANCH   1  24
ATOM     23  C   UNL     1      -0.019   1.526   0.010  0.00  0.00    +0.009 C 
ATOM     24  C   UNL     1       0.002  -0.004   0.002  0.00  0.00    +0.032 C 
ENDBRANCH   1  24
TORSDOF 3
