REMARK  Name = ZINC21055229
REMARK  13 active torsions:
REMARK  status: ('A' for Active; 'I' for Inactive)
REMARK    1  A    between atoms: C_1  and  C_2
REMARK    2  A    between atoms: C_7  and  O_8
REMARK    3  A    between atoms: O_8  and  C_9
REMARK    4  A    between atoms: C_9  and  C_11
REMARK    5  A    between atoms: C_9  and  C_12
REMARK    6  A    between atoms: N_14  and  C_15
REMARK    7  A    between atoms: N_14  and  C_19
REMARK    8  A    between atoms: C_15  and  C_16
REMARK    9  A    between atoms: C_16  and  O_17
REMARK   10  A    between atoms: O_17  and  C_18
REMARK   11  A    between atoms: C_20  and  N_35
REMARK   12  A    between atoms: N_21  and  C_28
REMARK   13  A    between atoms: C_28  and  C_29
REMARK                            x       y       z     vdW  Elec       q    Type
REMARK                         _______ _______ _______ _____ _____    ______ ____
ROOT
ATOM      1  C   UNL     1       2.388   1.106   0.236  0.00  0.00    +0.140 A 
ATOM      2  C   UNL     1       2.310   0.251   1.317  0.00  0.00    +0.128 A 
ATOM      3  N   UNL     1       3.390  -0.543   1.625  0.00  0.00    -0.276 N 
ATOM      4  C   UNL     1       4.513  -0.479   0.888  0.00  0.00    +0.331 A 
ATOM      5  O   UNL     1       5.459  -1.186   1.180  0.00  0.00    -0.246 OA
ATOM      6  N   UNL     1       4.610   0.351  -0.166  0.00  0.00    -0.273 N 
ATOM      7  H   UNL     1       5.538   0.386  -0.755  0.00  0.00    +0.173 HD
ATOM      8  C   UNL     1       3.579   1.146  -0.513  0.00  0.00    +0.277 A 
ATOM      9  O   UNL     1       3.677   1.895  -1.471  0.00  0.00    -0.266 OA
ENDROOT
BRANCH   1  12
ATOM     10  C   UNL     1       0.122   1.374  -0.476  0.00  0.00    +0.261 C 
ATOM     11  O   UNL     1       0.025   0.169  -0.573  0.00  0.00    -0.271 OA
ATOM     12  N   UNL     1       1.296   1.929  -0.109  0.00  0.00    -0.259 N 
BRANCH  10  13
ATOM     13  C   UNL     1      -1.067   2.252  -0.772  0.00  0.00    +0.256 C 
ATOM     14  C   UNL     1      -0.906   2.878  -2.159  0.00  0.00    +0.062 C 
BRANCH  13  15
ATOM     15  O   UNL     1      -2.259   1.466  -0.740  0.00  0.00    -0.480 OA
BRANCH  15  22
ATOM     16  C   UNL     1      -4.611  -0.089  -0.559  0.00  0.00    +0.047 C 
ATOM     17  C   UNL     1      -4.606   1.404  -0.356  0.00  0.00    -0.007 A 
ATOM     18  C   UNL     1      -5.784   2.066  -0.068  0.00  0.00    +0.027 A 
ATOM     19  C   UNL     1      -5.781   3.437   0.119  0.00  0.00    +0.041 A 
ATOM     20  C   UNL     1      -4.598   4.148   0.018  0.00  0.00    +0.023 A 
ATOM     21  C   UNL     1      -3.417   3.489  -0.265  0.00  0.00    +0.047 A 
ATOM     22  C   UNL     1      -3.420   2.115  -0.458  0.00  0.00    +0.125 A 
ATOM     23 CL   UNL     1      -7.262   4.266   0.481  0.00  0.00    -0.084 Cl
ENDBRANCH  15  22
ENDBRANCH  13  15
ENDBRANCH  10  13
BRANCH  12  24
ATOM     24  C   UNL     1       1.436   3.387  -0.068  0.00  0.00    +0.142 C 
BRANCH  24  25
ATOM     25  C   UNL     1       1.091   3.893   1.335  0.00  0.00    +0.178 C 
BRANCH  25  26
ATOM     26  O   UNL     1       2.050   3.395   2.269  0.00  0.00    -0.381 OA
ATOM     27  C   UNL     1       1.819   3.811   3.617  0.00  0.00    +0.194 C 
ENDBRANCH  25  26
ENDBRANCH  24  25
ENDBRANCH  12  24
ENDBRANCH   1  12
BRANCH   2  28
ATOM     28  N   UNL     1       1.164   0.191   2.073  0.00  0.00    -0.343 N 
ATOM     29  H   UNL     1       1.108  -0.492   2.933  0.00  0.00    +0.144 HD
ATOM     30  H   UNL     1       0.303   0.826   1.819  0.00  0.00    +0.144 HD
ENDBRANCH   2  28
BRANCH   3  31
ATOM     31  C   UNL     1       3.318  -1.458   2.766  0.00  0.00    +0.163 C 
BRANCH  31  32
ATOM     32  C   UNL     1       3.795  -0.751   4.009  0.00  0.00    -0.028 A 
ATOM     33  C   UNL     1       5.131  -0.795   4.360  0.00  0.00    +0.005 A 
ATOM     34  C   UNL     1       5.569  -0.142   5.497  0.00  0.00    +0.000 A 
ATOM     35  C   UNL     1       4.668   0.547   6.288  0.00  0.00    +0.000 A 
ATOM     36  C   UNL     1       3.331   0.587   5.940  0.00  0.00    +0.000 A 
ATOM     37  C   UNL     1       2.894  -0.062   4.800  0.00  0.00    +0.005 A 
ENDBRANCH  31  32
ENDBRANCH   3  31
TORSDOF 10
