REMARK  Name = ZINC61539194
REMARK  8 active torsions:
REMARK  status: ('A' for Active; 'I' for Inactive)
REMARK    1  A    between atoms: C_1  and  C_2
REMARK    2  A    between atoms: C_5  and  C_7
REMARK    3  A    between atoms: C_7  and  C_9
REMARK    4  A    between atoms: C_7  and  N_10
REMARK    5  A    between atoms: C_13  and  O_18
REMARK    6  A    between atoms: O_18  and  C_19
REMARK    7  A    between atoms: C_19  and  C_20
REMARK    8  A    between atoms: C_19  and  C_21
REMARK                            x       y       z     vdW  Elec       q    Type
REMARK                         _______ _______ _______ _____ _____    ______ ____
ROOT
ATOM      1  N   UNL     1       2.201  -4.137  -0.921  0.00  0.00    -0.306 N 
ATOM      2  C   UNL     1       2.547  -5.339  -1.502  0.00  0.00    +0.223 A 
ATOM      3  N   UNL     1       3.601  -5.410  -2.309  0.00  0.00    -0.161 NA
ATOM      4  C   UNL     1       3.931  -6.567  -2.866  0.00  0.00    +0.324 A 
ATOM      5  N   UNL     1       3.207  -7.654  -2.618  0.00  0.00    -0.164 NA
ATOM      6  C   UNL     1       2.158  -7.583  -1.814  0.00  0.00    +0.230 A 
ATOM      7  N   UNL     1       1.829  -6.431  -1.252  0.00  0.00    -0.184 NA
ATOM      8 CL   UNL     1       1.216  -9.004  -1.492  0.00  0.00    -0.041 Cl
ATOM      9  H   UNL     1       2.725  -3.341  -1.103  0.00  0.00    +0.150 HD
ENDROOT
BRANCH   1  10
ATOM     10  C   UNL     1       1.043  -4.062  -0.027  0.00  0.00    +0.107 C 
ATOM     11  C   UNL     1       1.465  -4.458   1.389  0.00  0.00    +0.033 C 
BRANCH  10  16
ATOM     12  C   UNL     1      -0.018   1.503   0.010  0.00  0.00    +0.051 C 
ATOM     13  C   UNL     1       0.002  -0.004   0.002  0.00  0.00    -0.013 A 
ATOM     14  C   UNL     1      -1.039  -0.872   0.002  0.00  0.00    +0.011 A 
ATOM     15  C   UNL     1      -0.780  -2.230  -0.007  0.00  0.00    +0.013 A 
ATOM     16  C   UNL     1       0.507  -2.653  -0.016  0.00  0.00    +0.010 A 
ATOM     17  S   UNL     1       1.404  -1.109  -0.018  0.00  0.00    -0.097 S 
ENDBRANCH  10  16
ENDBRANCH   1  10
BRANCH   4  18
ATOM     18  O   UNL     1       5.003  -6.642  -3.688  0.00  0.00    -0.460 OA
BRANCH  18  19
ATOM     19  C   UNL     1       5.300  -7.920  -4.254  0.00  0.00    +0.171 C 
ATOM     20  C   UNL     1       5.962  -7.733  -5.620  0.00  0.00    +0.052 C 
ATOM     21  C   UNL     1       6.250  -8.680  -3.326  0.00  0.00    +0.052 C 
ENDBRANCH  18  19
ENDBRANCH   4  18
TORSDOF 4
