REMARK  Name = ZINC16208829
REMARK  7 active torsions:
REMARK  status: ('A' for Active; 'I' for Inactive)
REMARK    1  A    between atoms: C_1  and  C_2
REMARK    2  A    between atoms: C_8  and  C_10
REMARK    3  A    between atoms: C_10  and  C_12
REMARK    4  A    between atoms: C_10  and  O_13
REMARK    5  A    between atoms: O_13  and  C_14
REMARK    6  A    between atoms: C_14  and  C_16
REMARK    7  A    between atoms: C_21  and  N_22
REMARK                            x       y       z     vdW  Elec       q    Type
REMARK                         _______ _______ _______ _____ _____    ______ ____
ROOT
ATOM      1  C   UNL     1      -0.612  -4.863   5.225  0.00  0.00    +0.342 C 
ATOM      2  O   UNL     1       0.301  -4.172   5.633  0.00  0.00    -0.245 OA
ENDROOT
BRANCH   1   3
ATOM      3  C   UNL     1      -1.367  -5.713   6.162  0.00  0.00    +0.082 A 
ATOM      4  C   UNL     1      -2.494  -6.415   5.723  0.00  0.00    +0.037 A 
ATOM      5  C   UNL     1      -3.196  -7.209   6.605  0.00  0.00    +0.043 A 
ATOM      6  C   UNL     1      -2.790  -7.316   7.927  0.00  0.00    +0.042 A 
ATOM      7  C   UNL     1      -1.679  -6.630   8.375  0.00  0.00    +0.064 A 
ATOM      8  C   UNL     1      -0.955  -5.829   7.499  0.00  0.00    +0.057 A 
ATOM      9 CL   UNL     1      -1.182  -6.773  10.032  0.00  0.00    -0.082 Cl
ATOM     10 CL   UNL     1      -4.595  -8.079   6.057  0.00  0.00    -0.083 Cl
BRANCH   8  11
ATOM     11  N   UNL     1       0.167  -5.142   7.946  0.00  0.00    -0.356 N 
ATOM     12  H   UNL     1       0.621  -4.519   7.357  0.00  0.00    +0.142 HD
ATOM     13  H   UNL     1       0.496  -5.285   8.847  0.00  0.00    +0.142 HD
ENDBRANCH   8  11
ENDBRANCH   1   3
BRANCH   1  14
ATOM     14  O   UNL     1      -0.934  -4.852   3.917  0.00  0.00    -0.449 OA
BRANCH  14  15
ATOM     15  C   UNL     1      -0.161  -4.003   3.066  0.00  0.00    +0.259 C 
ATOM     16  C   UNL     1       1.040  -4.782   2.525  0.00  0.00    +0.062 C 
BRANCH  15  24
ATOM     17  C   UNL     1       0.022   1.431  -0.085  0.00  0.00    +0.007 C 
ATOM     18  C   UNL     1       0.054  -0.099  -0.069  0.00  0.00    -0.011 C 
ATOM     19  C   UNL     1      -1.379  -0.639  -0.072  0.00  0.00    +0.022 C 
ATOM     20  C   UNL     1      -1.343  -2.170  -0.091  0.00  0.00    +0.108 C 
ATOM     21  N   UNL     1      -0.523  -2.638   1.035  0.00  0.00    -0.298 N 
ATOM     22  C   UNL     1       0.840  -2.112   1.183  0.00  0.00    +0.108 C 
ATOM     23  C   UNL     1       0.780  -0.581   1.188  0.00  0.00    +0.022 C 
ATOM     24  C   UNL     1      -1.014  -3.533   1.916  0.00  0.00    +0.256 C 
ATOM     25  O   UNL     1      -2.141  -3.960   1.783  0.00  0.00    -0.272 OA
ENDBRANCH  15  24
ENDBRANCH  14  15
ENDBRANCH   1  14
TORSDOF 5
