REMARK  Name = ZINC63478675
REMARK  6 active torsions:
REMARK  status: ('A' for Active; 'I' for Inactive)
REMARK    1  A    between atoms: C_1  and  C_2
REMARK    2  A    between atoms: C_2  and  C_3
REMARK    3  A    between atoms: C_3  and  C_4
REMARK    4  A    between atoms: C_4  and  N_5
REMARK    5  A    between atoms: C_10  and  C_28
REMARK    6  A    between atoms: C_28  and  C_29
REMARK                            x       y       z     vdW  Elec       q    Type
REMARK                         _______ _______ _______ _____ _____    ______ ____
ROOT
ATOM      1  N   UNL     1      -2.787  -2.571   0.015  0.00  0.00    -0.242 N 
ATOM      2  C   UNL     1      -3.457  -2.822   1.145  0.00  0.00    +0.227 C 
ATOM      3  O   UNL     1      -3.023  -2.665   2.266  0.00  0.00    -0.275 OA
ATOM      4  C   UNL     1      -4.840  -3.330   0.808  0.00  0.00    +0.107 C 
ATOM      5  C   UNL     1      -4.947  -4.816   1.215  0.00  0.00    +0.072 C 
ATOM      6  N   UNL     1      -5.585  -5.485   0.050  0.00  0.00    -0.295 NA
ATOM      7  C   UNL     1      -4.980  -4.824  -1.121  0.00  0.00    +0.136 C 
ATOM      8  C   UNL     1      -4.853  -3.326  -0.747  0.00  0.00    +0.122 C 
ATOM      9  C   UNL     1      -3.477  -2.815  -1.105  0.00  0.00    +0.228 C 
ATOM     10  O   UNL     1      -3.061  -2.654  -2.233  0.00  0.00    -0.275 OA
ATOM     11  C   UNL     1      -3.650  -5.430  -1.468  0.00  0.00    +0.006 A 
ATOM     12  C   UNL     1      -2.467  -5.577  -0.778  0.00  0.00    +0.046 A 
ATOM     13  C   UNL     1      -1.386  -6.200  -1.381  0.00  0.00    +0.124 A 
ATOM     14  C   UNL     1      -1.500  -6.673  -2.678  0.00  0.00    +0.040 A 
ATOM     15  C   UNL     1      -2.683  -6.526  -3.370  0.00  0.00    +0.026 A 
ATOM     16  C   UNL     1      -3.774  -5.901  -2.771  0.00  0.00    +0.039 A 
ATOM     17  N   UNL     1      -5.057  -5.637  -3.260  0.00  0.00    -0.283 N 
ATOM     18  C   UNL     1      -5.826  -5.006  -2.352  0.00  0.00    +0.243 C 
ATOM     19  O   UNL     1      -6.977  -4.654  -2.497  0.00  0.00    -0.273 OA
ATOM     20  F   UNL     1      -0.224  -6.345  -0.706  0.00  0.00    -0.205 F 
ATOM     21  H   UNL     1      -5.387  -6.474   0.049  0.00  0.00    +0.124 HD
ATOM     22  H   UNL     1      -5.358  -5.880  -4.149  0.00  0.00    +0.155 HD
ENDROOT
BRANCH   1  23
ATOM     23  C   UNL     1      -1.413  -2.063   0.004  0.00  0.00    +0.116 C 
BRANCH  23  24
ATOM     24  C   UNL     1      -1.433  -0.534   0.013  0.00  0.00    +0.019 C 
BRANCH  24  26
ATOM     25  C   UNL     1      -0.019   1.526   0.010  0.00  0.00    +0.004 C 
ATOM     26  C   UNL     1       0.002  -0.004   0.002  0.00  0.00    -0.002 C 
ENDBRANCH  24  26
ENDBRANCH  23  24
ENDBRANCH   1  23
BRANCH   5  27
ATOM     27  C   UNL     1      -5.822  -4.964   2.462  0.00  0.00    +0.052 C 
BRANCH  27  28
ATOM     28  C   UNL     1      -5.813  -6.402   2.913  0.00  0.00    -0.040 C 
ATOM     29  C   UNL     1      -5.014  -6.954   3.856  0.00  0.00    -0.001 A 
ATOM     30  C   UNL     1      -3.955  -6.402   4.708  0.00  0.00    +0.010 A 
ATOM     31  C   UNL     1      -3.318  -7.220   5.576  0.00  0.00    +0.001 A 
ATOM     32  C   UNL     1      -3.643  -8.580   5.681  0.00  0.00    +0.002 A 
ATOM     33  C   UNL     1      -4.605  -9.159   4.931  0.00  0.00    +0.026 A 
ATOM     34  C   UNL     1      -5.339  -8.392   3.985  0.00  0.00    +0.043 A 
ATOM     35  N   UNL     1      -6.301  -8.717   3.156  0.00  0.00    -0.380 N 
ATOM     36  C   UNL     1      -6.699  -7.519   2.409  0.00  0.00    +0.144 C 
ATOM     37  H   UNL     1      -6.687  -9.601   3.055  0.00  0.00    +0.160 HD
ENDBRANCH  27  28
ENDBRANCH   5  27
TORSDOF 5
