REMARK  Name = ZINC63625186
REMARK  4 active torsions:
REMARK  status: ('A' for Active; 'I' for Inactive)
REMARK    1  A    between atoms: C_3  and  N_18
REMARK    2  A    between atoms: C_6  and  C_7
REMARK    3  A    between atoms: N_18  and  S_19
REMARK    4  A    between atoms: S_19  and  C_22
REMARK                            x       y       z     vdW  Elec       q    Type
REMARK                         _______ _______ _______ _____ _____    ______ ____
ROOT
ATOM      1  C   UNL     1      -0.001   1.321  -0.113  0.00  0.00    +0.008 A 
ATOM      2  C   UNL     1       1.172   2.050  -0.096  0.00  0.00    +0.025 A 
ATOM      3  C   UNL     1       2.395   1.393  -0.038  0.00  0.00    +0.048 A 
ATOM      4  C   UNL     1       2.433   0.005   0.004  0.00  0.00    +0.025 A 
ATOM      5  C   UNL     1       1.255  -0.718  -0.013  0.00  0.00    +0.008 A 
ATOM      6  C   UNL     1       0.040  -0.060  -0.071  0.00  0.00    -0.021 A 
ENDROOT
BRANCH   6   7
ATOM      7  C   UNL     1      -1.242  -0.852  -0.089  0.00  0.00    +0.133 C 
ATOM      8  C   UNL     1      -1.482  -1.425  -1.468  0.00  0.00    +0.012 C 
ATOM      9  C   UNL     1      -1.504  -2.769  -1.316  0.00  0.00    -0.002 A 
ATOM     10  C   UNL     1      -1.694  -3.873  -2.264  0.00  0.00    +0.029 A 
ATOM     11  C   UNL     1      -1.664  -5.146  -1.803  0.00  0.00    +0.042 A 
ATOM     12  C   UNL     1      -1.458  -5.434  -0.446  0.00  0.00    +0.022 A 
ATOM     13  C   UNL     1      -1.276  -4.473   0.484  0.00  0.00    +0.027 A 
ATOM     14  C   UNL     1      -1.288  -3.100   0.111  0.00  0.00    +0.043 A 
ATOM     15  N   UNL     1      -1.139  -2.002   0.815  0.00  0.00    -0.374 N 
ATOM     16 CL   UNL     1      -1.888  -6.455  -2.921  0.00  0.00    -0.084 Cl
ATOM     17  H   UNL     1      -0.986  -1.959   1.772  0.00  0.00    +0.161 HD
ENDBRANCH   6   7
BRANCH   3  18
ATOM     18  N   UNL     1       3.583   2.126  -0.021  0.00  0.00    -0.216 N 
ATOM     19  H   UNL     1       3.711   2.857  -0.645  0.00  0.00    +0.174 HD
BRANCH  18  20
ATOM     20  S   UNL     1       4.775   1.747   1.064  0.00  0.00    +0.072 S 
ATOM     21  O   UNL     1       5.025   0.355   0.923  0.00  0.00    -0.150 OA
ATOM     22  O   UNL     1       5.795   2.723   0.905  0.00  0.00    -0.150 OA
BRANCH  20  23
ATOM     23  C   UNL     1       4.104   1.978   2.677  0.00  0.00    +0.109 A 
ATOM     24  C   UNL     1       4.111   3.233   3.255  0.00  0.00    +0.030 A 
ATOM     25  C   UNL     1       3.584   3.415   4.520  0.00  0.00    +0.017 A 
ATOM     26  C   UNL     1       3.050   2.340   5.207  0.00  0.00    +0.018 A 
ATOM     27  C   UNL     1       3.044   1.084   4.628  0.00  0.00    +0.017 A 
ATOM     28  C   UNL     1       3.566   0.904   3.361  0.00  0.00    +0.030 A 
ATOM     29 BR   UNL     1       2.330   2.588   6.938  0.00  0.00    -0.050 Br
ENDBRANCH  20  23
ENDBRANCH  18  20
ENDBRANCH   3  18
TORSDOF 4
