REMARK  Name = ZINC17175428
REMARK  4 active torsions:
REMARK  status: ('A' for Active; 'I' for Inactive)
REMARK    1  A    between atoms: C_7  and  C_16
REMARK    2  A    between atoms: N_17  and  C_18
REMARK    3  A    between atoms: C_21  and  S_24
REMARK    4  A    between atoms: S_24  and  N_27
REMARK                            x       y       z     vdW  Elec       q    Type
REMARK                         _______ _______ _______ _____ _____    ______ ____
ROOT
ATOM      1  C   UNL     1       2.309   5.481   0.009  0.00  0.00    +0.120 C 
ATOM      2  N   UNL     1       3.427   6.149   0.100  0.00  0.00    -0.255 NA
ENDROOT
BRANCH   1   9
ATOM      3  C   UNL     1      -1.253   3.136   0.072  0.00  0.00    +0.001 A 
ATOM      4  C   UNL     1      -1.196   1.743   0.064  0.00  0.00    +0.002 A 
ATOM      5  C   UNL     1      -0.013   1.076   0.036  0.00  0.00    +0.028 A 
ATOM      6  C   UNL     1       1.198   1.802   0.014  0.00  0.00    +0.072 A 
ATOM      7  C   UNL     1       1.132   3.265   0.022  0.00  0.00    +0.010 A 
ATOM      8  C   UNL     1      -0.123   3.894   0.052  0.00  0.00    +0.010 A 
ATOM      9  C   UNL     1       2.329   4.015   0.001  0.00  0.00    +0.011 A 
ATOM     10  C   UNL     1       3.547   3.299  -0.028  0.00  0.00    +0.010 A 
ATOM     11  C   UNL     1       4.784   3.962  -0.050  0.00  0.00    +0.012 A 
ATOM     12  C   UNL     1       5.934   3.237  -0.076  0.00  0.00    +0.021 A 
ATOM     13  C   UNL     1       5.915   1.841  -0.077  0.00  0.00    +0.043 A 
ATOM     14  C   UNL     1       4.750   1.142  -0.062  0.00  0.00    +0.048 A 
ATOM     15  C   UNL     1       3.520   1.834  -0.034  0.00  0.00    +0.074 A 
ATOM     16  N   UNL     1       2.368   1.173  -0.013  0.00  0.00    -0.247 NA
ATOM     17 CL   UNL     1       7.420   0.976  -0.103  0.00  0.00    -0.083 Cl
ENDBRANCH   1   9
BRANCH   2  18
ATOM     18  C   UNL     1       3.408   7.514   0.107  0.00  0.00    +0.064 A 
ATOM     19  C   UNL     1       2.617   8.210  -0.811  0.00  0.00    +0.029 A 
ATOM     20  C   UNL     1       2.600   9.589  -0.795  0.00  0.00    +0.031 A 
ATOM     21  C   UNL     1       3.371  10.284   0.121  0.00  0.00    +0.113 A 
ATOM     22  C   UNL     1       4.161   9.601   1.030  0.00  0.00    +0.031 A 
ATOM     23  C   UNL     1       4.184   8.222   1.029  0.00  0.00    +0.029 A 
BRANCH  21  24
ATOM     24  S   UNL     1       3.347  12.045   0.130  0.00  0.00    +0.102 S 
ATOM     25  O   UNL     1       2.113  12.438  -0.456  0.00  0.00    -0.146 OA
ATOM     26  O   UNL     1       3.732  12.450   1.437  0.00  0.00    -0.146 OA
BRANCH  24  27
ATOM     27  N   UNL     1       4.542  12.557  -0.895  0.00  0.00    -0.093 NA
ATOM     28  C   UNL     1       4.744  13.832  -1.076  0.00  0.00    +0.212 C 
ATOM     29  N   UNL     1       3.965  14.752  -0.416  0.00  0.00    -0.369 N 
ATOM     30  N   UNL     1       5.737  14.256  -1.927  0.00  0.00    -0.369 N 
ATOM     31  H   UNL     1       4.135  15.828  -0.569  0.00  0.00    +0.159 HD
ATOM     32  H   UNL     1       3.171  14.412   0.266  0.00  0.00    +0.159 HD
ATOM     33  H   UNL     1       5.907  15.332  -2.080  0.00  0.00    +0.159 HD
ATOM     34  H   UNL     1       6.360  13.520  -2.456  0.00  0.00    +0.159 HD
ENDBRANCH  24  27
ENDBRANCH  21  24
ENDBRANCH   2  18
TORSDOF 4
