REMARK  Name = ZINC06830989
REMARK  9 active torsions:
REMARK  status: ('A' for Active; 'I' for Inactive)
REMARK    1  A    between atoms: C_1  and  C_2
REMARK    2  A    between atoms: C_2  and  C_4
REMARK    3  A    between atoms: C_2  and  S_15
REMARK    4  A    between atoms: N_6  and  C_7
REMARK    5  A    between atoms: C_7  and  C_13
REMARK    6  A    between atoms: S_15  and  C_16
REMARK    7  A    between atoms: N_21  and  C_22
REMARK    8  A    between atoms: C_27  and  O_28
REMARK    9  A    between atoms: O_28  and  C_29
REMARK                            x       y       z     vdW  Elec       q    Type
REMARK                         _______ _______ _______ _____ _____    ______ ____
ROOT
ATOM      1  S   UNL     1      -0.024   1.817   0.100  0.00  0.00    -0.084 S 
ENDROOT
BRANCH   1   2
ATOM      2  C   UNL     1       1.678   2.270   0.121  0.00  0.00    +0.161 A 
ATOM      3  N   UNL     1       2.740   1.524   0.362  0.00  0.00    -0.133 NA
ATOM      4  N   UNL     1       3.994   2.087   0.324  0.00  0.00    -0.125 NA
ATOM      5  C   UNL     1       4.130   3.371   0.057  0.00  0.00    +0.187 A 
ATOM      6  S   UNL     1       2.428   3.865  -0.169  0.00  0.00    -0.024 S 
ATOM      7  N   UNL     1       5.288   4.136  -0.026  0.00  0.00    -0.289 N 
ATOM      8  H   UNL     1       5.227   5.097  -0.146  0.00  0.00    +0.154 HD
BRANCH   7   9
ATOM      9  C   UNL     1       6.541   3.520   0.065  0.00  0.00    +0.075 A 
ATOM     10  C   UNL     1       6.639   2.136   0.056  0.00  0.00    +0.027 A 
ATOM     11  C   UNL     1       7.878   1.531   0.145  0.00  0.00    +0.002 A 
ATOM     12  C   UNL     1       9.022   2.301   0.243  0.00  0.00    +0.004 A 
ATOM     13  C   UNL     1       8.933   3.680   0.252  0.00  0.00    +0.047 A 
ATOM     14  C   UNL     1       7.696   4.295   0.158  0.00  0.00    +0.141 A 
BRANCH  14  15
ATOM     15  O   UNL     1       7.607   5.653   0.161  0.00  0.00    -0.493 OA
ATOM     16  C   UNL     1       8.831   6.383   0.259  0.00  0.00    +0.277 C 
ENDBRANCH  14  15
ENDBRANCH   7   9
ENDBRANCH   1   2
BRANCH   1  18
ATOM     17  C   UNL     1       0.691  -0.716  -0.646  0.00  0.00    +0.029 C 
ATOM     18  C   UNL     1      -0.011   0.043   0.482  0.00  0.00    +0.136 C 
BRANCH  18  19
ATOM     19  C   UNL     1      -1.427  -0.453   0.616  0.00  0.00    +0.227 C 
ATOM     20  O   UNL     1      -2.330   0.131   0.053  0.00  0.00    -0.275 OA
ATOM     21  N   UNL     1      -1.692  -1.544   1.361  0.00  0.00    -0.296 N 
ATOM     22  H   UNL     1      -0.970  -2.010   1.811  0.00  0.00    +0.150 HD
BRANCH  21  23
ATOM     23  C   UNL     1      -3.069  -2.026   1.491  0.00  0.00    +0.121 C 
ATOM     24  C   UNL     1      -3.935  -0.932   2.118  0.00  0.00    +0.041 C 
ATOM     25  C   UNL     1      -5.373  -1.435   2.255  0.00  0.00    +0.003 C 
ATOM     26  C   UNL     1      -5.396  -2.678   3.147  0.00  0.00    +0.000 C 
ATOM     27  C   UNL     1      -4.530  -3.772   2.519  0.00  0.00    +0.003 C 
ATOM     28  C   UNL     1      -3.092  -3.269   2.383  0.00  0.00    +0.041 C 
BRANCH  23  29
ATOM     29  C   UNL     1      -3.597  -2.368   0.160  0.00  0.00    +0.088 C 
ATOM     30  N   UNL     1      -4.005  -2.631  -0.867  0.00  0.00    -0.194 NA
ENDBRANCH  23  29
ENDBRANCH  21  23
ENDBRANCH  18  19
ENDBRANCH   1  18
TORSDOF 7
