REMARK  Name = ZINC52291148
REMARK  4 active torsions:
REMARK  status: ('A' for Active; 'I' for Inactive)
REMARK    1  A    between atoms: C_1  and  C_2
REMARK    2  A    between atoms: C_5  and  N_7
REMARK    3  A    between atoms: N_7  and  C_8
REMARK    4  A    between atoms: C_13  and  N_14
REMARK                            x       y       z     vdW  Elec       q    Type
REMARK                         _______ _______ _______ _____ _____    ______ ____
ROOT
ATOM      1  C   UNL     1       1.387  -0.330   3.520  0.00  0.00    +0.060 A 
ATOM      2  C   UNL     1       0.997  -1.636   3.810  0.00  0.00    +0.026 A 
ATOM      3  C   UNL     1       1.078  -2.098   5.109  0.00  0.00    +0.019 A 
ATOM      4  C   UNL     1       1.542  -1.263   6.097  0.00  0.00    +0.041 A 
ATOM      5  C   UNL     1       1.945   0.067   5.840  0.00  0.00    +0.110 A 
ATOM      6  C   UNL     1       1.857   0.511   4.505  0.00  0.00    +0.173 A 
ATOM      7  N   UNL     1       2.368   0.721   6.942  0.00  0.00    -0.245 NA
ATOM      8  C   UNL     1       2.392   0.159   8.116  0.00  0.00    +0.157 A 
ATOM      9  S   UNL     1       1.815  -1.399   7.845  0.00  0.00    -0.075 S 
ENDROOT
BRANCH   6  10
ATOM     10  N   UNL     1       2.268   1.891   4.159  0.00  0.00    +0.060 N 
ATOM     11  O   UNL     1       1.461   2.789   4.198  0.00  0.00    -0.126 OA
ATOM     12  O   UNL     1       3.412   2.118   3.839  0.00  0.00    -0.126 OA
ENDBRANCH   6  10
BRANCH   1  13
ATOM     13  N   UNL     1       1.303   0.135   2.203  0.00  0.00    -0.339 N 
ATOM     14  H   UNL     1       1.649   1.013   1.976  0.00  0.00    +0.146 HD
BRANCH  13  18
ATOM     15  C   UNL     1       0.420   1.502  -0.214  0.00  0.00    +0.009 C 
ATOM     16  C   UNL     1       0.220  -0.012  -0.113  0.00  0.00    +0.008 C 
ATOM     17  C   UNL     1       1.471  -0.893  -0.137  0.00  0.00    +0.027 C 
ATOM     18  C   UNL     1       0.693  -0.703   1.168  0.00  0.00    +0.074 C 
ENDBRANCH  13  18
ENDBRANCH   1  13
TORSDOF 3
