REMARK  Name = ZINC63831411
REMARK  8 active torsions:
REMARK  status: ('A' for Active; 'I' for Inactive)
REMARK    1  A    between atoms: C_1  and  C_2
REMARK    2  A    between atoms: C_4  and  N_17
REMARK    3  A    between atoms: N_8  and  C_11
REMARK    4  A    between atoms: N_9  and  C_10
REMARK    5  A    between atoms: C_18  and  C_20
REMARK    6  A    between atoms: C_20  and  N_21
REMARK    7  A    between atoms: C_24  and  C_29
REMARK    8  A    between atoms: C_29  and  C_30
REMARK                            x       y       z     vdW  Elec       q    Type
REMARK                         _______ _______ _______ _____ _____    ______ ____
ROOT
ATOM      1  C   UNL     1       2.521   0.438  -4.259  0.00  0.00    +0.213 C 
ENDROOT
BRANCH   1   2
ATOM      2  N   UNL     1       2.335  -0.023  -5.636  0.00  0.00    -0.216 N 
ATOM      3  C   UNL     1       2.960  -1.093  -6.168  0.00  0.00    +0.244 C 
ATOM      4  O   UNL     1       3.753  -1.826  -5.616  0.00  0.00    -0.273 OA
ATOM      5  C   UNL     1       2.466  -1.188  -7.597  0.00  0.00    +0.165 C 
ATOM      6  N   UNL     1       1.532  -0.055  -7.717  0.00  0.00    -0.287 N 
ATOM      7  C   UNL     1       1.519   0.561  -6.521  0.00  0.00    +0.310 C 
ATOM      8  O   UNL     1       0.844   1.541  -6.274  0.00  0.00    -0.252 OA
ATOM      9  H   UNL     1       1.024   0.196  -8.504  0.00  0.00    +0.151 HD
BRANCH   5  10
ATOM     10  C   UNL     1       3.629  -1.037  -8.580  0.00  0.00    +0.065 C 
BRANCH  10  11
ATOM     11  C   UNL     1       3.132  -1.258  -9.985  0.00  0.00    -0.039 C 
ATOM     12  C   UNL     1       2.743  -0.310 -10.868  0.00  0.00    -0.001 A 
ATOM     13  C   UNL     1       2.669   1.154 -10.788  0.00  0.00    +0.010 A 
ATOM     14  C   UNL     1       2.228   1.848 -11.861  0.00  0.00    +0.001 A 
ATOM     15  C   UNL     1       1.840   1.207 -13.046  0.00  0.00    +0.002 A 
ATOM     16  C   UNL     1       1.880  -0.134 -13.195  0.00  0.00    +0.026 A 
ATOM     17  C   UNL     1       2.328  -0.963 -12.130  0.00  0.00    +0.043 A 
ATOM     18  N   UNL     1       2.456  -2.264 -12.031  0.00  0.00    -0.380 N 
ATOM     19  C   UNL     1       2.972  -2.583 -10.696  0.00  0.00    +0.144 C 
ATOM     20  H   UNL     1       2.247  -2.908 -12.726  0.00  0.00    +0.160 HD
ENDBRANCH  10  11
ENDBRANCH   5  10
ENDBRANCH   1   2
BRANCH   1  22
ATOM     21  N   UNL     1       1.504   0.028  -2.041  0.00  0.00    -0.301 N 
ATOM     22  C   UNL     1       1.521  -0.244  -3.361  0.00  0.00    +0.232 C 
ATOM     23  O   UNL     1       0.731  -1.038  -3.827  0.00  0.00    -0.274 OA
ATOM     24  H   UNL     1       2.136   0.663  -1.669  0.00  0.00    +0.150 HD
BRANCH  21  27
ATOM     25  C   UNL     1       0.563   1.693  -0.164  0.00  0.00    +0.028 C 
ATOM     26  C   UNL     1       0.253   0.217   0.093  0.00  0.00    +0.102 C 
ATOM     27  C   UNL     1       0.532  -0.635  -1.169  0.00  0.00    +0.179 C 
ATOM     28  C   UNL     1       1.111  -1.907  -0.576  0.00  0.00    +0.256 C 
ATOM     29  O   UNL     1       1.250  -2.965  -1.153  0.00  0.00    -0.272 OA
ATOM     30  N   UNL     1       1.444  -1.654   0.704  0.00  0.00    -0.201 N 
ATOM     31  N   UNL     1       1.204  -0.362   1.070  0.00  0.00    -0.218 NA
ATOM     32  C   UNL     1       2.451   0.413   1.113  0.00  0.00    +0.128 C 
BRANCH  30  33
ATOM     33  C   UNL     1       1.979  -2.615   1.568  0.00  0.00    +0.053 A 
ATOM     34  C   UNL     1       1.462  -2.765   2.848  0.00  0.00    +0.025 A 
ATOM     35  C   UNL     1       1.992  -3.715   3.699  0.00  0.00    +0.002 A 
ATOM     36  C   UNL     1       3.037  -4.516   3.277  0.00  0.00    +0.000 A 
ATOM     37  C   UNL     1       3.555  -4.369   2.003  0.00  0.00    +0.002 A 
ATOM     38  C   UNL     1       3.025  -3.425   1.145  0.00  0.00    +0.025 A 
ENDBRANCH  30  33
ENDBRANCH  21  27
ENDBRANCH   1  22
TORSDOF 6
