REMARK  Name = ZINC39774688
REMARK  10 active torsions:
REMARK  status: ('A' for Active; 'I' for Inactive)
REMARK    1  A    between atoms: C_1  and  C_2
REMARK    2  A    between atoms: C_2  and  N_3
REMARK    3  A    between atoms: N_3  and  C_4
REMARK    4  A    between atoms: N_3  and  S_6
REMARK    5  A    between atoms: C_4  and  C_5
REMARK    6  A    between atoms: S_6  and  C_9
REMARK    7  A    between atoms: C_13  and  C_15
REMARK    8  A    between atoms: N_20  and  N_21
REMARK    9  A    between atoms: C_22  and  C_23
REMARK   10  A    between atoms: C_26  and  O_29
REMARK                            x       y       z     vdW  Elec       q    Type
REMARK                         _______ _______ _______ _____ _____    ______ ____
ROOT
ATOM      1  C   UNL     1       4.658   2.330   4.494  0.00  0.00    +0.055 A 
ATOM      2  C   UNL     1       4.324   1.473   5.482  0.00  0.00    +0.075 A 
ATOM      3  S   UNL     1       5.001   2.282   6.923  0.00  0.00    -0.056 S 
ATOM      4  C   UNL     1       5.685   3.714   6.104  0.00  0.00    +0.192 A 
ATOM      5  N   UNL     1       5.353   3.469   4.793  0.00  0.00    -0.332 N 
ATOM      6  N   UNL     1       6.343   4.740   6.622  0.00  0.00    -0.124 NA
ATOM      7  H   UNL     1       5.603   4.093   4.094  0.00  0.00    +0.168 HD
ENDROOT
BRANCH   1  12
ATOM      8  C   UNL     1       3.218   0.606   1.484  0.00  0.00    +0.106 A 
ATOM      9  C   UNL     1       3.568   1.487   0.476  0.00  0.00    +0.028 A 
ATOM     10  C   UNL     1       4.271   2.642   0.771  0.00  0.00    +0.003 A 
ATOM     11  C   UNL     1       4.628   2.921   2.074  0.00  0.00    +0.010 A 
ATOM     12  C   UNL     1       4.278   2.037   3.095  0.00  0.00    +0.001 A 
ATOM     13  C   UNL     1       3.564   0.877   2.791  0.00  0.00    +0.038 A 
BRANCH   8  14
ATOM     14  S   UNL     1       2.322  -0.861   1.097  0.00  0.00    +0.061 S 
ATOM     15  O   UNL     1       2.586  -1.786   2.143  0.00  0.00    -0.153 OA
ATOM     16  O   UNL     1       2.594  -1.155  -0.266  0.00  0.00    -0.153 OA
BRANCH  14  17
ATOM     17  N   UNL     1       0.711  -0.489   1.189  0.00  0.00    -0.177 NA
BRANCH  17  19
ATOM     18  C   UNL     1      -0.019   1.526   0.010  0.00  0.00    +0.022 C 
ATOM     19  C   UNL     1       0.002  -0.004   0.002  0.00  0.00    +0.106 C 
ENDBRANCH  17  19
BRANCH  17  20
ATOM     20  C   UNL     1      -0.006  -0.646   2.457  0.00  0.00    +0.106 C 
ATOM     21  C   UNL     1      -0.694  -2.013   2.489  0.00  0.00    +0.022 C 
ENDBRANCH  17  20
ENDBRANCH  14  17
ENDBRANCH   8  14
ENDBRANCH   1  12
BRANCH   6  22
ATOM     22  N   UNL     1       6.564   4.788   7.892  0.00  0.00    -0.155 NA
ATOM     23  C   UNL     1       7.213   5.801   8.404  0.00  0.00    +0.143 C 
BRANCH  23  24
ATOM     24  C   UNL     1       7.466   5.856   9.852  0.00  0.00    -0.005 A 
ATOM     25  C   UNL     1       7.018   4.824  10.683  0.00  0.00    +0.013 A 
ATOM     26  C   UNL     1       7.257   4.881  12.039  0.00  0.00    +0.046 A 
ATOM     27  C   UNL     1       7.942   5.961  12.580  0.00  0.00    +0.117 A 
ATOM     28  C   UNL     1       8.390   6.989  11.760  0.00  0.00    +0.046 A 
ATOM     29  C   UNL     1       8.161   6.939  10.402  0.00  0.00    +0.013 A 
BRANCH  27  30
ATOM     30  O   UNL     1       8.175   6.013  13.918  0.00  0.00    -0.507 OA
ATOM     31  H   UNL     1       9.008   5.601  14.189  0.00  0.00    +0.292 HD
ENDBRANCH  27  30
ENDBRANCH  23  24
ENDBRANCH   6  22
TORSDOF 8
