REMARK  Name = ZINC08855421
REMARK  6 active torsions:
REMARK  status: ('A' for Active; 'I' for Inactive)
REMARK    1  A    between atoms: C_9  and  C_11
REMARK    2  A    between atoms: C_12  and  O_39
REMARK    3  A    between atoms: C_13  and  N_34
REMARK    4  A    between atoms: C_15  and  C_20
REMARK    5  A    between atoms: C_25  and  O_26
REMARK    6  A    between atoms: O_26  and  C_27
REMARK                            x       y       z     vdW  Elec       q    Type
REMARK                         _______ _______ _______ _____ _____    ______ ____
ROOT
ATOM      1  C   UNL     1       4.503  -1.666  -0.220  0.00  0.00    +0.025 C 
ATOM      2  C   UNL     1       4.307  -0.452  -0.767  0.00  0.00    +0.124 C 
ATOM      3  C   UNL     1       3.711   0.676   0.032  0.00  0.00    +0.182 C 
ATOM      4  C   UNL     1       4.077   0.505   1.509  0.00  0.00    +0.062 C 
ATOM      5  C   UNL     1       3.576  -0.861   1.988  0.00  0.00    +0.090 C 
ATOM      6  C   UNL     1       4.168  -1.937   1.114  0.00  0.00    +0.162 C 
ATOM      7  O   UNL     1       4.357  -3.047   1.569  0.00  0.00    -0.292 OA
ENDROOT
BRANCH   1  16
ATOM      8  C   UNL     1       2.111  -5.759  -1.687  0.00  0.00    +0.000 A 
ATOM      9  C   UNL     1       1.787  -4.417  -1.760  0.00  0.00    +0.000 A 
ATOM     10  C   UNL     1       2.763  -3.462  -1.555  0.00  0.00    +0.002 A 
ATOM     11  C   UNL     1       4.068  -3.841  -1.276  0.00  0.00    -0.054 A 
ATOM     12  C   UNL     1       4.390  -5.180  -1.201  0.00  0.00    -0.047 A 
ATOM     13  C   UNL     1       3.409  -6.138  -1.409  0.00  0.00    +0.004 A 
ATOM     14  C   UNL     1       5.791  -5.640  -0.891  0.00  0.00    +0.016 C 
ATOM     15  C   UNL     1       6.777  -4.492  -1.107  0.00  0.00    -0.077 C 
ATOM     16  C   UNL     1       5.098  -2.763  -1.065  0.00  0.00    -0.003 C 
ATOM     17  N   UNL     1       6.282  -3.306  -0.384  0.00  0.00    +0.387 N 
ATOM     18  H   UNL     1       7.018  -2.591  -0.359  0.00  0.00    -0.085 HD
ATOM     19  H   UNL     1       6.031  -3.572   0.576  0.00  0.00    -0.085 HD
ENDBRANCH   1  16
BRANCH   4  20
ATOM     20  C   UNL     1       3.425   1.595   2.320  0.00  0.00    +0.001 A 
ATOM     21  C   UNL     1       2.049   1.723   2.327  0.00  0.00    +0.007 A 
ATOM     22  C   UNL     1       1.450   2.719   3.075  0.00  0.00    +0.001 A 
ATOM     23  C   UNL     1       2.226   3.597   3.809  0.00  0.00    +0.004 A 
ATOM     24  C   UNL     1       3.602   3.477   3.802  0.00  0.00    +0.046 A 
ATOM     25  C   UNL     1       4.205   2.474   3.056  0.00  0.00    +0.132 A 
BRANCH  25  26
ATOM     26  O   UNL     1       5.559   2.354   3.047  0.00  0.00    -0.456 OA
BRANCH  26  27
ATOM     27  C   UNL     1       6.287   3.293   3.706  0.00  0.00    +0.130 A 
ATOM     28  C   UNL     1       6.371   3.261   5.091  0.00  0.00    +0.046 A 
ATOM     29  C   UNL     1       7.111   4.216   5.760  0.00  0.00    +0.005 A 
ATOM     30  C   UNL     1       7.770   5.204   5.051  0.00  0.00    +0.020 A 
ATOM     31  C   UNL     1       7.689   5.239   3.670  0.00  0.00    +0.044 A 
ATOM     32  C   UNL     1       6.953   4.281   2.996  0.00  0.00    +0.066 A 
ATOM     33 CL   UNL     1       8.517   6.480   2.783  0.00  0.00    -0.083 Cl
ENDBRANCH  26  27
ENDBRANCH  25  26
ENDBRANCH   4  20
BRANCH   3  34
ATOM     34  N   UNL     1       2.253   0.661  -0.115  0.00  0.00    -0.241 N 
ATOM     35  C   UNL     1       1.466  -0.423  -0.232  0.00  0.00    +0.219 A 
ATOM     36  N   UNL     1       0.228  -0.015  -0.342  0.00  0.00    -0.223 NA
ATOM     37  C   UNL     1       0.185   1.316  -0.299  0.00  0.00    +0.245 A 
ATOM     38  N   UNL     1       1.401   1.776  -0.161  0.00  0.00    -0.158 NA
ENDBRANCH   3  34
BRANCH   2  39
ATOM     39  O   UNL     1       4.650  -0.243  -2.052  0.00  0.00    -0.509 OA
ATOM     40  H   UNL     1       4.442   0.703  -2.302  0.00  0.00    +0.292 HD
ENDBRANCH   2  39
TORSDOF 6
