REMARK  Name = ZINC09927392
REMARK  7 active torsions:
REMARK  status: ('A' for Active; 'I' for Inactive)
REMARK    1  A    between atoms: C_4  and  C_7
REMARK    2  A    between atoms: C_7  and  N_8
REMARK    3  A    between atoms: C_9  and  C_22
REMARK    4  A    between atoms: C_11  and  C_13
REMARK    5  A    between atoms: C_14  and  C_15
REMARK    6  A    between atoms: C_20  and  O_21
REMARK    7  A    between atoms: C_27  and  O_28
REMARK                            x       y       z     vdW  Elec       q    Type
REMARK                         _______ _______ _______ _____ _____    ______ ____
ROOT
ATOM      1  N   UNL     1       0.167  -2.981   0.081  0.00  0.00    -0.240 N 
ATOM      2  C   UNL     1       1.247  -2.161  -0.020  0.00  0.00    +0.163 A 
ATOM      3  N   UNL     1       2.320  -2.915  -0.132  0.00  0.00    -0.207 NA
ATOM      4  C   UNL     1       1.970  -4.208  -0.098  0.00  0.00    +0.175 A 
ATOM      5  N   UNL     1       0.660  -4.295   0.028  0.00  0.00    -0.150 NA
ENDROOT
BRANCH   2   6
ATOM      6  C   UNL     1       1.220  -0.683  -0.012  0.00  0.00    +0.060 A 
ATOM      7  C   UNL     1       0.002  -0.004  -0.019  0.00  0.00    +0.015 A 
ATOM      8  C   UNL     1      -0.017   1.375  -0.012  0.00  0.00    +0.001 A 
ATOM      9  C   UNL     1       1.169   2.089   0.002  0.00  0.00    +0.004 A 
ATOM     10  C   UNL     1       2.382   1.428   0.009  0.00  0.00    +0.046 A 
ATOM     11  C   UNL     1       2.418   0.042   0.002  0.00  0.00    +0.128 A 
BRANCH  11  12
ATOM     12  O   UNL     1       3.609  -0.609   0.009  0.00  0.00    -0.506 OA
ATOM     13  H   UNL     1       3.962  -0.793  -0.873  0.00  0.00    +0.292 HD
ENDBRANCH  11  12
ENDBRANCH   2   6
BRANCH   4  14
ATOM     14  C   UNL     1       2.898  -5.350  -0.192  0.00  0.00    +0.050 C 
ATOM     15  C   UNL     1       4.217  -5.134  -0.319  0.00  0.00    +0.015 C 
BRANCH  15  16
ATOM     16  C   UNL     1       5.145  -6.274  -0.413  0.00  0.00    +0.017 A 
ATOM     17  C   UNL     1       4.656  -7.582  -0.371  0.00  0.00    +0.011 A 
ATOM     18  C   UNL     1       5.530  -8.646  -0.459  0.00  0.00    +0.001 A 
ATOM     19  C   UNL     1       6.890  -8.422  -0.590  0.00  0.00    +0.004 A 
ATOM     20  C   UNL     1       7.386  -7.133  -0.632  0.00  0.00    +0.046 A 
ATOM     21  C   UNL     1       6.522  -6.053  -0.551  0.00  0.00    +0.124 A 
BRANCH  21  22
ATOM     22  O   UNL     1       7.008  -4.786  -0.598  0.00  0.00    -0.506 OA
ATOM     23  H   UNL     1       7.237  -4.420   0.267  0.00  0.00    +0.292 HD
ENDBRANCH  21  22
ENDBRANCH  15  16
ENDBRANCH   4  14
BRANCH   1  24
ATOM     24  C   UNL     1      -1.233  -2.574   0.218  0.00  0.00    +0.181 C 
BRANCH  24  28
ATOM     25  C   UNL     1      -3.672  -6.034   0.791  0.00  0.00    +0.000 A 
ATOM     26  C   UNL     1      -3.218  -5.320   1.884  0.00  0.00    +0.000 A 
ATOM     27  C   UNL     1      -2.429  -4.200   1.699  0.00  0.00    +0.005 A 
ATOM     28  C   UNL     1      -2.094  -3.795   0.420  0.00  0.00    -0.026 A 
ATOM     29  C   UNL     1      -2.552  -4.506  -0.673  0.00  0.00    +0.005 A 
ATOM     30  C   UNL     1      -3.337  -5.629  -0.487  0.00  0.00    +0.000 A 
ENDBRANCH  24  28
ENDBRANCH   1  24
TORSDOF 7
