REMARK  Name = ZINC63600592
REMARK  7 active torsions:
REMARK  status: ('A' for Active; 'I' for Inactive)
REMARK    1  A    between atoms: C_1  and  C_2
REMARK    2  A    between atoms: C_8  and  C_11
REMARK    3  A    between atoms: C_11  and  C_12
REMARK    4  A    between atoms: C_12  and  N_13
REMARK    5  A    between atoms: C_14  and  C_16
REMARK    6  A    between atoms: C_25  and  C_33
REMARK    7  A    between atoms: C_26  and  C_32
REMARK                            x       y       z     vdW  Elec       q    Type
REMARK                         _______ _______ _______ _____ _____    ______ ____
ROOT
ATOM      1  N   UNL     1      -1.879  -2.586   5.329  0.00  0.00    -0.315 N 
ATOM      2  C   UNL     1      -2.959  -2.505   6.131  0.00  0.00    +0.218 C 
ATOM      3  O   UNL     1      -4.074  -2.551   5.654  0.00  0.00    -0.275 OA
ATOM      4  H   UNL     1      -0.988  -2.550   5.710  0.00  0.00    +0.149 HD
ENDROOT
BRANCH   2   5
ATOM      5  C   UNL     1      -2.783  -2.358   7.620  0.00  0.00    +0.092 C 
ATOM      6  C   UNL     1      -2.006  -1.073   7.918  0.00  0.00    +0.016 C 
ATOM      7  C   UNL     1      -1.798  -0.939   9.428  0.00  0.00    +0.020 C 
ATOM      8  C   UNL     1      -3.160  -0.852  10.122  0.00  0.00    +0.106 C 
ATOM      9  N   UNL     1      -3.968  -2.013   9.725  0.00  0.00    -0.314 N 
ATOM     10  C   UNL     1      -4.157  -2.288   8.294  0.00  0.00    +0.119 C 
ATOM     11  C   UNL     1      -4.540  -2.833  10.681  0.00  0.00    +0.136 A 
ATOM     12  C   UNL     1      -5.860  -2.628  11.108  0.00  0.00    +0.083 A 
ATOM     13  C   UNL     1      -6.925  -1.676  10.786  0.00  0.00    +0.003 A 
ATOM     14  C   UNL     1      -7.971  -2.017  11.552  0.00  0.00    +0.108 A 
ATOM     15  O   UNL     1      -7.659  -3.082  12.313  0.00  0.00    -0.442 OA
ATOM     16  C   UNL     1      -6.399  -3.486  12.081  0.00  0.00    +0.232 A 
ATOM     17  N   UNL     1      -5.632  -4.462  12.560  0.00  0.00    -0.200 NA
ATOM     18  C   UNL     1      -4.398  -4.620  12.132  0.00  0.00    +0.227 A 
ATOM     19  N   UNL     1      -3.855  -3.840  11.214  0.00  0.00    -0.220 NA
ATOM     20  C   UNL     1      -9.302  -1.310  11.560  0.00  0.00    +0.086 C 
ATOM     21  C   UNL     1      -6.858  -0.542   9.795  0.00  0.00    +0.048 C 
ENDBRANCH   2   5
BRANCH   1  22
ATOM     22  C   UNL     1      -2.051  -2.730   3.881  0.00  0.00    +0.108 C 
BRANCH  22  23
ATOM     23  C   UNL     1      -0.679  -2.799   3.209  0.00  0.00    +0.052 C 
BRANCH  23  31
ATOM     24  C   UNL     1      -0.586   1.743  -0.117  0.00  0.00    +0.044 C 
ATOM     25  C   UNL     1      -0.747   0.248  -0.222  0.00  0.00    -0.050 A 
ATOM     26  C   UNL     1      -0.943  -0.331  -1.484  0.00  0.00    +0.005 A 
ATOM     27  C   UNL     1      -1.096  -1.660  -1.660  0.00  0.00    +0.026 A 
ATOM     28  C   UNL     1      -1.062  -2.542  -0.545  0.00  0.00    +0.043 A 
ATOM     29  N   UNL     1      -1.184  -3.845  -0.458  0.00  0.00    -0.380 N 
ATOM     30  C   UNL     1      -1.069  -4.232   0.952  0.00  0.00    +0.144 C 
ATOM     31  C   UNL     1      -0.856  -2.946   1.720  0.00  0.00    -0.040 C 
ATOM     32  C   UNL     1      -0.856  -1.956   0.799  0.00  0.00    -0.001 A 
ATOM     33  C   UNL     1      -0.693  -0.501   0.903  0.00  0.00    +0.013 A 
ATOM     34  H   UNL     1      -1.327  -4.451  -1.202  0.00  0.00    +0.160 HD
ENDBRANCH  23  31
ENDBRANCH  22  23
ENDBRANCH   1  22
TORSDOF 4
