REMARK  Name = ZINC33725568
REMARK  13 active torsions:
REMARK  status: ('A' for Active; 'I' for Inactive)
REMARK    1  A    between atoms: C_1  and  C_2
REMARK    2  A    between atoms: C_2  and  C_3
REMARK    3  A    between atoms: C_3  and  C_5
REMARK    4  A    between atoms: C_3  and  C_6
REMARK    5  A    between atoms: C_6  and  C_8
REMARK    6  A    between atoms: C_6  and  N_27
REMARK    7  A    between atoms: C_14  and  C_17
REMARK    8  A    between atoms: N_20  and  C_21
REMARK    9  A    between atoms: C_28  and  C_30
REMARK   10  A    between atoms: C_30  and  C_31
REMARK   11  A    between atoms: C_31  and  C_32
REMARK   12  A    between atoms: C_31  and  C_33
REMARK   13  A    between atoms: C_31  and  C_34
REMARK                            x       y       z     vdW  Elec       q    Type
REMARK                         _______ _______ _______ _____ _____    ______ ____
ROOT
ATOM      1  C   UNL     1       4.155   1.616   4.927  0.00  0.00    +0.236 C 
ATOM      2  O   UNL     1       3.351   1.435   5.816  0.00  0.00    -0.274 OA
ATOM      3  N   UNL     1       5.452   1.834   5.225  0.00  0.00    -0.297 N 
ATOM      4  C   UNL     1       6.417   2.165   4.168  0.00  0.00    +0.127 C 
ATOM      5  C   UNL     1       7.112   3.482   4.534  0.00  0.00    +0.128 C 
ATOM      6  N   UNL     1       7.586   3.392   5.923  0.00  0.00    -0.280 N 
ATOM      7  C   UNL     1       6.620   3.061   6.980  0.00  0.00    +0.092 C 
ATOM      8  C   UNL     1       5.924   1.750   6.614  0.00  0.00    +0.130 C 
ATOM      9  C   UNL     1       7.354   2.900   8.313  0.00  0.00    +0.030 C 
ATOM     10  C   UNL     1       8.882   3.611   6.221  0.00  0.00    +0.303 C 
ATOM     11  O   UNL     1       9.242   3.636   7.382  0.00  0.00    -0.253 OA
ATOM     12  N   UNL     1       9.778   3.801   5.232  0.00  0.00    -0.296 N 
ATOM     13  H   UNL     1       9.440   3.861   4.187  0.00  0.00    +0.151 HD
ENDROOT
BRANCH  12  14
ATOM     14  C   UNL     1      11.203   3.928   5.550  0.00  0.00    +0.074 C 
ATOM     15  C   UNL     1      11.517   5.380   5.914  0.00  0.00    +0.022 C 
ATOM     16  C   UNL     1      13.004   5.512   6.246  0.00  0.00    +0.002 C 
ATOM     17  C   UNL     1      13.836   5.101   5.029  0.00  0.00    +0.000 C 
ATOM     18  C   UNL     1      13.522   3.648   4.665  0.00  0.00    +0.002 C 
ATOM     19  C   UNL     1      12.034   3.516   4.333  0.00  0.00    +0.022 C 
ENDBRANCH  12  14
BRANCH   1  20
ATOM     20  C   UNL     1       3.705   1.599   3.489  0.00  0.00    +0.162 C 
BRANCH  20  21
ATOM     21  N   UNL     1       2.246   1.715   3.432  0.00  0.00    -0.304 N 
ATOM     22  C   UNL     1       1.653   2.217   2.331  0.00  0.00    +0.214 C 
ATOM     23  O   UNL     1       2.326   2.573   1.388  0.00  0.00    -0.276 OA
ATOM     24  H   UNL     1       1.635   1.393   4.288  0.00  0.00    +0.149 HD
BRANCH  22  25
ATOM     25  C   UNL     1       0.151   2.337   2.273  0.00  0.00    +0.102 C 
BRANCH  25  26
ATOM     26  C   UNL     1      -0.261   2.932   0.925  0.00  0.00    -0.029 C 
ATOM     27  C   UNL     1       0.223   2.020  -0.204  0.00  0.00    +0.011 C 
ATOM     28  C   UNL     1       0.368   4.318   0.765  0.00  0.00    +0.011 C 
ATOM     29  C   UNL     1      -1.785   3.053   0.866  0.00  0.00    +0.011 C 
ENDBRANCH  25  26
ENDBRANCH  22  25
ENDBRANCH  20  21
BRANCH  20  30
ATOM     30  C   UNL     1       4.138   0.285   2.835  0.00  0.00    +0.015 C 
ATOM     31  C   UNL     1       3.388  -0.879   3.485  0.00  0.00    +0.010 C 
BRANCH  30  33
ATOM     32  C   UNL     1       4.677   1.397   0.663  0.00  0.00    +0.004 C 
ATOM     33  C   UNL     1       3.816   0.329   1.340  0.00  0.00    +0.002 C 
ENDBRANCH  30  33
ENDBRANCH  20  30
ENDBRANCH   1  20
TORSDOF 7
