REMARK  Name = ZINC13976176
REMARK  12 active torsions:
REMARK  status: ('A' for Active; 'I' for Inactive)
REMARK    1  A    between atoms: C_1  and  C_2
REMARK    2  A    between atoms: C_5  and  C_31
REMARK    3  A    between atoms: C_6  and  O_8
REMARK    4  A    between atoms: O_8  and  C_9
REMARK    5  A    between atoms: C_9  and  C_10
REMARK    6  A    between atoms: N_12  and  C_13
REMARK    7  A    between atoms: C_13  and  N_15
REMARK    8  A    between atoms: N_15  and  N_16
REMARK    9  A    between atoms: C_17  and  C_19
REMARK   10  A    between atoms: C_19  and  C_21
REMARK   11  A    between atoms: C_19  and  O_22
REMARK   12  A    between atoms: O_22  and  C_23
REMARK                            x       y       z     vdW  Elec       q    Type
REMARK                         _______ _______ _______ _____ _____    ______ ____
ROOT
ATOM      1  N   UNL     1      -0.768   0.974  -4.814  0.00  0.00    -0.245 N 
ATOM      2  H   UNL     1      -1.292   1.170  -5.607  0.00  0.00    +0.172 HD
ENDROOT
BRANCH   1   3
ATOM      3  N   UNL     1       0.498   0.387  -4.939  0.00  0.00    -0.232 N 
ATOM      4  C   UNL     1       0.988   0.096  -6.160  0.00  0.00    +0.270 C 
ATOM      5  O   UNL     1       0.333   0.341  -7.151  0.00  0.00    -0.270 OA
ATOM      6  H   UNL     1       1.022   0.191  -4.147  0.00  0.00    +0.173 HD
BRANCH   4   7
ATOM      7  C   UNL     1       2.350  -0.535  -6.294  0.00  0.00    +0.257 C 
ATOM      8  C   UNL     1       2.330  -1.931  -5.668  0.00  0.00    +0.062 C 
BRANCH   7   9
ATOM      9  O   UNL     1       2.693  -0.639  -7.678  0.00  0.00    -0.478 OA
BRANCH   9  10
ATOM     10  C   UNL     1       4.017  -0.683  -7.984  0.00  0.00    +0.140 A 
ATOM     11  C   UNL     1       4.962  -0.740  -6.971  0.00  0.00    +0.048 A 
ATOM     12  C   UNL     1       6.307  -0.788  -7.285  0.00  0.00    +0.023 A 
ATOM     13  C   UNL     1       6.712  -0.770  -8.608  0.00  0.00    +0.043 A 
ATOM     14  C   UNL     1       5.771  -0.708  -9.620  0.00  0.00    +0.043 A 
ATOM     15  C   UNL     1       4.424  -0.664  -9.311  0.00  0.00    +0.084 A 
ATOM     16 CL   UNL     1       3.243  -0.585 -10.581  0.00  0.00    -0.080 Cl
ATOM     17 CL   UNL     1       8.402  -0.825  -8.998  0.00  0.00    -0.083 Cl
ENDBRANCH   9  10
ENDBRANCH   7   9
ENDBRANCH   4   7
ENDBRANCH   1   3
BRANCH   1  18
ATOM     18  C   UNL     1      -1.258   1.266  -3.593  0.00  0.00    +0.153 C 
ATOM     19  S   UNL     1      -2.805   1.982  -3.441  0.00  0.00    -0.017 S 
BRANCH  18  22
ATOM     20  C   UNL     1      -1.020   1.285  -1.271  0.00  0.00    +0.256 C 
ATOM     21  O   UNL     1      -2.116   1.793  -1.163  0.00  0.00    -0.272 OA
ATOM     22  N   UNL     1      -0.530   0.993  -2.492  0.00  0.00    -0.264 N 
ATOM     23  H   UNL     1       0.346   0.587  -2.579  0.00  0.00    +0.157 HD
BRANCH  20  24
ATOM     24  C   UNL     1      -0.206   0.981  -0.040  0.00  0.00    +0.325 C 
BRANCH  24  25
ATOM     25  O   UNL     1      -0.935   1.378   1.123  0.00  0.00    -0.482 OA
BRANCH  25  31
ATOM     26  C   UNL     1       2.899  -0.236   3.675  0.00  0.00    +0.044 C 
ATOM     27  C   UNL     1       1.529   0.388   3.610  0.00  0.00    -0.047 A 
ATOM     28  C   UNL     1       0.878   0.750   4.775  0.00  0.00    +0.004 A 
ATOM     29  C   UNL     1      -0.379   1.322   4.718  0.00  0.00    +0.007 A 
ATOM     30  C   UNL     1      -0.986   1.539   3.496  0.00  0.00    -0.009 A 
ATOM     31  C   UNL     1      -0.338   1.171   2.326  0.00  0.00    +0.124 A 
ATOM     32  C   UNL     1       0.924   0.597   2.386  0.00  0.00    +0.049 A 
ATOM     33  C   UNL     1      -2.354   2.169   3.435  0.00  0.00    +0.047 C 
ENDBRANCH  25  31
ENDBRANCH  24  25
ENDBRANCH  20  24
ENDBRANCH  18  22
ENDBRANCH   1  18
TORSDOF 9
