REMARK  Name = ZINC38994843
REMARK  4 active torsions:
REMARK  status: ('A' for Active; 'I' for Inactive)
REMARK    1  A    between atoms: C_1  and  C_2
REMARK    2  A    between atoms: C_7  and  C_8
REMARK    3  A    between atoms: C_10  and  C_15
REMARK    4  A    between atoms: C_15  and  N_17
REMARK                            x       y       z     vdW  Elec       q    Type
REMARK                         _______ _______ _______ _____ _____    ______ ____
ROOT
ATOM      1  C   UNL     1      -0.100  -4.711   3.750  0.00  0.00    +0.280 C 
ATOM      2  O   UNL     1       0.523  -4.075   4.579  0.00  0.00    -0.270 OA
ENDROOT
BRANCH   1  12
ATOM      3  C   UNL     1      -0.018   1.503   0.010  0.00  0.00    +0.044 C 
ATOM      4  C   UNL     1       0.002  -0.004   0.002  0.00  0.00    -0.044 A 
ATOM      5  C   UNL     1       0.006  -0.683  -1.206  0.00  0.00    +0.004 A 
ATOM      6  C   UNL     1       0.021  -2.061  -1.227  0.00  0.00    +0.015 A 
ATOM      7  C   UNL     1       0.035  -2.769  -0.024  0.00  0.00    +0.059 A 
ATOM      8  C   UNL     1       0.037  -2.082   1.201  0.00  0.00    +0.135 A 
ATOM      9  C   UNL     1       0.023  -0.693   1.198  0.00  0.00    -0.005 A 
ATOM     10  C   UNL     1       0.024   0.062   2.502  0.00  0.00    +0.048 C 
ATOM     11  O   UNL     1       0.065  -2.756   2.374  0.00  0.00    -0.478 OA
ATOM     12  C   UNL     1      -0.388  -4.109   2.399  0.00  0.00    +0.268 C 
ATOM     13  C   UNL     1       0.344  -4.911   1.314  0.00  0.00    +0.134 C 
ATOM     14  C   UNL     1       0.046  -4.242  -0.016  0.00  0.00    +0.171 C 
ATOM     15  O   UNL     1      -0.173  -4.887  -1.020  0.00  0.00    -0.292 OA
ENDBRANCH   1  12
BRANCH   1  16
ATOM     16  N   UNL     1      -0.527  -5.936   4.036  0.00  0.00    -0.153 NA
ATOM     17  C   UNL     1      -0.272  -6.468   5.230  0.00  0.00    +0.164 A 
ATOM     18  N   UNL     1      -0.624  -7.697   5.686  0.00  0.00    -0.335 N 
ATOM     19  H   UNL     1      -1.122  -8.303   5.115  0.00  0.00    +0.168 HD
ATOM     20  C   UNL     1      -0.271  -8.082   6.965  0.00  0.00    +0.055 A 
ATOM     21  C   UNL     1      -0.529  -9.290   7.629  0.00  0.00    +0.028 A 
ATOM     22  C   UNL     1      -0.091  -9.489   8.917  0.00  0.00    +0.022 A 
ATOM     23  C   UNL     1       0.616  -8.508   9.595  0.00  0.00    +0.042 A 
ATOM     24  C   UNL     1       0.884  -7.306   8.961  0.00  0.00    +0.037 A 
ATOM     25  C   UNL     1       0.446  -7.107   7.673  0.00  0.00    +0.040 A 
ATOM     26  S   UNL     1       0.564  -5.772   6.511  0.00  0.00    -0.052 S 
ATOM     27 CL   UNL     1       1.158  -8.782  11.221  0.00  0.00    -0.084 Cl
ENDBRANCH   1  16
TORSDOF 2
