REMARK  Name = ZINC21971407
REMARK  6 active torsions:
REMARK  status: ('A' for Active; 'I' for Inactive)
REMARK    1  A    between atoms: C_3  and  S_6
REMARK    2  A    between atoms: S_6  and  N_9
REMARK    3  A    between atoms: C_13  and  C_16
REMARK    4  A    between atoms: N_18  and  N_19
REMARK    5  A    between atoms: C_20  and  C_22
REMARK    6  A    between atoms: C_25  and  C_27
REMARK                            x       y       z     vdW  Elec       q    Type
REMARK                         _______ _______ _______ _____ _____    ______ ____
ROOT
ATOM      1  C   UNL     1      -2.712   7.612   3.814  0.00  0.00    +0.233 C 
ATOM      2  O   UNL     1      -1.505   7.660   3.916  0.00  0.00    -0.274 OA
ATOM      3  N   UNL     1      -3.479   8.513   4.459  0.00  0.00    -0.234 N 
ATOM      4  H   UNL     1      -4.575   8.470   4.366  0.00  0.00    +0.173 HD
ENDROOT
BRANCH   1   9
ATOM      5  N   UNL     1      -2.913   4.548   1.635  0.00  0.00    -0.175 NA
ATOM      6  C   UNL     1      -3.889   3.717   2.353  0.00  0.00    +0.109 C 
ATOM      7  C   UNL     1      -4.954   4.622   2.971  0.00  0.00    +0.018 C 
ATOM      8  C   UNL     1      -4.275   5.686   3.837  0.00  0.00    +0.015 C 
ATOM      9  C   UNL     1      -3.355   6.545   2.966  0.00  0.00    +0.092 C 
ATOM     10  C   UNL     1      -2.268   5.658   2.350  0.00  0.00    +0.122 C 
BRANCH   5  11
ATOM     11  S   UNL     1      -2.551   4.243   0.049  0.00  0.00    +0.067 S 
ATOM     12  O   UNL     1      -2.072   5.463  -0.500  0.00  0.00    -0.152 OA
ATOM     13  O   UNL     1      -3.664   3.547  -0.496  0.00  0.00    -0.152 OA
BRANCH  11  16
ATOM     14  C   UNL     1      -0.013   1.076   0.008  0.00  0.00    +0.010 A 
ATOM     15  C   UNL     1      -1.213   1.761   0.017  0.00  0.00    +0.036 A 
ATOM     16  C   UNL     1      -1.196   3.116   0.030  0.00  0.00    +0.143 A 
ATOM     17  S   UNL     1       0.555   3.464   0.015  0.00  0.00    -0.077 S 
ATOM     18  C   UNL     1       1.146   1.780   0.001  0.00  0.00    +0.047 A 
ENDBRANCH  11  16
ENDBRANCH   5  11
ENDBRANCH   1   9
BRANCH   3  19
ATOM     19  N   UNL     1      -2.882   9.506   5.247  0.00  0.00    -0.230 N 
ATOM     20  C   UNL     1      -3.649  10.407   5.891  0.00  0.00    +0.267 C 
ATOM     21  O   UNL     1      -4.861  10.359   5.789  0.00  0.00    -0.268 OA
ATOM     22  H   UNL     1      -1.787   9.549   5.339  0.00  0.00    +0.173 HD
BRANCH  20  23
ATOM     23  C   UNL     1      -3.024  11.445   6.715  0.00  0.00    +0.076 A 
ATOM     24  C   UNL     1      -3.627  12.458   7.446  0.00  0.00    +0.021 A 
ATOM     25  C   UNL     1      -2.835  13.318   8.152  0.00  0.00    +0.017 A 
ATOM     26  C   UNL     1      -1.460  13.153   8.100  0.00  0.00    +0.020 A 
ATOM     27  S   UNL     1      -1.291  11.735   7.029  0.00  0.00    -0.084 S 
BRANCH  26  28
ATOM     28  C   UNL     1      -0.404  13.947   8.763  0.00  0.00    -0.011 A 
ATOM     29  C   UNL     1      -0.747  15.036   9.567  0.00  0.00    +0.012 A 
ATOM     30  C   UNL     1       0.242  15.770  10.187  0.00  0.00    +0.039 A 
ATOM     31  C   UNL     1       1.575  15.435  10.005  0.00  0.00    +0.123 A 
ATOM     32  C   UNL     1       1.921  14.359   9.203  0.00  0.00    +0.039 A 
ATOM     33  C   UNL     1       0.940  13.615   8.582  0.00  0.00    +0.012 A 
ATOM     34  F   UNL     1       2.540  16.160  10.611  0.00  0.00    -0.205 F 
ENDBRANCH  26  28
ENDBRANCH  20  23
ENDBRANCH   3  19
TORSDOF 6
