REMARK  Name = ZINC59461828
REMARK  7 active torsions:
REMARK  status: ('A' for Active; 'I' for Inactive)
REMARK    1  A    between atoms: C_1  and  C_2
REMARK    2  A    between atoms: C_3  and  C_20
REMARK    3  A    between atoms: C_9  and  C_12
REMARK    4  A    between atoms: C_20  and  C_22
REMARK    5  A    between atoms: C_20  and  C_28
REMARK    6  A    between atoms: C_28  and  C_30
REMARK    7  A    between atoms: C_28  and  C_32
REMARK                            x       y       z     vdW  Elec       q    Type
REMARK                         _______ _______ _______ _____ _____    ______ ____
ROOT
ATOM      1  C   UNL     1      -0.245   1.332   0.722  0.00  0.00    +0.065 C 
ATOM      2  C   UNL     1      -0.871   1.558  -0.630  0.00  0.00    +0.039 A 
ATOM      3  C   UNL     1      -0.976   2.746  -1.261  0.00  0.00    +0.048 A 
ATOM      4  C   UNL     1      -1.622   2.529  -2.500  0.00  0.00    +0.277 A 
ATOM      5  N   UNL     1      -1.896   1.212  -2.592  0.00  0.00    -0.194 N 
ATOM      6  N   UNL     1      -1.422   0.596  -1.426  0.00  0.00    -0.292 N 
ATOM      7  C   UNL     1      -2.528   0.579  -3.654  0.00  0.00    +0.196 A 
ATOM      8  N   UNL     1      -2.830  -0.697  -3.806  0.00  0.00    -0.221 NA
ATOM      9  C   UNL     1      -3.442  -1.134  -4.897  0.00  0.00    +0.080 A 
ATOM     10  C   UNL     1      -3.767  -0.246  -5.885  0.00  0.00    +0.077 A 
ATOM     11  S   UNL     1      -3.156   1.277  -5.175  0.00  0.00    -0.056 S 
ATOM     12  O   UNL     1      -1.885   3.378  -3.332  0.00  0.00    -0.265 OA
ATOM     13  H   UNL     1      -1.479  -0.350  -1.219  0.00  0.00    +0.187 HD
ENDROOT
BRANCH   9  14
ATOM     14  C   UNL     1      -3.771  -2.572  -5.046  0.00  0.00    +0.001 A 
ATOM     15  C   UNL     1      -4.409  -3.028  -6.198  0.00  0.00    +0.011 A 
ATOM     16  C   UNL     1      -4.712  -4.368  -6.332  0.00  0.00    +0.016 A 
ATOM     17  C   UNL     1      -4.384  -5.258  -5.324  0.00  0.00    +0.018 A 
ATOM     18  C   UNL     1      -3.750  -4.811  -4.178  0.00  0.00    +0.016 A 
ATOM     19  C   UNL     1      -3.437  -3.474  -4.037  0.00  0.00    +0.011 A 
ATOM     20 BR   UNL     1      -4.804  -7.092  -5.514  0.00  0.00    -0.050 Br
ENDBRANCH   9  14
BRANCH   3  21
ATOM     21  C   UNL     1      -0.489   4.072  -0.737  0.00  0.00    +0.082 C 
BRANCH  21  22
ATOM     22  C   UNL     1      -1.671   4.956  -0.432  0.00  0.00    -0.038 A 
ATOM     23  C   UNL     1      -2.472   5.418  -1.459  0.00  0.00    +0.004 A 
ATOM     24  C   UNL     1      -3.556   6.229  -1.178  0.00  0.00    +0.000 A 
ATOM     25  C   UNL     1      -3.839   6.577   0.129  0.00  0.00    +0.000 A 
ATOM     26  C   UNL     1      -3.038   6.114   1.156  0.00  0.00    +0.000 A 
ATOM     27  C   UNL     1      -1.956   5.300   0.876  0.00  0.00    +0.004 A 
ENDBRANCH  21  22
BRANCH  21  28
ATOM     28  C   UNL     1       0.392   4.745  -1.792  0.00  0.00    +0.189 C 
BRANCH  28  29
ATOM     29  C   UNL     1       0.879   6.072  -1.268  0.00  0.00    +0.228 C 
ATOM     30  O   UNL     1       2.068   6.279  -1.154  0.00  0.00    -0.275 OA
ATOM     31  N   UNL     1      -0.008   7.027  -0.926  0.00  0.00    -0.328 N 
ATOM     32  H   UNL     1      -0.959   6.862  -1.018  0.00  0.00    +0.145 HD
ATOM     33  H   UNL     1       0.305   7.881  -0.589  0.00  0.00    +0.145 HD
ENDBRANCH  28  29
BRANCH  28  34
ATOM     34  C   UNL     1       1.546   3.882  -2.091  0.00  0.00    +0.076 C 
ATOM     35  N   UNL     1       2.437   3.216  -2.321  0.00  0.00    -0.196 NA
ENDBRANCH  28  34
ENDBRANCH  21  28
ENDBRANCH   3  21
TORSDOF 6
