REMARK  Name = ZINC39197517
REMARK  12 active torsions:
REMARK  status: ('A' for Active; 'I' for Inactive)
REMARK    1  A    between atoms: C_1  and  C_2
REMARK    2  A    between atoms: C_2  and  C_3
REMARK    3  A    between atoms: C_8  and  N_9
REMARK    4  A    between atoms: C_10  and  C_32
REMARK    5  A    between atoms: C_12  and  C_14
REMARK    6  A    between atoms: N_16  and  C_17
REMARK    7  A    between atoms: C_17  and  C_19
REMARK    8  A    between atoms: C_17  and  C_20
REMARK    9  A    between atoms: N_22  and  C_23
REMARK   10  A    between atoms: C_28  and  C_31
REMARK   11  A    between atoms: C_35  and  S_38
REMARK   12  A    between atoms: S_38  and  C_39
REMARK                            x       y       z     vdW  Elec       q    Type
REMARK                         _______ _______ _______ _____ _____    ______ ____
ROOT
ATOM      1  N   UNL     1       3.001  -0.384  -0.152  0.00  0.00    -0.231 N 
ATOM      2  C   UNL     1       4.327  -0.076  -0.272  0.00  0.00    +0.075 A 
ATOM      3  C   UNL     1       4.690   0.560   0.883  0.00  0.00    +0.063 A 
ATOM      4  C   UNL     1       3.519   0.606   1.671  0.00  0.00    +0.148 A 
ATOM      5  N   UNL     1       2.556   0.028   0.980  0.00  0.00    -0.161 NA
ENDROOT
BRANCH   1  11
ATOM      6  C   UNL     1       1.101  -0.442  -1.643  0.00  0.00    -0.022 A 
ATOM      7  C   UNL     1       0.354  -1.094  -2.605  0.00  0.00    +0.006 A 
ATOM      8  C   UNL     1       0.735  -2.347  -3.046  0.00  0.00    +0.000 A 
ATOM      9  C   UNL     1       1.865  -2.953  -2.527  0.00  0.00    +0.002 A 
ATOM     10  C   UNL     1       2.616  -2.306  -1.565  0.00  0.00    +0.028 A 
ATOM     11  C   UNL     1       2.239  -1.044  -1.124  0.00  0.00    +0.069 A 
BRANCH   6  13
ATOM     12  C   UNL     1       1.513   1.992  -1.877  0.00  0.00    +0.009 C 
ATOM     13  C   UNL     1       0.684   0.924  -1.162  0.00  0.00    +0.034 C 
ENDBRANCH   6  13
ENDBRANCH   1  11
BRANCH   2  14
ATOM     14  C   UNL     1       5.202  -0.374  -1.427  0.00  0.00    +0.001 A 
ATOM     15  C   UNL     1       4.645  -0.579  -2.691  0.00  0.00    +0.011 A 
ATOM     16  C   UNL     1       5.462  -0.856  -3.765  0.00  0.00    +0.015 A 
ATOM     17  C   UNL     1       6.840  -0.931  -3.592  0.00  0.00    +0.008 A 
ATOM     18  C   UNL     1       7.397  -0.728  -2.333  0.00  0.00    +0.015 A 
ATOM     19  C   UNL     1       6.585  -0.445  -1.257  0.00  0.00    +0.011 A 
BRANCH  17  20
ATOM     20  S   UNL     1       7.881  -1.286  -4.968  0.00  0.00    -0.129 S 
ATOM     21  C   UNL     1       9.554  -1.280  -4.266  0.00  0.00    +0.090 C 
ENDBRANCH  17  20
ENDBRANCH   2  14
BRANCH   4  22
ATOM     22  C   UNL     1       3.395   1.199   3.018  0.00  0.00    +0.265 C 
ATOM     23  O   UNL     1       4.362   1.711   3.549  0.00  0.00    -0.268 OA
ATOM     24  N   UNL     1       2.209   1.173   3.659  0.00  0.00    -0.299 N 
ATOM     25  H   UNL     1       1.438   0.764   3.236  0.00  0.00    +0.150 HD
BRANCH  24  26
ATOM     26  C   UNL     1       2.086   1.760   4.995  0.00  0.00    +0.156 C 
ATOM     27  C   UNL     1       2.511   0.732   6.046  0.00  0.00    +0.038 C 
BRANCH  26  28
ATOM     28  C   UNL     1       0.654   2.163   5.237  0.00  0.00    +0.233 C 
ATOM     29  O   UNL     1      -0.181   1.977   4.377  0.00  0.00    -0.274 OA
ATOM     30  N   UNL     1       0.301   2.729   6.408  0.00  0.00    -0.311 N 
ATOM     31  H   UNL     1       0.969   2.878   7.095  0.00  0.00    +0.149 HD
BRANCH  30  32
ATOM     32  C   UNL     1      -1.091   3.120   6.642  0.00  0.00    +0.073 C 
ATOM     33  C   UNL     1      -1.333   4.515   6.062  0.00  0.00    +0.022 C 
ATOM     34  C   UNL     1      -2.787   4.924   6.308  0.00  0.00    +0.002 C 
ATOM     35  C   UNL     1      -3.066   4.941   7.812  0.00  0.00    +0.003 C 
ATOM     36  C   UNL     1      -2.823   3.546   8.392  0.00  0.00    -0.012 C 
ATOM     37  C   UNL     1      -1.369   3.138   8.146  0.00  0.00    +0.025 C 
ATOM     38  C   UNL     1      -3.102   3.564   9.896  0.00  0.00    +0.007 C 
ENDBRANCH  30  32
ENDBRANCH  26  28
ENDBRANCH  24  26
ENDBRANCH   4  22
TORSDOF 8
