REMARK  Name = ZINC11498343
REMARK  8 active torsions:
REMARK  status: ('A' for Active; 'I' for Inactive)
REMARK    1  A    between atoms: C_4  and  O_28
REMARK    2  A    between atoms: C_5  and  C_7
REMARK    3  A    between atoms: C_7  and  N_8
REMARK    4  A    between atoms: C_9  and  C_11
REMARK    5  A    between atoms: C_11  and  N_56
REMARK    6  A    between atoms: N_15  and  S_18
REMARK    7  A    between atoms: S_18  and  C_21
REMARK    8  A    between atoms: O_28  and  C_29
REMARK                            x       y       z     vdW  Elec       q    Type
REMARK                         _______ _______ _______ _____ _____    ______ ____
ROOT
ATOM      1  C   UNL     1      -6.774   3.324   1.746  0.00  0.00    -0.077 C 
ATOM      2  C   UNL     1      -8.104   3.639   1.189  0.00  0.00    -0.001 C 
ATOM      3  C   UNL     1      -8.961   4.364   2.257  0.00  0.00    +0.107 C 
ATOM      4  N   UNL     1      -9.304   3.435   3.313  0.00  0.00    -0.178 NA
ATOM      5  C   UNL     1      -8.453   3.221   4.502  0.00  0.00    +0.091 C 
ATOM      6  C   UNL     1      -6.960   3.158   4.126  0.00  0.00    -0.061 C 
ATOM      7  N   UNL     1      -6.819   2.400   2.891  0.00  0.00    +0.386 N 
ATOM      8  H   UNL     1      -7.629   1.777   2.788  0.00  0.00    -0.081 HD
ENDROOT
BRANCH   4   9
ATOM      9  S   UNL     1     -10.712   2.574   3.182  0.00  0.00    +0.061 S 
ATOM     10  O   UNL     1     -11.088   2.207   4.503  0.00  0.00    -0.153 OA
ATOM     11  O   UNL     1     -11.567   3.321   2.328  0.00  0.00    -0.153 OA
BRANCH   9  12
ATOM     12  C   UNL     1     -10.332   1.079   2.332  0.00  0.00    +0.106 A 
ATOM     13  C   UNL     1     -10.419   1.027   0.953  0.00  0.00    +0.031 A 
ATOM     14  C   UNL     1     -10.116  -0.144   0.285  0.00  0.00    +0.040 A 
ATOM     15  C   UNL     1      -9.736  -1.269   0.998  0.00  0.00    +0.124 A 
ATOM     16  C   UNL     1      -9.654  -1.217   2.379  0.00  0.00    +0.040 A 
ATOM     17  C   UNL     1      -9.952  -0.043   3.045  0.00  0.00    +0.031 A 
ATOM     18  F   UNL     1      -9.444  -2.416   0.345  0.00  0.00    -0.205 F 
ENDBRANCH   9  12
ENDBRANCH   4   9
BRANCH   7  19
ATOM     19  C   UNL     1      -5.589   1.585   2.932  0.00  0.00    +0.019 C 
BRANCH  19  21
ATOM     20  N   UNL     1      -3.160   1.908   3.270  0.00  0.00    -0.313 N 
ATOM     21  C   UNL     1      -4.388   2.458   3.192  0.00  0.00    +0.197 C 
ATOM     22  O   UNL     1      -4.527   3.655   3.329  0.00  0.00    -0.278 OA
ATOM     23  H   UNL     1      -3.049   0.951   3.160  0.00  0.00    +0.149 HD
BRANCH  20  24
ATOM     24  C   UNL     1      -1.993   2.757   3.522  0.00  0.00    +0.143 C 
BRANCH  24  29
ATOM     25  C   UNL     1       0.932   0.749   4.816  0.00  0.00    +0.001 A 
ATOM     26  C   UNL     1       1.530   0.336   3.639  0.00  0.00    +0.004 A 
ATOM     27  C   UNL     1       0.987   0.701   2.422  0.00  0.00    +0.046 A 
ATOM     28  C   UNL     1      -0.153   1.491   2.381  0.00  0.00    +0.135 A 
ATOM     29  C   UNL     1      -0.751   1.903   3.563  0.00  0.00    +0.012 A 
ATOM     30  C   UNL     1      -0.207   1.531   4.777  0.00  0.00    +0.009 A 
BRANCH  28  31
ATOM     31  O   UNL     1      -0.686   1.856   1.185  0.00  0.00    -0.405 OA
BRANCH  31  32
ATOM     32  C   UNL     1      -0.017   1.395   0.010  0.00  0.00    +0.575 C 
ATOM     33  F   UNL     1       0.002  -0.004   0.002  0.00  0.00    -0.133 F 
ATOM     34  F   UNL     1       1.296   1.879  -0.000  0.00  0.00    -0.133 F 
ATOM     35  F   UNL     1      -0.694   1.858  -1.124  0.00  0.00    -0.133 F 
ENDBRANCH  31  32
ENDBRANCH  28  31
ENDBRANCH  24  29
ENDBRANCH  20  24
ENDBRANCH  19  21
ENDBRANCH   7  19
TORSDOF 8
