REMARK  Name = ZINC21240599
REMARK  2 active torsions:
REMARK  status: ('A' for Active; 'I' for Inactive)
REMARK    1  A    between atoms: C_8  and  C_26
REMARK    2  A    between atoms: C_14  and  C_19
REMARK                            x       y       z     vdW  Elec       q    Type
REMARK                         _______ _______ _______ _____ _____    ______ ____
ROOT
ATOM      1  C   UNL     1      -4.596  -0.080   2.316  0.00  0.00    +0.002 A 
ATOM      2  C   UNL     1      -3.873  -1.242   2.520  0.00  0.00    +0.002 A 
ATOM      3  C   UNL     1      -2.737  -1.499   1.772  0.00  0.00    +0.025 A 
ATOM      4  C   UNL     1      -2.331  -0.581   0.819  0.00  0.00    +0.052 A 
ATOM      5  C   UNL     1      -3.031   0.603   0.641  0.00  0.00    +0.049 A 
ATOM      6  C   UNL     1      -4.180   0.847   1.376  0.00  0.00    +0.025 A 
ATOM      7  N   UNL     1      -2.512   1.555  -0.235  0.00  0.00    -0.331 N 
ATOM      8  C   UNL     1      -1.250   2.209   0.038  0.00  0.00    +0.137 C 
ATOM      9  C   UNL     1      -0.053   1.289   0.032  0.00  0.00    +0.036 C 
ATOM     10  C   UNL     1      -0.091  -0.054   0.021  0.00  0.00    +0.017 C 
ATOM     11  N   UNL     1      -1.227  -0.796   0.002  0.00  0.00    -0.316 N 
ATOM     12  C   UNL     1       1.196  -0.862   0.017  0.00  0.00    +0.059 C 
ATOM     13  C   UNL     1       2.283  -0.113   0.787  0.00  0.00    +0.032 C 
ATOM     14  C   UNL     1       2.499   1.237   0.094  0.00  0.00    +0.088 C 
ATOM     15  C   UNL     1       1.189   1.966   0.051  0.00  0.00    +0.163 C 
ATOM     16  O   UNL     1       1.195   3.181   0.033  0.00  0.00    -0.292 OA
ATOM     17  H   UNL     1      -3.077   1.807  -1.145  0.00  0.00    +0.147 HD
ATOM     18  H   UNL     1      -1.236  -1.620  -0.728  0.00  0.00    +0.152 HD
ENDROOT
BRANCH   8  19
ATOM     19  C   UNL     1      -1.338   2.871   1.389  0.00  0.00    -0.005 A 
ATOM     20  C   UNL     1      -0.648   2.339   2.463  0.00  0.00    +0.056 A 
ATOM     21  C   UNL     1      -0.722   2.949   3.704  0.00  0.00    +0.167 A 
ATOM     22  C   UNL     1      -1.501   4.092   3.870  0.00  0.00    +0.167 A 
ATOM     23  C   UNL     1      -2.194   4.616   2.792  0.00  0.00    +0.065 A 
ATOM     24  C   UNL     1      -2.112   4.005   1.553  0.00  0.00    +0.027 A 
ATOM     25 BR   UNL     1      -3.058   4.723   0.082  0.00  0.00    -0.050 Br
ATOM     26  O   UNL     1      -1.414   4.494   5.172  0.00  0.00    -0.453 OA
ATOM     27  C   UNL     1      -0.904   3.357   5.893  0.00  0.00    +0.466 C 
ATOM     28  O   UNL     1      -0.147   2.636   4.902  0.00  0.00    -0.453 OA
ENDBRANCH   8  19
BRANCH  13  29
ATOM     29  C   UNL     1       3.563  -0.908   0.767  0.00  0.00    -0.043 A 
ATOM     30  C   UNL     1       4.163  -1.220  -0.438  0.00  0.00    +0.007 A 
ATOM     31  C   UNL     1       5.340  -1.945  -0.458  0.00  0.00    +0.038 A 
ATOM     32  C   UNL     1       5.912  -2.368   0.730  0.00  0.00    +0.123 A 
ATOM     33  C   UNL     1       5.307  -2.059   1.937  0.00  0.00    +0.038 A 
ATOM     34  C   UNL     1       4.133  -1.329   1.954  0.00  0.00    +0.007 A 
ATOM     35  F   UNL     1       7.059  -3.080   0.712  0.00  0.00    -0.205 F 
ENDBRANCH  13  29
TORSDOF 2
