REMARK  Name = ZINC15735514
REMARK  7 active torsions:
REMARK  status: ('A' for Active; 'I' for Inactive)
REMARK    1  A    between atoms: C_1  and  O_2
REMARK    2  A    between atoms: O_2  and  C_3
REMARK    3  A    between atoms: C_7  and  C_9
REMARK    4  A    between atoms: N_29  and  C_30
REMARK    5  A    between atoms: C_34  and  C_36
REMARK    6  A    between atoms: C_36  and  O_38
REMARK    7  A    between atoms: O_38  and  C_39
REMARK                            x       y       z     vdW  Elec       q    Type
REMARK                         _______ _______ _______ _____ _____    ______ ____
ROOT
ATOM      1  C   UNL     1       6.008   3.212   0.285  0.00  0.00    +0.155 C 
ATOM      2  C   UNL     1       6.922   3.904   1.245  0.00  0.00    +0.049 A 
ATOM      3  C   UNL     1       7.368   3.490   2.440  0.00  0.00    +0.025 A 
ATOM      4  C   UNL     1       8.272   4.465   2.915  0.00  0.00    +0.020 A 
ATOM      5  C   UNL     1       8.333   5.450   1.989  0.00  0.00    +0.092 A 
ATOM      6  N   UNL     1       7.491   5.127   0.980  0.00  0.00    -0.312 N 
ATOM      7  C   UNL     1       7.134   5.812  -0.175  0.00  0.00    +0.090 A 
ATOM      8  C   UNL     1       5.854   5.944  -0.618  0.00  0.00    +0.005 A 
ATOM      9  C   UNL     1       5.669   6.637  -1.832  0.00  0.00    -0.030 A 
ATOM     10  C   UNL     1       6.773   7.128  -2.453  0.00  0.00    -0.005 A 
ATOM     11  S   UNL     1       8.110   6.646  -1.388  0.00  0.00    -0.075 S 
ATOM     12  C   UNL     1       6.835   7.894  -3.734  0.00  0.00    +0.043 C 
ATOM     13  C   UNL     1       5.487   7.740  -4.455  0.00  0.00    +0.005 C 
ATOM     14  C   UNL     1       4.360   7.992  -3.450  0.00  0.00    +0.005 C 
ATOM     15  C   UNL     1       4.287   6.841  -2.446  0.00  0.00    +0.036 C 
ATOM     16  C   UNL     1       4.709   5.367   0.185  0.00  0.00    +0.148 C 
ATOM     17  N   UNL     1       4.695   3.893   0.179  0.00  0.00    -0.268 N 
ATOM     18  C   UNL     1       3.544   3.198   0.088  0.00  0.00    +0.308 C 
ATOM     19  O   UNL     1       3.566   1.982   0.086  0.00  0.00    -0.252 OA
ATOM     20  N   UNL     1       2.368   3.850  -0.002  0.00  0.00    -0.269 N 
ATOM     21  H   UNL     1       2.353   4.818  -0.064  0.00  0.00    +0.156 HD
ENDROOT
BRANCH   1  26
ATOM     22  C   UNL     1       8.635   3.169  -2.430  0.00  0.00    +0.120 A 
ATOM     23  C   UNL     1       7.849   3.140  -3.573  0.00  0.00    +0.045 A 
ATOM     24  C   UNL     1       6.472   3.135  -3.462  0.00  0.00    +0.004 A 
ATOM     25  C   UNL     1       5.877   3.152  -2.214  0.00  0.00    +0.006 A 
ATOM     26  C   UNL     1       6.659   3.187  -1.074  0.00  0.00    -0.018 A 
ATOM     27  C   UNL     1       8.036   3.192  -1.179  0.00  0.00    +0.051 A 
BRANCH  22  29
ATOM     28  C   UNL     1      10.537   3.150  -3.856  0.00  0.00    +0.277 C 
ATOM     29  O   UNL     1       9.990   3.175  -2.536  0.00  0.00    -0.495 OA
ENDBRANCH  22  29
ENDBRANCH   1  26
BRANCH  20  30
ATOM     30  C   UNL     1       1.167   3.131  -0.004  0.00  0.00    +0.036 A 
ATOM     31  C   UNL     1       0.039   3.660   0.611  0.00  0.00    +0.023 A 
ATOM     32  C   UNL     1      -1.150   2.954   0.612  0.00  0.00    +0.003 A 
ATOM     33  C   UNL     1      -1.223   1.716   0.005  0.00  0.00    +0.015 A 
ATOM     34  C   UNL     1      -0.096   1.178  -0.620  0.00  0.00    +0.061 A 
ATOM     35  C   UNL     1       1.103   1.891  -0.621  0.00  0.00    +0.038 A 
BRANCH  34  36
ATOM     36  C   UNL     1      -0.173  -0.144  -1.275  0.00  0.00    +0.339 C 
ATOM     37  O   UNL     1       0.809  -0.613  -1.815  0.00  0.00    -0.245 OA
BRANCH  36  38
ATOM     38  O   UNL     1      -1.332  -0.831  -1.273  0.00  0.00    -0.464 OA
ATOM     39  C   UNL     1      -1.334  -2.123  -1.935  0.00  0.00    +0.280 C 
ENDBRANCH  36  38
ENDBRANCH  34  36
ENDBRANCH  20  30
TORSDOF 5
