REMARK  Name = ZINC01461538
REMARK  8 active torsions:
REMARK  status: ('A' for Active; 'I' for Inactive)
REMARK    1  A    between atoms: C_1  and  C_2
REMARK    2  A    between atoms: C_2  and  C_3
REMARK    3  A    between atoms: C_13  and  O_22
REMARK    4  A    between atoms: C_17  and  N_21
REMARK    5  A    between atoms: C_18  and  C_19
REMARK    6  A    between atoms: C_26  and  C_31
REMARK    7  A    between atoms: C_26  and  C_32
REMARK    8  A    between atoms: C_28  and  C_30
REMARK                            x       y       z     vdW  Elec       q    Type
REMARK                         _______ _______ _______ _____ _____    ______ ____
ROOT
ATOM      1  C   UNL     1      -0.749   3.086   1.275  0.00  0.00    -0.047 A 
ATOM      2  C   UNL     1      -1.817   3.742   0.681  0.00  0.00    +0.009 A 
ATOM      3  C   UNL     1      -1.875   5.115   0.664  0.00  0.00    -0.022 A 
ATOM      4  C   UNL     1      -0.818   5.797   1.267  0.00  0.00    +0.045 A 
ATOM      5  C   UNL     1       0.250   5.144   1.866  0.00  0.00    -0.001 A 
ATOM      6  C   UNL     1       0.302   3.768   1.885  0.00  0.00    +0.010 A 
ATOM      7  C   UNL     1       1.136   6.233   2.381  0.00  0.00    +0.142 C 
ATOM      8  C   UNL     1       2.487   6.184   1.723  0.00  0.00    +0.020 A 
ATOM      9  C   UNL     1       2.619   6.571   0.401  0.00  0.00    +0.012 A 
ATOM     10  C   UNL     1       3.854   6.530  -0.215  0.00  0.00    +0.046 A 
ATOM     11  C   UNL     1       4.968   6.099   0.491  0.00  0.00    +0.120 A 
ATOM     12  C   UNL     1       4.839   5.710   1.814  0.00  0.00    +0.092 A 
ATOM     13  C   UNL     1       3.597   5.752   2.433  0.00  0.00    +0.138 A 
ATOM     14  O   UNL     1       3.486   5.368   3.729  0.00  0.00    -0.441 OA
ATOM     15  C   UNL     1       2.419   5.740   4.454  0.00  0.00    +0.199 C 
ATOM     16  C   UNL     1       1.269   6.161   3.874  0.00  0.00    +0.110 C 
ATOM     17  C   UNL     1       0.427   7.521   1.991  0.00  0.00    +0.241 C 
ATOM     18  O   UNL     1       0.809   8.649   2.222  0.00  0.00    -0.274 OA
ATOM     19  N   UNL     1      -0.699   7.182   1.344  0.00  0.00    -0.264 N 
ATOM     20  C   UNL     1      -1.734   8.050   0.756  0.00  0.00    +0.037 C 
ATOM     21  C   UNL     1      -2.402   7.293  -0.398  0.00  0.00    +0.033 C 
ATOM     22  C   UNL     1      -2.970   5.945   0.059  0.00  0.00    +0.020 C 
ATOM     23  C   UNL     1      -3.562   5.207  -1.144  0.00  0.00    +0.012 C 
ATOM     24  C   UNL     1      -1.091   9.333   0.226  0.00  0.00    +0.032 C 
ATOM     25  C   UNL     1      -2.780   8.398   1.817  0.00  0.00    +0.032 C 
ENDROOT
BRANCH  15  26
ATOM     26  N   UNL     1       2.495   5.693   5.824  0.00  0.00    -0.328 N 
ATOM     27  H   UNL     1       3.311   5.395   6.254  0.00  0.00    +0.145 HD
ATOM     28  H   UNL     1       1.732   5.958   6.362  0.00  0.00    +0.145 HD
ENDBRANCH  15  26
BRANCH   1  30
ATOM     29  C   UNL     1      -0.013   1.086   0.008  0.00  0.00    +0.009 C 
ATOM     30  C   UNL     1      -0.729   1.579   1.267  0.00  0.00    +0.032 C 
ENDBRANCH   1  30
BRANCH  16  31
ATOM     31  C   UNL     1       0.163   6.544   4.699  0.00  0.00    +0.102 C 
ATOM     32  N   UNL     1      -0.715   6.848   5.353  0.00  0.00    -0.191 NA
ENDBRANCH  16  31
BRANCH  11  33
ATOM     33  O   UNL     1       6.184   6.059  -0.115  0.00  0.00    -0.507 OA
ATOM     34  H   UNL     1       6.693   6.877  -0.030  0.00  0.00    +0.292 HD
ENDBRANCH  11  33
TORSDOF 4
