REMARK  Name = ZINC66963874
REMARK  8 active torsions:
REMARK  status: ('A' for Active; 'I' for Inactive)
REMARK    1  A    between atoms: C_1  and  C_2
REMARK    2  A    between atoms: C_5  and  N_11
REMARK    3  A    between atoms: C_7  and  C_8
REMARK    4  A    between atoms: N_11  and  C_12
REMARK    5  A    between atoms: C_12  and  C_14
REMARK    6  A    between atoms: C_12  and  C_15
REMARK    7  A    between atoms: N_17  and  C_18
REMARK    8  A    between atoms: C_18  and  C_24
REMARK                            x       y       z     vdW  Elec       q    Type
REMARK                         _______ _______ _______ _____ _____    ______ ____
ROOT
ATOM      1  N   UNL     1       0.519  -4.131  -0.102  0.00  0.00    -0.333 N 
ATOM      2  H   UNL     1       0.764  -4.611   0.705  0.00  0.00    +0.147 HD
ENDROOT
BRANCH   1   7
ATOM      3  C   UNL     1      -0.501   1.454   0.081  0.00  0.00    +0.044 C 
ATOM      4  C   UNL     1      -0.230  -0.027   0.036  0.00  0.00    -0.038 A 
ATOM      5  C   UNL     1      -0.330  -0.711  -1.159  0.00  0.00    +0.006 A 
ATOM      6  C   UNL     1      -0.082  -2.070  -1.206  0.00  0.00    +0.023 A 
ATOM      7  C   UNL     1       0.270  -2.757  -0.050  0.00  0.00    +0.028 A 
ATOM      8  C   UNL     1       0.373  -2.079   1.155  0.00  0.00    +0.036 A 
ATOM      9  C   UNL     1       0.128  -0.707   1.201  0.00  0.00    +0.041 A 
BRANCH   9  10
ATOM     10  C   UNL     1       0.243   0.025   2.481  0.00  0.00    +0.242 C 
ATOM     11  O   UNL     1       0.140   1.236   2.500  0.00  0.00    -0.270 OA
ATOM     12  N   UNL     1       0.461  -0.651   3.627  0.00  0.00    -0.325 N 
ATOM     13  H   UNL     1       0.542  -1.618   3.611  0.00  0.00    +0.145 HD
ATOM     14  H   UNL     1       0.536  -0.172   4.466  0.00  0.00    +0.145 HD
ENDBRANCH   9  10
ENDBRANCH   1   7
BRANCH   1  15
ATOM     15  C   UNL     1       0.409  -4.847  -1.375  0.00  0.00    +0.154 C 
ATOM     16  C   UNL     1      -1.048  -5.251  -1.609  0.00  0.00    +0.038 C 
BRANCH  15  17
ATOM     17  C   UNL     1       1.272  -6.082  -1.333  0.00  0.00    +0.234 C 
ATOM     18  O   UNL     1       1.915  -6.338  -0.337  0.00  0.00    -0.274 OA
ATOM     19  N   UNL     1       1.329  -6.901  -2.401  0.00  0.00    -0.296 N 
ATOM     20  H   UNL     1       0.814  -6.696  -3.198  0.00  0.00    +0.150 HD
BRANCH  19  21
ATOM     21  C   UNL     1       2.168  -8.102  -2.360  0.00  0.00    +0.121 C 
ATOM     22  C   UNL     1       3.625  -7.698  -2.126  0.00  0.00    +0.041 C 
ATOM     23  C   UNL     1       4.501  -8.951  -2.083  0.00  0.00    +0.003 C 
ATOM     24  C   UNL     1       4.386  -9.700  -3.413  0.00  0.00    +0.000 C 
ATOM     25  C   UNL     1       2.929 -10.103  -3.647  0.00  0.00    +0.003 C 
ATOM     26  C   UNL     1       2.053  -8.850  -3.690  0.00  0.00    +0.041 C 
BRANCH  21  27
ATOM     27  C   UNL     1       1.719  -8.977  -1.265  0.00  0.00    +0.088 C 
ATOM     28  N   UNL     1       1.373  -9.652  -0.419  0.00  0.00    -0.194 NA
ENDBRANCH  21  27
ENDBRANCH  19  21
ENDBRANCH  15  17
ENDBRANCH   1  15
TORSDOF 6
