REMARK  Name = ZINC09616729
REMARK  9 active torsions:
REMARK  status: ('A' for Active; 'I' for Inactive)
REMARK    1  A    between atoms: C_4  and  C_7
REMARK    2  A    between atoms: C_7  and  N_8
REMARK    3  A    between atoms: C_11  and  N_14
REMARK    4  A    between atoms: C_15  and  C_17
REMARK    5  A    between atoms: C_17  and  C_18
REMARK    6  A    between atoms: C_18  and  C_19
REMARK    7  A    between atoms: C_19  and  N_20
REMARK    8  A    between atoms: N_29  and  C_32
REMARK    9  A    between atoms: C_32  and  C_33
REMARK                            x       y       z     vdW  Elec       q    Type
REMARK                         _______ _______ _______ _____ _____    ______ ____
ROOT
ATOM      1  C   UNL     1       8.305  -5.058   8.270  0.00  0.00    +0.130 C 
ENDROOT
BRANCH   1   2
ATOM      2  N   UNL     1       9.304  -6.124   8.383  0.00  0.00    -0.260 N 
ATOM      3  C   UNL     1       8.898  -7.389   8.627  0.00  0.00    +0.264 A 
ATOM      4  O   UNL     1       7.718  -7.652   8.752  0.00  0.00    -0.267 OA
ATOM      5  C   UNL     1       9.923  -8.442   8.736  0.00  0.00    +0.063 A 
ATOM      6  C   UNL     1       9.585  -9.770   8.985  0.00  0.00    +0.015 A 
ATOM      7  C   UNL     1      10.582 -10.719   9.078  0.00  0.00    +0.001 A 
ATOM      8  C   UNL     1      11.912 -10.357   8.926  0.00  0.00    +0.002 A 
ATOM      9  C   UNL     1      12.260  -9.044   8.678  0.00  0.00    +0.027 A 
ATOM     10  C   UNL     1      11.272  -8.077   8.581  0.00  0.00    +0.059 A 
ATOM     11  N   UNL     1      11.579  -6.747   8.334  0.00  0.00    -0.289 N 
ATOM     12  C   UNL     1      10.605  -5.825   8.238  0.00  0.00    +0.333 A 
ATOM     13  O   UNL     1      10.915  -4.671   8.015  0.00  0.00    -0.246 OA
BRANCH  11  14
ATOM     14  C   UNL     1      12.977  -6.343   8.169  0.00  0.00    +0.162 C 
BRANCH  14  15
ATOM     15  C   UNL     1      13.362  -6.443   6.716  0.00  0.00    -0.025 A 
ATOM     16  C   UNL     1      13.880  -7.625   6.217  0.00  0.00    +0.005 A 
ATOM     17  C   UNL     1      14.232  -7.718   4.884  0.00  0.00    +0.003 A 
ATOM     18  C   UNL     1      14.069  -6.630   4.048  0.00  0.00    +0.038 A 
ATOM     19  C   UNL     1      13.550  -5.447   4.545  0.00  0.00    +0.124 A 
ATOM     20  C   UNL     1      13.191  -5.356   5.880  0.00  0.00    +0.043 A 
ATOM     21  F   UNL     1      13.390  -4.382   3.729  0.00  0.00    -0.205 F 
ENDBRANCH  14  15
ENDBRANCH  11  14
ENDBRANCH   1   2
BRANCH   1  22
ATOM     22  C   UNL     1       7.856  -4.934   6.812  0.00  0.00    +0.031 C 
BRANCH  22  23
ATOM     23  C   UNL     1       6.813  -3.821   6.694  0.00  0.00    +0.097 C 
BRANCH  23  25
ATOM     24  N   UNL     1       5.449  -2.776   4.914  0.00  0.00    -0.313 N 
ATOM     25  C   UNL     1       6.370  -3.698   5.258  0.00  0.00    +0.213 C 
ATOM     26  O   UNL     1       6.842  -4.429   4.414  0.00  0.00    -0.276 OA
ATOM     27  H   UNL     1       5.071  -2.192   5.589  0.00  0.00    +0.149 HD
BRANCH  24  31
ATOM     28  N   UNL     1       4.153  -0.953   1.342  0.00  0.00    +0.382 N 
ATOM     29  C   UNL     1       3.203  -1.854   2.005  0.00  0.00    -0.077 C 
ATOM     30  C   UNL     1       3.614  -2.050   3.466  0.00  0.00    +0.003 C 
ATOM     31  C   UNL     1       5.019  -2.657   3.518  0.00  0.00    +0.069 C 
ATOM     32  C   UNL     1       5.987  -1.746   2.760  0.00  0.00    +0.003 C 
ATOM     33  C   UNL     1       5.489  -1.562   1.325  0.00  0.00    -0.077 C 
ATOM     34  H   UNL     1       4.190  -0.078   1.843  0.00  0.00    -0.081 HD
BRANCH  28  35
ATOM     35  C   UNL     1       3.711  -0.707  -0.038  0.00  0.00    -0.043 C 
BRANCH  35  39
ATOM     36  C   UNL     1      -0.017   1.378   0.010  0.00  0.00    +0.000 A 
ATOM     37  C   UNL     1       1.171   2.086   0.002  0.00  0.00    +0.000 A 
ATOM     38  C   UNL     1       2.377   1.411  -0.013  0.00  0.00    +0.002 A 
ATOM     39  C   UNL     1       2.396   0.029  -0.020  0.00  0.00    -0.064 A 
ATOM     40  C   UNL     1       1.208  -0.679  -0.012  0.00  0.00    +0.002 A 
ATOM     41  C   UNL     1       0.002  -0.004   0.002  0.00  0.00    +0.000 A 
ENDBRANCH  35  39
ENDBRANCH  28  35
ENDBRANCH  24  31
ENDBRANCH  23  25
ENDBRANCH  22  23
ENDBRANCH   1  22
TORSDOF 9
