REMARK  Name = ZINC14774232
REMARK  14 active torsions:
REMARK  status: ('A' for Active; 'I' for Inactive)
REMARK    1  A    between atoms: C_1  and  C_2
REMARK    2  A    between atoms: C_6  and  C_31
REMARK    3  A    between atoms: C_7  and  O_8
REMARK    4  A    between atoms: O_8  and  C_9
REMARK    5  A    between atoms: C_9  and  C_11
REMARK    6  A    between atoms: C_9  and  C_12
REMARK    7  A    between atoms: C_20  and  C_22
REMARK    8  A    between atoms: C_22  and  C_23
REMARK    9  A    between atoms: C_23  and  O_25
REMARK   10  A    between atoms: O_25  and  C_26
REMARK   11  A    between atoms: C_26  and  C_27
REMARK   12  A    between atoms: C_27  and  C_28
REMARK   13  A    between atoms: C_28  and  C_29
REMARK   14  A    between atoms: C_28  and  C_30
REMARK                            x       y       z     vdW  Elec       q    Type
REMARK                         _______ _______ _______ _____ _____    ______ ____
ROOT
ATOM      1  C   UNL     1      -0.022  -1.549   1.942  0.00  0.00    +0.257 C 
ATOM      2  O   UNL     1       0.881  -1.402   2.739  0.00  0.00    -0.272 OA
ATOM      3  N   UNL     1       0.123  -1.120   0.672  0.00  0.00    -0.285 N 
ATOM      4  C   UNL     1      -0.920  -1.355  -0.340  0.00  0.00    +0.127 C 
ATOM      5  C   UNL     1      -1.423   0.003  -0.832  0.00  0.00    +0.123 C 
ATOM      6  N   UNL     1      -0.307   0.889  -1.133  0.00  0.00    -0.312 N 
ATOM      7  C   UNL     1       0.922   0.755  -0.633  0.00  0.00    +0.234 C 
ATOM      8  O   UNL     1       1.750   1.602  -0.895  0.00  0.00    -0.274 OA
ATOM      9  C   UNL     1       1.331  -0.400   0.241  0.00  0.00    +0.173 C 
ATOM     10  H   UNL     1      -0.469   1.629  -1.739  0.00  0.00    +0.149 HD
ENDROOT
BRANCH   1  11
ATOM     11  C   UNL     1      -1.306  -2.210   2.372  0.00  0.00    +0.256 C 
ATOM     12  C   UNL     1      -1.377  -3.619   1.779  0.00  0.00    +0.062 C 
BRANCH  11  13
ATOM     13  O   UNL     1      -1.346  -2.291   3.798  0.00  0.00    -0.479 OA
BRANCH  13  20
ATOM     14  C   UNL     1      -2.698   0.159   4.183  0.00  0.00    +0.047 C 
ATOM     15  C   UNL     1      -3.285  -1.166   4.593  0.00  0.00    -0.008 A 
ATOM     16  C   UNL     1      -4.536  -1.217   5.179  0.00  0.00    +0.007 A 
ATOM     17  C   UNL     1      -5.073  -2.432   5.561  0.00  0.00    +0.001 A 
ATOM     18  C   UNL     1      -4.363  -3.600   5.354  0.00  0.00    +0.007 A 
ATOM     19  C   UNL     1      -3.115  -3.556   4.763  0.00  0.00    -0.008 A 
ATOM     20  C   UNL     1      -2.574  -2.337   4.379  0.00  0.00    +0.127 A 
ATOM     21  C   UNL     1      -2.342  -4.829   4.537  0.00  0.00    +0.047 C 
ENDBRANCH  13  20
ENDBRANCH  11  13
ENDBRANCH   1  11
BRANCH   9  22
ATOM     22  C   UNL     1       2.239  -1.346  -0.546  0.00  0.00    +0.152 C 
BRANCH  22  23
ATOM     23  C   UNL     1       2.733  -2.441   0.364  0.00  0.00    +0.309 C 
ATOM     24  O   UNL     1       2.394  -2.462   1.523  0.00  0.00    -0.251 OA
BRANCH  23  25
ATOM     25  O   UNL     1       3.550  -3.393  -0.114  0.00  0.00    -0.465 OA
BRANCH  25  26
ATOM     26  C   UNL     1       3.987  -4.416   0.820  0.00  0.00    +0.232 C 
BRANCH  26  27
ATOM     27  C   UNL     1       4.905  -5.405   0.099  0.00  0.00    +0.044 C 
BRANCH  27  28
ATOM     28  C   UNL     1       5.365  -6.483   1.082  0.00  0.00    -0.014 C 
ATOM     29  C   UNL     1       4.159  -7.307   1.536  0.00  0.00    +0.007 C 
ATOM     30  C   UNL     1       6.380  -7.400   0.396  0.00  0.00    +0.007 C 
ENDBRANCH  27  28
ENDBRANCH  26  27
ENDBRANCH  25  26
ENDBRANCH  23  25
ENDBRANCH  22  23
ENDBRANCH   9  22
TORSDOF 9
