REMARK  Name = ZINC57577536
REMARK  9 active torsions:
REMARK  status: ('A' for Active; 'I' for Inactive)
REMARK    1  A    between atoms: C_1  and  C_2
REMARK    2  A    between atoms: C_4  and  S_31
REMARK    3  A    between atoms: C_6  and  N_9
REMARK    4  A    between atoms: C_7  and  C_8
REMARK    5  A    between atoms: C_10  and  C_12
REMARK    6  A    between atoms: C_13  and  C_14
REMARK    7  A    between atoms: N_16  and  C_25
REMARK    8  A    between atoms: C_18  and  C_19
REMARK    9  A    between atoms: S_31  and  N_34
REMARK                            x       y       z     vdW  Elec       q    Type
REMARK                         _______ _______ _______ _____ _____    ______ ____
ROOT
ATOM      1  C   UNL     1      -0.126  -4.853   3.607  0.00  0.00    +0.068 C 
ATOM      2  C   UNL     1      -0.210  -6.202   3.600  0.00  0.00    +0.016 C 
ENDROOT
BRANCH   2   3
ATOM      3  C   UNL     1      -0.306  -6.938   4.866  0.00  0.00    +0.021 A 
ATOM      4  C   UNL     1      -0.327  -6.399   6.138  0.00  0.00    +0.123 A 
ATOM      5  N   UNL     1      -0.422  -7.416   7.015  0.00  0.00    -0.239 N 
ATOM      6  N   UNL     1      -0.464  -8.630   6.324  0.00  0.00    -0.166 NA
ATOM      7  C   UNL     1      -0.404  -8.393   5.032  0.00  0.00    +0.100 A 
BRANCH   7   8
ATOM      8  C   UNL     1      -0.426  -9.405   3.949  0.00  0.00    +0.003 A 
ATOM      9  C   UNL     1      -1.051  -9.117   2.736  0.00  0.00    +0.010 A 
ATOM     10  C   UNL     1      -1.069 -10.063   1.731  0.00  0.00    +0.001 A 
ATOM     11  C   UNL     1      -0.469 -11.294   1.926  0.00  0.00    +0.000 A 
ATOM     12  C   UNL     1       0.153 -11.585   3.127  0.00  0.00    +0.001 A 
ATOM     13  C   UNL     1       0.182 -10.645   4.137  0.00  0.00    +0.010 A 
ENDBRANCH   7   8
BRANCH   5  14
ATOM     14  C   UNL     1      -0.471  -7.278   8.408  0.00  0.00    +0.065 A 
ATOM     15  C   UNL     1      -0.427  -6.016   8.984  0.00  0.00    +0.028 A 
ATOM     16  C   UNL     1      -0.475  -5.883  10.358  0.00  0.00    +0.002 A 
ATOM     17  C   UNL     1      -0.568  -7.006  11.159  0.00  0.00    +0.000 A 
ATOM     18  C   UNL     1      -0.612  -8.265  10.588  0.00  0.00    +0.002 A 
ATOM     19  C   UNL     1      -0.570  -8.404   9.215  0.00  0.00    +0.028 A 
ENDBRANCH   5  14
ENDBRANCH   2   3
BRANCH   1  21
ATOM     20  N   UNL     1       0.050  -2.797   2.392  0.00  0.00    -0.282 N 
ATOM     21  C   UNL     1      -0.034  -4.142   2.384  0.00  0.00    +0.241 C 
ATOM     22  O   UNL     1      -0.031  -4.747   1.327  0.00  0.00    -0.270 OA
ATOM     23  H   UNL     1       0.129  -2.321   3.233  0.00  0.00    +0.155 HD
BRANCH  20  29
ATOM     24  C   UNL     1       1.207   1.235  -0.172  0.00  0.00    +0.044 C 
ATOM     25  C   UNL     1       0.578  -0.132  -0.085  0.00  0.00    -0.044 A 
ATOM     26  C   UNL     1      -0.027  -0.686  -1.198  0.00  0.00    +0.032 A 
ATOM     27  C   UNL     1      -0.606  -1.939  -1.122  0.00  0.00    +0.107 A 
ATOM     28  C   UNL     1      -0.582  -2.642   0.067  0.00  0.00    +0.052 A 
ATOM     29  C   UNL     1       0.025  -2.088   1.187  0.00  0.00    +0.039 A 
ATOM     30  C   UNL     1       0.610  -0.831   1.105  0.00  0.00    -0.026 A 
ATOM     31  C   UNL     1       1.275  -0.229   2.317  0.00  0.00    +0.046 C 
BRANCH  27  32
ATOM     32  S   UNL     1      -1.375  -2.641  -2.544  0.00  0.00    +0.056 S 
ATOM     33  O   UNL     1      -2.320  -3.590  -2.068  0.00  0.00    -0.153 OA
ATOM     34  O   UNL     1      -1.743  -1.555  -3.384  0.00  0.00    -0.153 OA
BRANCH  32  35
ATOM     35  N   UNL     1      -0.214  -3.496  -3.357  0.00  0.00    -0.204 NA
ATOM     36  H   UNL     1       0.693  -3.531  -3.014  0.00  0.00    +0.144 HD
ATOM     37  H   UNL     1      -0.440  -3.962  -4.177  0.00  0.00    +0.144 HD
ENDBRANCH  32  35
ENDBRANCH  27  32
ENDBRANCH  20  29
ENDBRANCH   1  21
TORSDOF 7
