REMARK  Name = ZINC14460906
REMARK  3 active torsions:
REMARK  status: ('A' for Active; 'I' for Inactive)
REMARK    1  A    between atoms: C_6  and  N_7
REMARK    2  A    between atoms: C_17  and  C_20
REMARK    3  A    between atoms: C_25  and  O_26
REMARK                            x       y       z     vdW  Elec       q    Type
REMARK                         _______ _______ _______ _____ _____    ______ ____
ROOT
ATOM      1  C   UNL     1       3.414   8.815  -0.193  0.00  0.00    +0.034 A 
ATOM      2  C   UNL     1       2.907   7.596  -0.596  0.00  0.00    +0.025 A 
ATOM      3  C   UNL     1       1.699   7.136  -0.085  0.00  0.00    +0.032 A 
ATOM      4  C   UNL     1       0.997   7.930   0.829  0.00  0.00    -0.017 A 
ATOM      5  C   UNL     1       1.515   9.143   1.228  0.00  0.00    +0.038 A 
ATOM      6  C   UNL     1       2.722   9.588   0.721  0.00  0.00    +0.127 A 
ATOM      7  C   UNL     1      -0.296   7.414   1.329  0.00  0.00    +0.049 C 
ATOM      8  C   UNL     1      -0.850   7.823   2.645  0.00  0.00    -0.023 C 
ATOM      9  C   UNL     1      -1.562   6.816   3.135  0.00  0.00    -0.030 C 
ATOM     10  C   UNL     1      -1.508   5.622   2.180  0.00  0.00    +0.033 C 
ATOM     11  C   UNL     1      -0.177   5.866   1.455  0.00  0.00    +0.029 C 
ATOM     12  C   UNL     1      -0.060   5.351   0.032  0.00  0.00    +0.108 C 
ATOM     13  N   UNL     1       1.223   5.879  -0.479  0.00  0.00    -0.336 N 
ATOM     14  H   UNL     1       1.745   5.346  -1.099  0.00  0.00    +0.147 HD
ENDROOT
BRANCH  12  15
ATOM     15  C   UNL     1      -0.043   3.844   0.023  0.00  0.00    +0.015 A 
ATOM     16  C   UNL     1       1.161   3.167   0.008  0.00  0.00    +0.024 A 
ATOM     17  C   UNL     1       1.176   1.783   0.000  0.00  0.00    +0.018 A 
ATOM     18  C   UNL     1      -0.013   1.076   0.008  0.00  0.00    +0.019 A 
ATOM     19  C   UNL     1      -1.218   1.750   0.017  0.00  0.00    +0.047 A 
ATOM     20  C   UNL     1      -1.236   3.137   0.030  0.00  0.00    +0.122 A 
ATOM     21 BR   UNL     1       2.826   0.858  -0.020  0.00  0.00    -0.050 Br
BRANCH  20  22
ATOM     22  O   UNL     1      -2.422   3.802   0.045  0.00  0.00    -0.506 OA
ATOM     23  H   UNL     1      -2.773   3.999  -0.834  0.00  0.00    +0.292 HD
ENDBRANCH  20  22
ENDBRANCH  12  15
BRANCH   6  24
ATOM     24  N   UNL     1       3.272  10.891   1.155  0.00  0.00    +0.056 N 
ATOM     25  O   UNL     1       2.662  11.572   1.960  0.00  0.00    -0.126 OA
ATOM     26  O   UNL     1       4.335  11.283   0.708  0.00  0.00    -0.126 OA
ENDBRANCH   6  24
TORSDOF 3
