REMARK  Name = ZINC34791176
REMARK  12 active torsions:
REMARK  status: ('A' for Active; 'I' for Inactive)
REMARK    1  A    between atoms: C_1  and  C_2
REMARK    2  A    between atoms: C_2  and  N_3
REMARK    3  A    between atoms: C_6  and  C_11
REMARK    4  A    between atoms: C_15  and  O_17
REMARK    5  A    between atoms: O_17  and  C_18
REMARK    6  A    between atoms: N_26  and  C_28
REMARK    7  A    between atoms: C_28  and  C_30
REMARK    8  A    between atoms: C_28  and  C_33
REMARK    9  A    between atoms: C_30  and  C_31
REMARK   10  A    between atoms: C_30  and  C_32
REMARK   11  A    between atoms: N_35  and  C_36
REMARK   12  A    between atoms: C_36  and  C_37
REMARK                            x       y       z     vdW  Elec       q    Type
REMARK                         _______ _______ _______ _____ _____    ______ ____
ROOT
ATOM      1  N   UNL     1       0.449  -0.196   1.362  0.00  0.00    -0.257 N 
ATOM      2  C   UNL     1      -0.613  -0.777   1.994  0.00  0.00    +0.042 C 
ATOM      3  C   UNL     1      -1.723  -1.131   1.315  0.00  0.00    +0.058 C 
ATOM      4  C   UNL     1      -1.753  -0.861  -0.176  0.00  0.00    +0.142 C 
ATOM      5  N   UNL     1      -0.559  -0.230  -0.763  0.00  0.00    -0.288 N 
ATOM      6  C   UNL     1       0.474   0.070   0.049  0.00  0.00    +0.307 C 
ATOM      7  O   UNL     1       1.462   0.595  -0.425  0.00  0.00    -0.252 OA
ATOM      8  C   UNL     1      -2.668  -1.708   2.187  0.00  0.00    +0.247 C 
ATOM      9  O   UNL     1      -3.762  -2.119   1.843  0.00  0.00    -0.270 OA
ATOM     10  N   UNL     1      -2.205  -1.747   3.450  0.00  0.00    -0.280 N 
ATOM     11  C   UNL     1      -0.858  -1.159   3.437  0.00  0.00    +0.160 C 
ATOM     12  H   UNL     1      -0.518  -0.032  -1.712  0.00  0.00    +0.151 HD
ENDROOT
BRANCH   4  13
ATOM     13  C   UNL     1      -1.979  -2.173  -0.881  0.00  0.00    -0.019 A 
ATOM     14  C   UNL     1      -0.924  -3.046  -1.071  0.00  0.00    +0.006 A 
ATOM     15  C   UNL     1      -1.128  -4.251  -1.718  0.00  0.00    +0.004 A 
ATOM     16  C   UNL     1      -2.387  -4.585  -2.177  0.00  0.00    +0.046 A 
ATOM     17  C   UNL     1      -3.448  -3.711  -1.988  0.00  0.00    +0.129 A 
ATOM     18  C   UNL     1      -3.241  -2.505  -1.333  0.00  0.00    +0.052 A 
BRANCH  17  19
ATOM     19  O   UNL     1      -4.687  -4.037  -2.439  0.00  0.00    -0.456 OA
BRANCH  19  20
ATOM     20  C   UNL     1      -5.147  -3.408  -3.552  0.00  0.00    +0.128 A 
ATOM     21  C   UNL     1      -4.316  -2.553  -4.261  0.00  0.00    +0.046 A 
ATOM     22  C   UNL     1      -4.786  -1.915  -5.392  0.00  0.00    +0.004 A 
ATOM     23  C   UNL     1      -6.084  -2.127  -5.818  0.00  0.00    +0.000 A 
ATOM     24  C   UNL     1      -6.915  -2.979  -5.114  0.00  0.00    +0.004 A 
ATOM     25  C   UNL     1      -6.448  -3.625  -3.985  0.00  0.00    +0.046 A 
ENDBRANCH  19  20
ENDBRANCH  17  19
ENDBRANCH   4  13
BRANCH   1  27
ATOM     26  C   UNL     1       1.459   1.588   2.696  0.00  0.00    +0.025 C 
ATOM     27  C   UNL     1       1.621   0.162   2.164  0.00  0.00    +0.111 C 
ENDBRANCH   1  27
BRANCH  10  28
ATOM     28  C   UNL     1      -2.911  -2.276   4.619  0.00  0.00    +0.165 C 
BRANCH  28  29
ATOM     29  C   UNL     1      -4.193  -1.510   4.821  0.00  0.00    +0.234 C 
ATOM     30  O   UNL     1      -4.628  -0.810   3.931  0.00  0.00    -0.274 OA
ATOM     31  N   UNL     1      -4.857  -1.604   5.990  0.00  0.00    -0.310 N 
ATOM     32  H   UNL     1      -4.482  -2.120   6.720  0.00  0.00    +0.149 HD
BRANCH  31  33
ATOM     33  C   UNL     1      -6.144  -0.925   6.158  0.00  0.00    +0.131 C 
BRANCH  33  34
ATOM     34  C   UNL     1      -6.673  -1.186   7.545  0.00  0.00    -0.016 C 
ATOM     35  C   UNL     1      -6.989  -0.182   8.325  0.00  0.00    +0.005 C 
ENDBRANCH  33  34
ENDBRANCH  31  33
ENDBRANCH  28  29
BRANCH  28  36
ATOM     36  C   UNL     1      -3.231  -3.756   4.395  0.00  0.00    +0.012 C 
ATOM     37  C   UNL     1      -1.946  -4.508   4.043  0.00  0.00    +0.009 C 
ATOM     38  C   UNL     1      -3.834  -4.346   5.671  0.00  0.00    +0.009 C 
ENDBRANCH  28  36
ENDBRANCH  10  28
TORSDOF 9
