REMARK  Name = ZINC21932544
REMARK  11 active torsions:
REMARK  status: ('A' for Active; 'I' for Inactive)
REMARK    1  A    between atoms: C_1  and  O_2
REMARK    2  A    between atoms: O_2  and  C_3
REMARK    3  A    between atoms: C_3  and  C_4
REMARK    4  A    between atoms: C_4  and  N_5
REMARK    5  A    between atoms: C_6  and  C_8
REMARK    6  A    between atoms: C_8  and  C_9
REMARK    7  A    between atoms: C_9  and  C_10
REMARK    8  A    between atoms: C_10  and  C_11
REMARK    9  A    between atoms: N_19  and  C_21
REMARK   10  A    between atoms: C_21  and  C_22
REMARK   11  A    between atoms: N_32  and  C_33
REMARK                            x       y       z     vdW  Elec       q    Type
REMARK                         _______ _______ _______ _____ _____    ______ ____
ROOT
ATOM      1  C   UNL     1      -0.503   1.485   4.267  0.00  0.00    +0.079 C 
ATOM      2  C   UNL     1       0.261   1.466   5.595  0.00  0.00    -0.007 C 
ATOM      3  C   UNL     1       0.432   0.015   6.055  0.00  0.00    +0.006 C 
ATOM      4  C   UNL     1      -0.949  -0.604   6.292  0.00  0.00    -0.010 C 
ATOM      5  C   UNL     1      -1.709   0.232   7.324  0.00  0.00    -0.073 C 
ATOM      6  N   UNL     1      -1.847   1.610   6.834  0.00  0.00    +0.383 N 
ATOM      7  C   UNL     1      -0.534   2.241   6.648  0.00  0.00    -0.073 C 
ATOM      8  C   UNL     1      -1.728  -0.612   4.972  0.00  0.00    +0.111 C 
ATOM      9  N   UNL     1      -1.767   0.756   4.439  0.00  0.00    -0.282 N 
ATOM     10  C   UNL     1      -2.941   1.332   4.112  0.00  0.00    +0.303 C 
ATOM     11  O   UNL     1      -3.971   0.690   4.175  0.00  0.00    -0.253 OA
ATOM     12  N   UNL     1      -2.972   2.620   3.715  0.00  0.00    -0.296 N 
ATOM     13  H   UNL     1      -2.033   3.175   3.576  0.00  0.00    +0.151 HD
ATOM     14  H   UNL     1      -2.342   1.569   5.852  0.00  0.00    -0.081 HD
ENDROOT
BRANCH  12  15
ATOM     15  C   UNL     1      -4.257   3.279   3.468  0.00  0.00    +0.074 C 
ATOM     16  C   UNL     1      -4.712   2.990   2.037  0.00  0.00    +0.022 C 
ATOM     17  C   UNL     1      -6.054   3.678   1.779  0.00  0.00    +0.002 C 
ATOM     18  C   UNL     1      -5.897   5.188   1.969  0.00  0.00    +0.000 C 
ATOM     19  C   UNL     1      -5.442   5.478   3.401  0.00  0.00    +0.002 C 
ATOM     20  C   UNL     1      -4.100   4.789   3.658  0.00  0.00    +0.022 C 
ENDBRANCH  12  15
BRANCH   1  21
ATOM     21  C   UNL     1       0.337   0.807   3.182  0.00  0.00    +0.023 C 
BRANCH  21  22
ATOM     22  C   UNL     1      -0.381   0.921   1.836  0.00  0.00    +0.011 C 
BRANCH  22  23
ATOM     23  C   UNL     1       0.459   0.244   0.751  0.00  0.00    +0.096 C 
BRANCH  23  25
ATOM     24  N   UNL     1       0.309  -0.173  -1.682  0.00  0.00    -0.313 N 
ATOM     25  C   UNL     1      -0.248   0.356  -0.575  0.00  0.00    +0.213 C 
ATOM     26  O   UNL     1      -1.318   0.923  -0.646  0.00  0.00    -0.276 OA
ATOM     27  H   UNL     1       1.280  -0.686  -1.618  0.00  0.00    +0.149 HD
BRANCH  24  28
ATOM     28  C   UNL     1      -0.378  -0.063  -2.972  0.00  0.00    +0.132 C 
BRANCH  28  29
ATOM     29  C   UNL     1       0.462  -0.741  -4.056  0.00  0.00    +0.178 C 
BRANCH  29  31
ATOM     30  C   UNL     1       1.310  -2.873  -4.748  0.00  0.00    +0.194 C 
ATOM     31  O   UNL     1       0.544  -2.142  -3.789  0.00  0.00    -0.381 OA
ENDBRANCH  29  31
ENDBRANCH  28  29
ENDBRANCH  24  28
ENDBRANCH  23  25
ENDBRANCH  22  23
ENDBRANCH  21  22
ENDBRANCH   1  21
BRANCH   6  32
ATOM     32  C   UNL     1      -2.691   2.406   7.734  0.00  0.00    -0.043 C 
BRANCH  32  33
ATOM     33  C   UNL     1      -4.113   1.913   7.657  0.00  0.00    -0.064 A 
ATOM     34  C   UNL     1      -4.989   2.469   6.744  0.00  0.00    +0.002 A 
ATOM     35  C   UNL     1      -6.292   2.012   6.670  0.00  0.00    +0.000 A 
ATOM     36  C   UNL     1      -6.721   1.007   7.517  0.00  0.00    +0.000 A 
ATOM     37  C   UNL     1      -5.846   0.455   8.434  0.00  0.00    +0.000 A 
ATOM     38  C   UNL     1      -4.542   0.908   8.504  0.00  0.00    +0.002 A 
ENDBRANCH  32  33
ENDBRANCH   6  32
TORSDOF 10
