REMARK  Name = ZINC11069609
REMARK  8 active torsions:
REMARK  status: ('A' for Active; 'I' for Inactive)
REMARK    1  A    between atoms: C_1  and  C_2
REMARK    2  A    between atoms: C_15  and  C_17
REMARK    3  A    between atoms: C_17  and  N_55
REMARK    4  A    between atoms: C_18  and  N_55
REMARK    5  A    between atoms: C_19  and  C_21
REMARK    6  A    between atoms: C_19  and  C_22
REMARK    7  A    between atoms: C_19  and  N_55
REMARK    8  A    between atoms: N_24  and  C_25
REMARK                            x       y       z     vdW  Elec       q    Type
REMARK                         _______ _______ _______ _____ _____    ______ ____
ROOT
ATOM      1  C   UNL     1       0.393   3.529  -2.283  0.00  0.00    +0.020 C 
ENDROOT
BRANCH   1  15
ATOM      2  C   UNL     1       0.456   4.066   2.316  0.00  0.00    +0.029 C 
ATOM      3  C   UNL     1       1.599   4.144   1.302  0.00  0.00    +0.087 C 
ATOM      4  C   UNL     1       2.834   3.448   1.874  0.00  0.00    +0.118 C 
ATOM      5  C   UNL     1       3.822   3.160   0.775  0.00  0.00    +0.219 C 
ATOM      6  O   UNL     1       4.818   3.844   0.666  0.00  0.00    -0.275 OA
ATOM      7  N   UNL     1       3.606   2.146  -0.090  0.00  0.00    -0.284 N 
ATOM      8  C   UNL     1       2.417   1.411  -0.039  0.00  0.00    +0.055 A 
ATOM      9  C   UNL     1       2.437   0.026  -0.043  0.00  0.00    +0.025 A 
ATOM     10  C   UNL     1       1.248  -0.680  -0.022  0.00  0.00    +0.002 A 
ATOM     11  C   UNL     1       0.039  -0.008  -0.003  0.00  0.00    +0.002 A 
ATOM     12  C   UNL     1       0.011   1.374   0.006  0.00  0.00    +0.025 A 
ATOM     13  C   UNL     1       1.197   2.088  -0.002  0.00  0.00    +0.058 A 
ATOM     14  N   UNL     1       1.189   3.488   0.059  0.00  0.00    -0.268 N 
ATOM     15  C   UNL     1       0.811   4.218  -1.009  0.00  0.00    +0.204 C 
ATOM     16  O   UNL     1       0.808   5.429  -0.945  0.00  0.00    -0.277 OA
ATOM     17  H   UNL     1       4.280   1.926  -0.752  0.00  0.00    +0.155 HD
ENDBRANCH   1  15
BRANCH   1  19
ATOM     18  C   UNL     1      -1.171   5.279  -2.881  0.00  0.00    -0.094 C 
ATOM     19  N   UNL     1       0.051   4.556  -3.290  0.00  0.00    +0.391 N 
ATOM     20  H   UNL     1       0.827   5.225  -3.360  0.00  0.00    -0.080 HD
BRANCH  19  21
ATOM     21  C   UNL     1      -0.155   3.921  -4.609  0.00  0.00    +0.017 C 
ATOM     22  C   UNL     1      -1.425   3.067  -4.600  0.00  0.00    -0.004 C 
BRANCH  21  23
ATOM     23  C   UNL     1      -0.282   5.000  -5.653  0.00  0.00    +0.203 C 
ATOM     24  O   UNL     1      -0.224   6.167  -5.329  0.00  0.00    -0.277 OA
ATOM     25  N   UNL     1      -0.459   4.668  -6.947  0.00  0.00    -0.287 N 
ATOM     26  H   UNL     1      -0.438   3.736  -7.216  0.00  0.00    +0.155 HD
BRANCH  25  27
ATOM     27  C   UNL     1      -0.674   5.667  -7.903  0.00  0.00    +0.036 A 
ATOM     28  C   UNL     1      -1.520   5.430  -8.978  0.00  0.00    +0.043 A 
ATOM     29  C   UNL     1      -1.734   6.420  -9.918  0.00  0.00    +0.044 A 
ATOM     30  C   UNL     1      -1.099   7.643  -9.794  0.00  0.00    +0.040 A 
ATOM     31  C   UNL     1      -0.251   7.880  -8.727  0.00  0.00    +0.044 A 
ATOM     32  C   UNL     1      -0.037   6.894  -7.781  0.00  0.00    +0.043 A 
ATOM     33 CL   UNL     1       0.546   9.415  -8.575  0.00  0.00    -0.083 Cl
ATOM     34 CL   UNL     1      -2.797   6.128 -11.260  0.00  0.00    -0.083 Cl
ENDBRANCH  25  27
ENDBRANCH  21  23
ENDBRANCH  19  21
ENDBRANCH   1  19
TORSDOF 5
