REMARK  Name = ZINC26401366
REMARK  5 active torsions:
REMARK  status: ('A' for Active; 'I' for Inactive)
REMARK    1  A    between atoms: C_1  and  O_2
REMARK    2  A    between atoms: O_2  and  C_3
REMARK    3  A    between atoms: C_5  and  S_20
REMARK    4  A    between atoms: C_8  and  C_9
REMARK    5  A    between atoms: S_20  and  C_22
REMARK                            x       y       z     vdW  Elec       q    Type
REMARK                         _______ _______ _______ _____ _____    ______ ____
ROOT
ATOM      1  C   UNL     1       1.213  -0.680  -0.013  0.00  0.00    +0.128 A 
ATOM      2  C   UNL     1       2.403   0.034  -0.021  0.00  0.00    +0.063 A 
ATOM      3  C   UNL     1       2.379   1.415  -0.013  0.00  0.00    +0.042 A 
ATOM      4  C   UNL     1       1.170   2.086   0.002  0.00  0.00    +0.018 A 
ATOM      5  C   UNL     1      -0.017   1.377   0.010  0.00  0.00    +0.012 A 
ATOM      6  C   UNL     1       0.002  -0.004   0.002  0.00  0.00    +0.033 A 
ENDROOT
BRANCH   6   7
ATOM      7  C   UNL     1      -1.292  -0.776   0.010  0.00  0.00    +0.209 C 
ATOM      8  N   UNL     1      -2.375   0.029  -0.618  0.00  0.00    -0.279 NA
ATOM      9  C   UNL     1      -2.265  -0.385  -2.026  0.00  0.00    +0.147 C 
ATOM     10  C   UNL     1      -3.586  -0.221  -2.741  0.00  0.00    +0.001 C 
ATOM     11  C   UNL     1      -3.902  -1.211  -3.597  0.00  0.00    +0.017 C 
ATOM     12  C   UNL     1      -3.030  -2.304  -3.796  0.00  0.00    +0.112 C 
ATOM     13  N   UNL     1      -2.016  -2.584  -3.031  0.00  0.00    -0.239 NA
ATOM     14  C   UNL     1      -1.733  -1.811  -1.963  0.00  0.00    +0.147 C 
ATOM     15  N   UNL     1      -1.168  -1.985  -0.818  0.00  0.00    -0.244 NA
ATOM     16  H   UNL     1      -3.340  -0.234  -0.160  0.00  0.00    +0.125 HD
ENDBRANCH   6   7
BRANCH   3  17
ATOM     17  S   UNL     1       3.890   2.321  -0.023  0.00  0.00    +0.051 S 
ATOM     18  O   UNL     1       4.835   1.420   0.537  0.00  0.00    -0.252 OA
ATOM     19  C   UNL     1       4.249   2.557  -1.786  0.00  0.00    +0.127 C 
ENDBRANCH   3  17
BRANCH   1  21
ATOM     20  C   UNL     1       2.517  -2.668  -0.037  0.00  0.00    +0.277 C 
ATOM     21  O   UNL     1       1.234  -2.039  -0.021  0.00  0.00    -0.495 OA
ENDBRANCH   1  21
TORSDOF 3
