REMARK  Name = ZINC15834232
REMARK  8 active torsions:
REMARK  status: ('A' for Active; 'I' for Inactive)
REMARK    1  A    between atoms: C_1  and  C_2
REMARK    2  A    between atoms: C_2  and  O_3
REMARK    3  A    between atoms: O_3  and  C_4
REMARK    4  A    between atoms: C_9  and  C_10
REMARK    5  A    between atoms: C_15  and  C_24
REMARK    6  A    between atoms: C_28  and  C_30
REMARK    7  A    between atoms: N_33  and  C_38
REMARK    8  A    between atoms: N_36  and  C_37
REMARK                            x       y       z     vdW  Elec       q    Type
REMARK                         _______ _______ _______ _____ _____    ______ ____
ROOT
ATOM      1  C   UNL     1      -1.920   2.312   3.322  0.00  0.00    +0.154 C 
ATOM      2  C   UNL     1      -3.110   1.435   2.998  0.00  0.00    +0.073 A 
ATOM      3  C   UNL     1      -3.516   0.970   1.825  0.00  0.00    +0.082 A 
ATOM      4  C   UNL     1      -4.723   0.147   2.090  0.00  0.00    +0.089 A 
ATOM      5  C   UNL     1      -4.940   0.196   3.445  0.00  0.00    +0.069 A 
ATOM      6  N   UNL     1      -3.976   0.988   3.986  0.00  0.00    -0.306 N 
ATOM      7  C   UNL     1      -3.811   1.372   5.325  0.00  0.00    +0.068 A 
ATOM      8  C   UNL     1      -4.524   0.770   6.344  0.00  0.00    +0.028 A 
ATOM      9  C   UNL     1      -4.316   1.165   7.654  0.00  0.00    +0.002 A 
ATOM     10  C   UNL     1      -3.397   2.158   7.942  0.00  0.00    +0.002 A 
ATOM     11  C   UNL     1      -2.686   2.769   6.927  0.00  0.00    +0.025 A 
ATOM     12  C   UNL     1      -2.894   2.388   5.611  0.00  0.00    +0.052 A 
ATOM     13  N   UNL     1      -2.217   3.033   4.569  0.00  0.00    -0.330 N 
ATOM     14  C   UNL     1      -5.401  -0.512   0.969  0.00  0.00    +0.266 A 
ATOM     15  O   UNL     1      -6.392  -1.201   1.122  0.00  0.00    -0.267 OA
ATOM     16  N   UNL     1      -4.847  -0.299  -0.253  0.00  0.00    -0.263 N 
ATOM     17  C   UNL     1      -3.760   0.451  -0.456  0.00  0.00    +0.332 A 
ATOM     18  O   UNL     1      -3.365   0.562  -1.600  0.00  0.00    -0.246 OA
ATOM     19  N   UNL     1      -3.061   1.097   0.504  0.00  0.00    -0.294 N 
ATOM     20  C   UNL     1      -1.878   1.897   0.179  0.00  0.00    +0.154 C 
ATOM     21  C   UNL     1      -5.478  -0.928  -1.416  0.00  0.00    +0.157 C 
ATOM     22  H   UNL     1      -1.942   3.958   4.670  0.00  0.00    +0.147 HD
ENDROOT
BRANCH   5  23
ATOM     23  C   UNL     1      -6.022  -0.487   4.181  0.00  0.00    -0.000 A 
ATOM     24  C   UNL     1      -6.151  -1.876   4.109  0.00  0.00    +0.010 A 
ATOM     25  C   UNL     1      -7.161  -2.508   4.804  0.00  0.00    +0.001 A 
ATOM     26  C   UNL     1      -8.052  -1.768   5.561  0.00  0.00    +0.003 A 
ATOM     27  C   UNL     1      -7.934  -0.392   5.632  0.00  0.00    -0.050 A 
ATOM     28  C   UNL     1      -6.925   0.253   4.947  0.00  0.00    +0.013 A 
ATOM     29  C   UNL     1      -8.909   0.405   6.460  0.00  0.00    +0.044 C 
ENDBRANCH   5  23
BRANCH   1  35
ATOM     30  C   UNL     1       0.568   2.035   3.474  0.00  0.00    +0.126 A 
ATOM     31  C   UNL     1       1.695   1.246   3.650  0.00  0.00    +0.046 A 
ATOM     32  C   UNL     1       1.561  -0.113   3.854  0.00  0.00    +0.004 A 
ATOM     33  C   UNL     1       0.303  -0.688   3.881  0.00  0.00    +0.001 A 
ATOM     34  C   UNL     1      -0.822   0.096   3.706  0.00  0.00    +0.009 A 
ATOM     35  C   UNL     1      -0.693   1.457   3.508  0.00  0.00    +0.020 A 
BRANCH  30  36
ATOM     36  O   UNL     1       0.697   3.373   3.273  0.00  0.00    -0.492 OA
BRANCH  36  38
ATOM     37  C   UNL     1       1.977   5.410   3.040  0.00  0.00    +0.048 C 
ATOM     38  C   UNL     1       2.026   3.884   3.146  0.00  0.00    +0.225 C 
ENDBRANCH  36  38
ENDBRANCH  30  36
ENDBRANCH   1  35
TORSDOF 4
