REMARK  Name = ZINC12603018
REMARK  8 active torsions:
REMARK  status: ('A' for Active; 'I' for Inactive)
REMARK    1  A    between atoms: C_1  and  O_2
REMARK    2  A    between atoms: O_2  and  C_3
REMARK    3  A    between atoms: C_3  and  C_5
REMARK    4  A    between atoms: C_21  and  C_31
REMARK    5  A    between atoms: C_24  and  N_27
REMARK    6  A    between atoms: N_27  and  C_28
REMARK    7  A    between atoms: C_34  and  O_37
REMARK    8  A    between atoms: O_37  and  C_38
REMARK                            x       y       z     vdW  Elec       q    Type
REMARK                         _______ _______ _______ _____ _____    ______ ____
ROOT
ATOM      1  C   UNL     1      -1.184  -1.771   0.069  0.00  0.00    +0.172 C 
ATOM      2  C   UNL     1      -0.496  -2.133  -1.254  0.00  0.00    +0.068 C 
ATOM      3  C   UNL     1      -0.613  -3.623  -1.452  0.00  0.00    -0.016 A 
ATOM      4  C   UNL     1       0.114  -4.487  -2.356  0.00  0.00    +0.003 A 
ATOM      5  C   UNL     1       1.118  -4.245  -3.299  0.00  0.00    +0.010 A 
ATOM      6  C   UNL     1       1.590  -5.330  -3.996  0.00  0.00    +0.001 A 
ATOM      7  C   UNL     1       1.102  -6.609  -3.784  0.00  0.00    +0.002 A 
ATOM      8  C   UNL     1       0.110  -6.877  -2.857  0.00  0.00    +0.026 A 
ATOM      9  C   UNL     1      -0.388  -5.795  -2.134  0.00  0.00    +0.047 A 
ATOM     10  N   UNL     1      -1.345  -5.705  -1.165  0.00  0.00    -0.356 N 
ATOM     11  H   UNL     1      -1.857  -6.451  -0.815  0.00  0.00    +0.166 HD
ATOM     12  C   UNL     1      -1.474  -4.405  -0.760  0.00  0.00    +0.038 A 
ATOM     13  C   UNL     1      -2.409  -3.859   0.291  0.00  0.00    +0.103 C 
ATOM     14  N   UNL     1      -2.507  -2.402   0.122  0.00  0.00    -0.274 NA
ATOM     15  C   UNL     1      -3.352  -1.809   1.166  0.00  0.00    +0.087 C 
ATOM     16  C   UNL     1      -4.772  -2.369   1.045  0.00  0.00    +0.008 C 
ATOM     17  C   UNL     1      -4.734  -3.892   1.188  0.00  0.00    -0.068 C 
ATOM     18  C   UNL     1      -3.795  -4.486   0.133  0.00  0.00    +0.009 C 
ENDROOT
BRANCH  15  19
ATOM     19  C   UNL     1      -2.789  -2.149   2.522  0.00  0.00    -0.030 A 
ATOM     20  C   UNL     1      -1.484  -1.814   2.832  0.00  0.00    +0.009 A 
ATOM     21  C   UNL     1      -0.967  -2.125   4.074  0.00  0.00    +0.046 A 
ATOM     22  C   UNL     1      -1.757  -2.774   5.011  0.00  0.00    +0.130 A 
ATOM     23  C   UNL     1      -3.066  -3.110   4.698  0.00  0.00    +0.046 A 
ATOM     24  C   UNL     1      -3.581  -2.792   3.456  0.00  0.00    +0.009 A 
BRANCH  22  25
ATOM     25  O   UNL     1      -1.250  -3.082   6.234  0.00  0.00    -0.406 OA
BRANCH  25  26
ATOM     26  C   UNL     1      -2.121  -3.751   7.148  0.00  0.00    +0.575 C 
ATOM     27  F   UNL     1      -2.532  -4.968   6.595  0.00  0.00    -0.133 F 
ATOM     28  F   UNL     1      -1.443  -3.990   8.348  0.00  0.00    -0.133 F 
ATOM     29  F   UNL     1      -3.241  -2.949   7.396  0.00  0.00    -0.133 F 
ENDBRANCH  25  26
ENDBRANCH  22  25
ENDBRANCH  15  19
BRANCH  17  30
ATOM     30  N   UNL     1      -6.086  -4.436   1.003  0.00  0.00    +0.383 N 
ATOM     31  H   UNL     1      -6.456  -4.124   0.117  0.00  0.00    -0.085 HD
ATOM     32  H   UNL     1      -6.049  -5.444   1.016  0.00  0.00    -0.085 HD
BRANCH  30  33
ATOM     33  C   UNL     1      -6.956  -3.964   2.089  0.00  0.00    -0.072 C 
ATOM     34  C   UNL     1      -7.537  -5.017   3.036  0.00  0.00    -0.017 C 
ATOM     35  C   UNL     1      -8.441  -4.327   2.013  0.00  0.00    -0.017 C 
ENDBRANCH  30  33
ENDBRANCH  17  30
BRANCH   1  36
ATOM     36  C   UNL     1      -1.338  -0.274   0.162  0.00  0.00    +0.325 C 
ATOM     37  O   UNL     1      -0.519   0.381   0.763  0.00  0.00    -0.249 OA
BRANCH  36  39
ATOM     38  C   UNL     1      -2.466   1.752  -0.295  0.00  0.00    +0.280 C 
ATOM     39  O   UNL     1      -2.383   0.331  -0.423  0.00  0.00    -0.467 OA
ENDBRANCH  36  39
ENDBRANCH   1  36
TORSDOF 7
