REMARK  Name = ZINC13639348
REMARK  6 active torsions:
REMARK  status: ('A' for Active; 'I' for Inactive)
REMARK    1  A    between atoms: C_1  and  C_2
REMARK    2  A    between atoms: C_2  and  C_3
REMARK    3  A    between atoms: C_2  and  C_4
REMARK    4  A    between atoms: C_4  and  C_5
REMARK    5  A    between atoms: N_7  and  C_8
REMARK    6  A    between atoms: C_21  and  C_24
REMARK                            x       y       z     vdW  Elec       q    Type
REMARK                         _______ _______ _______ _____ _____    ______ ____
ROOT
ATOM      1  C   UNL     1      -3.397  -0.797  -0.507  0.00  0.00    +0.034 A 
ATOM      2  C   UNL     1      -3.298  -1.559  -1.664  0.00  0.00    +0.025 A 
ATOM      3  C   UNL     1      -2.079  -1.702  -2.277  0.00  0.00    +0.025 A 
ATOM      4  C   UNL     1      -0.965  -1.034  -1.785  0.00  0.00    +0.031 A 
ATOM      5  C   UNL     1      -1.057  -0.246  -0.652  0.00  0.00    -0.018 A 
ATOM      6  C   UNL     1      -2.281  -0.145  -0.006  0.00  0.00    +0.029 A 
ATOM      7  C   UNL     1       0.120   0.474  -0.073  0.00  0.00    +0.049 C 
ATOM      8  C   UNL     1       0.038   1.960  -0.330  0.00  0.00    -0.023 C 
ATOM      9  C   UNL     1       1.233   2.448  -0.555  0.00  0.00    -0.030 C 
ATOM     10  C   UNL     1       2.279   1.353  -0.473  0.00  0.00    +0.033 C 
ATOM     11  C   UNL     1       1.458   0.052  -0.711  0.00  0.00    +0.029 C 
ATOM     12  C   UNL     1       1.283  -0.129  -2.221  0.00  0.00    +0.105 C 
ATOM     13  N   UNL     1       0.257  -1.149  -2.462  0.00  0.00    -0.336 N 
ATOM     14  H   UNL     1       0.420  -1.884  -3.073  0.00  0.00    +0.147 HD
ENDROOT
BRANCH  12  15
ATOM     15  C   UNL     1       0.853   1.176  -2.840  0.00  0.00    -0.027 A 
ATOM     16  C   UNL     1      -0.492   1.474  -2.957  0.00  0.00    +0.006 A 
ATOM     17  C   UNL     1      -0.888   2.673  -3.520  0.00  0.00    +0.015 A 
ATOM     18  C   UNL     1       0.062   3.570  -3.975  0.00  0.00    +0.018 A 
ATOM     19  C   UNL     1       1.407   3.269  -3.862  0.00  0.00    +0.015 A 
ATOM     20  C   UNL     1       1.802   2.072  -3.294  0.00  0.00    +0.006 A 
ATOM     21 BR   UNL     1      -0.479   5.207  -4.752  0.00  0.00    -0.050 Br
ENDBRANCH  12  15
BRANCH   1  24
ATOM     22  C   UNL     1      -5.772  -0.645  -0.554  0.00  0.00    +0.217 C 
ATOM     23  O   UNL     1      -5.746  -0.786  -1.758  0.00  0.00    -0.275 OA
ATOM     24  N   UNL     1      -4.627  -0.687   0.155  0.00  0.00    -0.285 N 
ATOM     25  H   UNL     1      -4.654  -0.641   1.124  0.00  0.00    +0.155 HD
BRANCH  22  26
ATOM     26  C   UNL     1      -7.086  -0.424   0.150  0.00  0.00    +0.099 C 
BRANCH  26  28
ATOM     27  C   UNL     1      -9.564  -0.321  -0.152  0.00  0.00    +0.008 C 
ATOM     28  C   UNL     1      -8.221  -0.420  -0.877  0.00  0.00    -0.008 C 
ATOM     29  C   UNL     1      -8.056   0.779  -1.813  0.00  0.00    +0.008 C 
ENDBRANCH  26  28
ENDBRANCH  22  26
ENDBRANCH   1  24
TORSDOF 4
