REMARK  Name = ZINC56206641
REMARK  11 active torsions:
REMARK  status: ('A' for Active; 'I' for Inactive)
REMARK    1  A    between atoms: C_1  and  C_2
REMARK    2  A    between atoms: C_4  and  C_27
REMARK    3  A    between atoms: C_6  and  N_8
REMARK    4  A    between atoms: C_9  and  C_11
REMARK    5  A    between atoms: C_11  and  C_13
REMARK    6  A    between atoms: C_11  and  N_14
REMARK    7  A    between atoms: N_14  and  C_15
REMARK    8  A    between atoms: C_18  and  O_22
REMARK    9  A    between atoms: C_20  and  C_21
REMARK   10  A    between atoms: O_22  and  C_23
REMARK   11  A    between atoms: C_23  and  C_24
REMARK                            x       y       z     vdW  Elec       q    Type
REMARK                         _______ _______ _______ _____ _____    ______ ____
ROOT
ATOM      1  N   UNL     1       0.370  -1.959   5.973  0.00  0.00    -0.333 N 
ATOM      2  H   UNL     1      -0.007  -1.069   5.889  0.00  0.00    +0.147 HD
ENDROOT
BRANCH   1   3
ATOM      3  C   UNL     1       0.999  -2.343   7.162  0.00  0.00    +0.031 A 
ATOM      4  C   UNL     1       1.544  -3.615   7.280  0.00  0.00    +0.027 A 
ATOM      5  C   UNL     1       2.165  -3.994   8.454  0.00  0.00    +0.047 A 
ATOM      6  C   UNL     1       2.245  -3.104   9.515  0.00  0.00    +0.122 A 
ATOM      7  C   UNL     1       1.700  -1.834   9.398  0.00  0.00    +0.050 A 
ATOM      8  C   UNL     1       1.084  -1.451   8.223  0.00  0.00    -0.026 A 
ATOM      9  C   UNL     1       0.498  -0.069   8.094  0.00  0.00    +0.046 C 
BRANCH   6  10
ATOM     10  O   UNL     1       2.857  -3.477  10.671  0.00  0.00    -0.483 OA
BRANCH  10  11
ATOM     11  C   UNL     1       3.394  -4.800  10.722  0.00  0.00    +0.324 C 
BRANCH  11  12
ATOM     12  C   UNL     1       4.028  -5.033  12.069  0.00  0.00    +0.248 C 
ATOM     13  O   UNL     1       4.020  -4.153  12.903  0.00  0.00    -0.272 OA
ATOM     14  N   UNL     1       4.604  -6.220  12.347  0.00  0.00    -0.327 N 
ATOM     15  H   UNL     1       4.611  -6.924  11.679  0.00  0.00    +0.145 HD
ATOM     16  H   UNL     1       5.012  -6.370  13.214  0.00  0.00    +0.145 HD
ENDBRANCH  11  12
ENDBRANCH  10  11
ENDBRANCH   6  10
ENDBRANCH   1   3
BRANCH   1  17
ATOM     17  C   UNL     1       0.280  -2.900   4.854  0.00  0.00    +0.154 C 
ATOM     18  C   UNL     1      -0.945  -3.798   5.040  0.00  0.00    +0.038 C 
BRANCH  17  20
ATOM     19  N   UNL     1       0.052  -2.797   2.393  0.00  0.00    -0.284 N 
ATOM     20  C   UNL     1       0.150  -2.134   3.562  0.00  0.00    +0.237 C 
ATOM     21  O   UNL     1       0.134  -0.922   3.575  0.00  0.00    -0.273 OA
ATOM     22  H   UNL     1      -0.012  -3.765   2.388  0.00  0.00    +0.155 HD
BRANCH  19  28
ATOM     23  C   UNL     1      -1.512  -2.365  -2.248  0.00  0.00    +0.044 C 
ATOM     24  C   UNL     1      -0.707  -1.857  -1.080  0.00  0.00    -0.048 A 
ATOM     25  C   UNL     1       0.025  -0.690  -1.201  0.00  0.00    +0.006 A 
ATOM     26  C   UNL     1       0.765  -0.220  -0.131  0.00  0.00    -0.048 A 
ATOM     27  C   UNL     1       0.776  -0.917   1.061  0.00  0.00    +0.026 A 
ATOM     28  C   UNL     1       0.043  -2.089   1.186  0.00  0.00    +0.034 A 
ATOM     29  C   UNL     1      -0.704  -2.555   0.112  0.00  0.00    +0.026 A 
ATOM     30  C   UNL     1       1.561   1.052  -0.268  0.00  0.00    +0.044 C 
ENDBRANCH  19  28
ENDBRANCH  17  20
ENDBRANCH   1  17
TORSDOF 7
