REMARK  Name = ZINC21220758
REMARK  5 active torsions:
REMARK  status: ('A' for Active; 'I' for Inactive)
REMARK    1  A    between atoms: C_1  and  O_2
REMARK    2  A    between atoms: O_2  and  C_3
REMARK    3  A    between atoms: C_6  and  C_10
REMARK    4  A    between atoms: C_8  and  O_9
REMARK    5  A    between atoms: C_15  and  C_20
REMARK                            x       y       z     vdW  Elec       q    Type
REMARK                         _______ _______ _______ _____ _____    ______ ____
ROOT
ATOM      1  C   UNL     1      -1.118   7.126   1.854  0.00  0.00    +0.136 C 
ATOM      2  C   UNL     1      -2.259   7.624   0.999  0.00  0.00    +0.036 C 
ATOM      3  C   UNL     1      -2.145   8.366  -0.114  0.00  0.00    +0.017 C 
ATOM      4  C   UNL     1      -3.382   8.766  -0.901  0.00  0.00    +0.059 C 
ATOM      5  C   UNL     1      -4.560   8.969   0.050  0.00  0.00    +0.032 C 
ATOM      6  C   UNL     1      -4.803   7.644   0.782  0.00  0.00    +0.088 C 
ATOM      7  C   UNL     1      -3.535   7.240   1.473  0.00  0.00    +0.163 C 
ATOM      8  O   UNL     1      -3.607   6.557   2.476  0.00  0.00    -0.292 OA
ATOM      9  N   UNL     1      -0.973   8.806  -0.639  0.00  0.00    -0.316 N 
ATOM     10  C   UNL     1       0.158   8.018  -0.823  0.00  0.00    +0.052 A 
ATOM     11  C   UNL     1       0.697   7.782  -2.076  0.00  0.00    +0.025 A 
ATOM     12  C   UNL     1       1.885   7.079  -2.182  0.00  0.00    +0.002 A 
ATOM     13  C   UNL     1       2.525   6.616  -1.047  0.00  0.00    +0.002 A 
ATOM     14  C   UNL     1       1.976   6.833   0.205  0.00  0.00    +0.025 A 
ATOM     15  C   UNL     1       0.778   7.521   0.313  0.00  0.00    +0.049 A 
ATOM     16  N   UNL     1       0.164   7.725   1.548  0.00  0.00    -0.331 N 
ATOM     17  H   UNL     1      -0.870   9.855  -0.954  0.00  0.00    +0.152 HD
ATOM     18  H   UNL     1       0.671   8.353   2.295  0.00  0.00    +0.147 HD
ENDROOT
BRANCH   5  19
ATOM     19  C   UNL     1      -5.789   9.354  -0.733  0.00  0.00    -0.043 A 
ATOM     20  C   UNL     1      -6.285   8.502  -1.702  0.00  0.00    +0.007 A 
ATOM     21  C   UNL     1      -7.415   8.851  -2.417  0.00  0.00    +0.038 A 
ATOM     22  C   UNL     1      -8.043  10.060  -2.171  0.00  0.00    +0.123 A 
ATOM     23  C   UNL     1      -7.542  10.916  -1.205  0.00  0.00    +0.038 A 
ATOM     24  C   UNL     1      -6.415  10.562  -0.487  0.00  0.00    +0.007 A 
ATOM     25  F   UNL     1      -9.144  10.405  -2.874  0.00  0.00    -0.205 F 
ENDBRANCH   5  19
BRANCH   1  29
ATOM     26  C   UNL     1      -0.794   2.891   1.357  0.00  0.00    +0.161 A 
ATOM     27  C   UNL     1      -1.155   3.422   2.585  0.00  0.00    +0.050 A 
ATOM     28  C   UNL     1      -1.258   4.791   2.742  0.00  0.00    +0.009 A 
ATOM     29  C   UNL     1      -1.003   5.634   1.677  0.00  0.00    -0.019 A 
ATOM     30  C   UNL     1      -0.642   5.111   0.449  0.00  0.00    +0.055 A 
ATOM     31  C   UNL     1      -0.531   3.740   0.286  0.00  0.00    +0.159 A 
BRANCH  26  33
ATOM     32  C   UNL     1      -0.970   0.735   2.345  0.00  0.00    +0.277 C 
ATOM     33  O   UNL     1      -0.691   1.544   1.200  0.00  0.00    -0.491 OA
ENDBRANCH  26  33
BRANCH  31  34
ATOM     34  O   UNL     1      -0.171   3.224  -0.920  0.00  0.00    -0.503 OA
ATOM     35  H   UNL     1       0.037   3.896  -1.766  0.00  0.00    +0.292 HD
ENDBRANCH  31  34
ENDBRANCH   1  29
TORSDOF 4
