REMARK  Name = ZINC01902070
REMARK  13 active torsions:
REMARK  status: ('A' for Active; 'I' for Inactive)
REMARK    1  A    between atoms: C_1  and  C_2
REMARK    2  A    between atoms: C_5  and  N_8
REMARK    3  A    between atoms: C_9  and  C_28
REMARK    4  A    between atoms: C_12  and  S_13
REMARK    5  A    between atoms: S_13  and  C_14
REMARK    6  A    between atoms: C_14  and  C_15
REMARK    7  A    between atoms: N_17  and  N_18
REMARK    8  A    between atoms: N_18  and  C_19
REMARK    9  A    between atoms: C_19  and  C_21
REMARK   10  A    between atoms: C_31  and  C_34
REMARK   11  A    between atoms: C_34  and  C_35
REMARK   12  A    between atoms: C_34  and  C_36
REMARK   13  A    between atoms: C_34  and  C_37
REMARK                            x       y       z     vdW  Elec       q    Type
REMARK                         _______ _______ _______ _____ _____    ______ ____
ROOT
ATOM      1  N   UNL     1       0.036  -4.173  -0.059  0.00  0.00    -0.270 N 
ATOM      2  C   UNL     1      -0.881  -5.021   0.523  0.00  0.00    +0.169 A 
ATOM      3  N   UNL     1      -0.452  -6.246   0.326  0.00  0.00    -0.128 NA
ATOM      4  N   UNL     1       0.653  -6.225  -0.329  0.00  0.00    -0.122 NA
ATOM      5  C   UNL     1       0.997  -4.984  -0.597  0.00  0.00    +0.197 A 
ENDROOT
BRANCH   1  10
ATOM      6  C   UNL     1      -0.150   1.497  -0.214  0.00  0.00    +0.044 C 
ATOM      7  C   UNL     1      -0.100  -0.008  -0.173  0.00  0.00    -0.050 A 
ATOM      8  C   UNL     1      -0.263  -0.736  -1.337  0.00  0.00    +0.005 A 
ATOM      9  C   UNL     1      -0.218  -2.116  -1.303  0.00  0.00    +0.026 A 
ATOM     10  C   UNL     1      -0.009  -2.772  -0.097  0.00  0.00    +0.051 A 
ATOM     11  C   UNL     1       0.153  -2.039   1.070  0.00  0.00    +0.026 A 
ATOM     12  C   UNL     1       0.113  -0.659   1.029  0.00  0.00    +0.005 A 
ENDBRANCH   1  10
BRANCH   2  13
ATOM     13  C   UNL     1      -2.115  -4.626   1.235  0.00  0.00    +0.020 A 
ATOM     14  C   UNL     1      -2.648  -3.348   1.058  0.00  0.00    +0.012 A 
ATOM     15  C   UNL     1      -3.799  -2.985   1.726  0.00  0.00    +0.005 A 
ATOM     16  C   UNL     1      -4.426  -3.885   2.570  0.00  0.00    -0.042 A 
ATOM     17  C   UNL     1      -3.903  -5.154   2.750  0.00  0.00    +0.005 A 
ATOM     18  C   UNL     1      -2.755  -5.531   2.083  0.00  0.00    +0.012 A 
BRANCH  16  19
ATOM     19  C   UNL     1      -5.683  -3.482   3.296  0.00  0.00    -0.013 C 
ATOM     20  C   UNL     1      -6.764  -3.113   2.279  0.00  0.00    +0.015 C 
ATOM     21  C   UNL     1      -6.170  -4.649   4.158  0.00  0.00    +0.015 C 
ATOM     22  C   UNL     1      -5.390  -2.276   4.191  0.00  0.00    +0.015 C 
ENDBRANCH  16  19
ENDBRANCH   2  13
BRANCH   5  23
ATOM     23  S   UNL     1       2.431  -4.464  -1.479  0.00  0.00    -0.076 S 
BRANCH  23  24
ATOM     24  C   UNL     1       3.269  -6.015  -1.908  0.00  0.00    +0.174 C 
BRANCH  24  25
ATOM     25  C   UNL     1       4.529  -5.709  -2.676  0.00  0.00    +0.239 C 
ATOM     26  O   UNL     1       4.832  -4.558  -2.911  0.00  0.00    -0.273 OA
ATOM     27  N   UNL     1       5.319  -6.714  -3.103  0.00  0.00    -0.236 N 
ATOM     28  H   UNL     1       5.076  -7.635  -2.915  0.00  0.00    +0.173 HD
BRANCH  27  29
ATOM     29  N   UNL     1       6.490  -6.430  -3.817  0.00  0.00    -0.264 N 
ATOM     30  H   UNL     1       6.732  -5.510  -4.005  0.00  0.00    +0.170 HD
BRANCH  29  31
ATOM     31  C   UNL     1       7.308  -7.471  -4.258  0.00  0.00    +0.044 C 
ATOM     32  C   UNL     1       6.975  -8.736  -4.000  0.00  0.00    +0.035 C 
BRANCH  31  33
ATOM     33  C   UNL     1       8.546  -7.170  -5.013  0.00  0.00    -0.003 A 
ATOM     34  C   UNL     1       8.900  -5.848  -5.280  0.00  0.00    +0.011 A 
ATOM     35  C   UNL     1      10.055  -5.574  -5.983  0.00  0.00    +0.020 A 
ATOM     36  C   UNL     1      10.862  -6.608  -6.424  0.00  0.00    +0.041 A 
ATOM     37  C   UNL     1      10.515  -7.923  -6.163  0.00  0.00    +0.020 A 
ATOM     38  C   UNL     1       9.366  -8.209  -5.455  0.00  0.00    +0.011 A 
ATOM     39 CL   UNL     1      12.313  -6.256  -7.309  0.00  0.00    -0.084 Cl
ENDBRANCH  31  33
ENDBRANCH  29  31
ENDBRANCH  27  29
ENDBRANCH  24  25
ENDBRANCH  23  24
ENDBRANCH   5  23
TORSDOF 9
