REMARK  Name = ZINC34747314
REMARK  8 active torsions:
REMARK  status: ('A' for Active; 'I' for Inactive)
REMARK    1  A    between atoms: C_1  and  C_2
REMARK    2  A    between atoms: C_2  and  N_3
REMARK    3  A    between atoms: N_3  and  C_4
REMARK    4  A    between atoms: C_4  and  C_5
REMARK    5  A    between atoms: C_6  and  C_8
REMARK    6  A    between atoms: C_8  and  N_9
REMARK    7  A    between atoms: N_22  and  C_25
REMARK    8  A    between atoms: C_25  and  C_26
REMARK                            x       y       z     vdW  Elec       q    Type
REMARK                         _______ _______ _______ _____ _____    ______ ____
ROOT
ATOM      1  N   UNL     1      -3.948  -1.472   2.550  0.00  0.00    -0.271 N 
ATOM      2  C   UNL     1      -3.833  -2.680   3.131  0.00  0.00    +0.264 A 
ATOM      3  O   UNL     1      -3.446  -3.641   2.488  0.00  0.00    -0.267 OA
ATOM      4  C   UNL     1      -4.170  -2.822   4.514  0.00  0.00    +0.076 A 
ATOM      5  C   UNL     1      -4.122  -4.029   5.341  0.00  0.00    -0.023 A 
ATOM      6  C   UNL     1      -4.495  -3.902   6.631  0.00  0.00    -0.004 A 
ATOM      7  S   UNL     1      -4.925  -2.193   6.820  0.00  0.00    -0.073 S 
ATOM      8  C   UNL     1      -4.604  -1.652   5.160  0.00  0.00    +0.117 A 
ATOM      9  N   UNL     1      -4.695  -0.488   4.528  0.00  0.00    -0.208 NA
ATOM     10  C   UNL     1      -4.373  -0.385   3.255  0.00  0.00    +0.202 A 
ATOM     11  N   UNL     1      -4.472   0.832   2.628  0.00  0.00    -0.304 N 
ATOM     12  C   UNL     1      -3.333   1.763   2.600  0.00  0.00    +0.089 C 
ATOM     13  C   UNL     1      -3.819   3.140   3.064  0.00  0.00    -0.059 C 
ATOM     14  N   UNL     1      -4.963   3.557   2.242  0.00  0.00    +0.384 N 
ATOM     15  C   UNL     1      -6.093   2.645   2.459  0.00  0.00    -0.059 C 
ATOM     16  C   UNL     1      -5.718   1.241   1.961  0.00  0.00    +0.089 C 
ATOM     17  C   UNL     1      -4.535  -4.977   7.674  0.00  0.00    +0.043 C 
ATOM     18  C   UNL     1      -4.444  -6.339   6.970  0.00  0.00    +0.005 C 
ATOM     19  C   UNL     1      -3.297  -6.291   5.956  0.00  0.00    +0.005 C 
ATOM     20  C   UNL     1      -3.675  -5.379   4.788  0.00  0.00    +0.037 C 
ATOM     21  H   UNL     1      -4.700   3.538   1.268  0.00  0.00    -0.081 HD
ENDROOT
BRANCH   1  22
ATOM     22  C   UNL     1      -3.604  -1.320   1.134  0.00  0.00    +0.224 C 
BRANCH  22  24
ATOM     23  N   UNL     1      -1.573  -0.922  -0.221  0.00  0.00    -0.301 N 
ATOM     24  C   UNL     1      -2.121  -1.090   0.999  0.00  0.00    +0.236 C 
ATOM     25  O   UNL     1      -1.420  -1.057   1.988  0.00  0.00    -0.274 OA
BRANCH  23  27
ATOM     26  C   UNL     1       0.160   0.802  -0.296  0.00  0.00    +0.024 C 
ATOM     27  C   UNL     1      -0.131  -0.699  -0.352  0.00  0.00    +0.104 C 
ENDBRANCH  23  27
BRANCH  23  28
ATOM     28  C   UNL     1      -2.420  -0.962  -1.416  0.00  0.00    +0.104 C 
ATOM     29  C   UNL     1      -2.503  -2.399  -1.933  0.00  0.00    +0.024 C 
ENDBRANCH  23  28
ENDBRANCH  22  24
ENDBRANCH   1  22
BRANCH  14  30
ATOM     30  C   UNL     1      -5.359   4.921   2.613  0.00  0.00    -0.043 C 
BRANCH  30  31
ATOM     31  C   UNL     1      -6.451   5.396   1.690  0.00  0.00    -0.064 A 
ATOM     32  C   UNL     1      -6.127   6.051   0.516  0.00  0.00    +0.003 A 
ATOM     33  C   UNL     1      -7.128   6.487  -0.331  0.00  0.00    +0.020 A 
ATOM     34  C   UNL     1      -8.455   6.267  -0.005  0.00  0.00    +0.041 A 
ATOM     35  C   UNL     1      -8.778   5.612   1.170  0.00  0.00    +0.020 A 
ATOM     36  C   UNL     1      -7.776   5.171   2.014  0.00  0.00    +0.003 A 
ATOM     37 CL   UNL     1      -9.713   6.815  -1.069  0.00  0.00    -0.084 Cl
ENDBRANCH  30  31
ENDBRANCH  14  30
TORSDOF 6
