REMARK  Name = ZINC08856489
REMARK  7 active torsions:
REMARK  status: ('A' for Active; 'I' for Inactive)
REMARK    1  A    between atoms: C_1  and  O_2
REMARK    2  A    between atoms: O_2  and  C_3
REMARK    3  A    between atoms: C_3  and  C_5
REMARK    4  A    between atoms: C_8  and  N_11
REMARK    5  A    between atoms: C_16  and  C_30
REMARK    6  A    between atoms: N_18  and  C_24
REMARK    7  A    between atoms: C_35  and  O_36
REMARK                            x       y       z     vdW  Elec       q    Type
REMARK                         _______ _______ _______ _____ _____    ______ ____
ROOT
ATOM      1  N   UNL     1       0.823  -6.234  -1.335  0.00  0.00    -0.208 N 
ATOM      2  C   UNL     1       1.422  -6.920  -2.361  0.00  0.00    +0.235 C 
ATOM      3  O   UNL     1       2.160  -6.476  -3.214  0.00  0.00    -0.274 OA
ATOM      4  C   UNL     1       0.982  -8.284  -2.202  0.00  0.00    +0.146 C 
ATOM      5  C   UNL     1       1.382  -9.649  -2.580  0.00  0.00    +0.160 C 
ATOM      6  N   UNL     1       0.707 -10.482  -1.533  0.00  0.00    -0.244 N 
ATOM      7  O   UNL     1       0.058  -9.578  -0.610  0.00  0.00    -0.257 OA
ATOM      8  C   UNL     1       0.904  -8.415  -0.628  0.00  0.00    +0.249 C 
ATOM      9  C   UNL     1       0.291  -7.061  -0.388  0.00  0.00    +0.259 C 
ATOM     10  O   UNL     1      -0.512  -6.767   0.471  0.00  0.00    -0.272 OA
ENDROOT
BRANCH   1  14
ATOM     11  C   UNL     1       0.659  -2.074  -1.122  0.00  0.00    +0.059 A 
ATOM     12  C   UNL     1       0.088  -2.850  -0.109  0.00  0.00    +0.017 A 
ATOM     13  C   UNL     1       0.144  -4.224  -0.183  0.00  0.00    +0.025 A 
ATOM     14  C   UNL     1       0.767  -4.839  -1.264  0.00  0.00    +0.044 A 
ATOM     15  C   UNL     1       1.336  -4.070  -2.273  0.00  0.00    +0.025 A 
ATOM     16  C   UNL     1       1.279  -2.696  -2.209  0.00  0.00    +0.017 A 
BRANCH  11  17
ATOM     17  C   UNL     1       0.601  -0.602  -1.047  0.00  0.00    +0.339 C 
ATOM     18  O   UNL     1       1.093   0.071  -1.930  0.00  0.00    -0.245 OA
BRANCH  17  20
ATOM     19  C   UNL     1      -0.017   1.425   0.010  0.00  0.00    +0.280 C 
ATOM     20  O   UNL     1       0.002  -0.004   0.002  0.00  0.00    -0.464 OA
ENDBRANCH  17  20
ENDBRANCH  11  17
ENDBRANCH   1  14
BRANCH   6  21
ATOM     21  C   UNL     1       0.705 -11.877  -1.462  0.00  0.00    +0.065 A 
ATOM     22  C   UNL     1       1.379 -12.623  -2.420  0.00  0.00    +0.028 A 
ATOM     23  C   UNL     1       1.376 -14.002  -2.347  0.00  0.00    +0.002 A 
ATOM     24  C   UNL     1       0.702 -14.640  -1.321  0.00  0.00    +0.000 A 
ATOM     25  C   UNL     1       0.030 -13.900  -0.366  0.00  0.00    +0.002 A 
ATOM     26  C   UNL     1       0.034 -12.520  -0.430  0.00  0.00    +0.028 A 
ENDBRANCH   6  21
BRANCH   5  27
ATOM     27  C   UNL     1       0.874  -9.995  -3.956  0.00  0.00    +0.020 A 
ATOM     28  C   UNL     1      -0.322 -10.671  -4.102  0.00  0.00    +0.009 A 
ATOM     29  C   UNL     1      -0.789 -10.989  -5.364  0.00  0.00    +0.001 A 
ATOM     30  C   UNL     1      -0.060 -10.632  -6.483  0.00  0.00    +0.004 A 
ATOM     31  C   UNL     1       1.137  -9.956  -6.343  0.00  0.00    +0.046 A 
ATOM     32  C   UNL     1       1.604  -9.631  -5.078  0.00  0.00    +0.122 A 
BRANCH  32  33
ATOM     33  O   UNL     1       2.779  -8.961  -4.938  0.00  0.00    -0.506 OA
ATOM     34  H   UNL     1       3.553  -9.536  -4.864  0.00  0.00    +0.292 HD
ENDBRANCH  32  33
ENDBRANCH   5  27
TORSDOF 6
