REMARK  Name = ZINC19893332
REMARK  9 active torsions:
REMARK  status: ('A' for Active; 'I' for Inactive)
REMARK    1  A    between atoms: C_1  and  C_2
REMARK    2  A    between atoms: C_2  and  C_3
REMARK    3  A    between atoms: C_3  and  C_4
REMARK    4  A    between atoms: C_3  and  C_5
REMARK    5  A    between atoms: C_3  and  C_6
REMARK    6  A    between atoms: N_19  and  N_20
REMARK    7  A    between atoms: C_21  and  C_22
REMARK    8  A    between atoms: C_25  and  O_29
REMARK    9  A    between atoms: C_27  and  O_28
REMARK                            x       y       z     vdW  Elec       q    Type
REMARK                         _______ _______ _______ _____ _____    ______ ____
ROOT
ATOM      1  C   UNL     1       2.380   1.281   0.926  0.00  0.00    -0.001 C 
ATOM      2  C   UNL     1       2.184   0.222   2.016  0.00  0.00    +0.009 C 
ATOM      3  C   UNL     1       1.042  -0.713   1.592  0.00  0.00    +0.043 C 
ATOM      4  C   UNL     1      -0.113   0.125   1.138  0.00  0.00    -0.004 A 
ATOM      5  C   UNL     1      -0.100   1.441   0.828  0.00  0.00    -0.024 A 
ATOM      6  C   UNL     1      -1.364   2.027   0.416  0.00  0.00    +0.052 A 
ATOM      7  C   UNL     1      -1.603   3.380   0.036  0.00  0.00    +0.150 A 
ATOM      8  N   UNL     1      -2.856   3.674  -0.309  0.00  0.00    -0.219 NA
ATOM      9  C   UNL     1      -3.841   2.799  -0.317  0.00  0.00    +0.224 A 
ATOM     10  N   UNL     1      -3.686   1.524   0.020  0.00  0.00    -0.228 NA
ATOM     11  C   UNL     1      -2.474   1.147   0.376  0.00  0.00    +0.114 A 
ATOM     12  S   UNL     1      -1.793  -0.396   0.892  0.00  0.00    -0.073 S 
ATOM     13  N   UNL     1      -0.598   4.330   0.030  0.00  0.00    -0.220 N 
ATOM     14  C   UNL     1       1.194   2.246   0.921  0.00  0.00    +0.040 C 
ATOM     15  H   UNL     1       0.343   4.138   0.566  0.00  0.00    +0.176 HD
ENDROOT
BRANCH   1  16
ATOM     16  C   UNL     1       3.667   2.060   1.200  0.00  0.00    -0.032 C 
ATOM     17  C   UNL     1       3.864   3.118   0.112  0.00  0.00    +0.011 C 
ATOM     18  C   UNL     1       3.569   2.745   2.565  0.00  0.00    +0.011 C 
BRANCH  16  20
ATOM     19  C   UNL     1       6.144   1.878   1.470  0.00  0.00    +0.004 C 
ATOM     20  C   UNL     1       4.857   1.098   1.197  0.00  0.00    +0.003 C 
ENDBRANCH  16  20
ENDBRANCH   1  16
BRANCH  13  21
ATOM     21  N   UNL     1      -0.779   5.537  -0.657  0.00  0.00    -0.189 NA
ATOM     22  C   UNL     1       0.165   6.429  -0.662  0.00  0.00    +0.141 C 
BRANCH  22  23
ATOM     23  C   UNL     1      -0.025   7.698  -1.386  0.00  0.00    +0.036 A 
ATOM     24  C   UNL     1       0.988   8.660  -1.393  0.00  0.00    +0.016 A 
ATOM     25  C   UNL     1       0.807   9.846  -2.071  0.00  0.00    +0.046 A 
ATOM     26  C   UNL     1      -0.382  10.089  -2.749  0.00  0.00    +0.120 A 
ATOM     27  C   UNL     1      -1.395   9.140  -2.747  0.00  0.00    +0.091 A 
ATOM     28  C   UNL     1      -1.222   7.944  -2.074  0.00  0.00    +0.129 A 
BRANCH  28  29
ATOM     29  O   UNL     1      -2.210   7.012  -2.077  0.00  0.00    -0.506 OA
ATOM     30  H   UNL     1      -3.148   7.206  -2.618  0.00  0.00    +0.292 HD
ENDBRANCH  28  29
BRANCH  26  31
ATOM     31  O   UNL     1      -0.553  11.260  -3.416  0.00  0.00    -0.507 OA
ATOM     32  H   UNL     1      -1.494  11.455  -3.952  0.00  0.00    +0.292 HD
ENDBRANCH  26  31
ENDBRANCH  22  23
ENDBRANCH  13  21
TORSDOF 6
