REMARK  Name = ZINC39710881
REMARK  12 active torsions:
REMARK  status: ('A' for Active; 'I' for Inactive)
REMARK    1  A    between atoms: C_1  and  C_2
REMARK    2  A    between atoms: C_8  and  C_14
REMARK    3  A    between atoms: C_14  and  C_16
REMARK    4  A    between atoms: C_14  and  N_25
REMARK    5  A    between atoms: N_20  and  C_21
REMARK    6  A    between atoms: C_21  and  C_22
REMARK    7  A    between atoms: C_22  and  O_23
REMARK    8  A    between atoms: O_23  and  C_24
REMARK    9  A    between atoms: N_25  and  C_26
REMARK   10  A    between atoms: N_25  and  C_33
REMARK   11  A    between atoms: C_26  and  C_27
REMARK   12  A    between atoms: C_33  and  C_34
REMARK                            x       y       z     vdW  Elec       q    Type
REMARK                         _______ _______ _______ _____ _____    ______ ____
ROOT
ATOM      1  C   UNL     1      -0.545  -2.978   3.797  0.00  0.00    +0.019 C 
ENDROOT
BRANCH   1   9
ATOM      2  C   UNL     1       1.963   0.105  -0.881  0.00  0.00    +0.045 C 
ATOM      3  C   UNL     1       1.908  -1.369  -0.573  0.00  0.00    -0.029 A 
ATOM      4  C   UNL     1       2.196  -2.273  -1.547  0.00  0.00    +0.005 A 
ATOM      5  C   UNL     1       2.164  -3.650  -1.328  0.00  0.00    +0.001 A 
ATOM      6  C   UNL     1       1.840  -4.167  -0.115  0.00  0.00    +0.009 A 
ATOM      7  C   UNL     1       1.520  -3.249   0.980  0.00  0.00    -0.007 A 
ATOM      8  C   UNL     1       1.189  -3.723   2.215  0.00  0.00    -0.006 C 
ATOM      9  C   UNL     1       0.872  -2.700   3.288  0.00  0.00    +0.092 C 
ATOM     10  C   UNL     1       0.947  -1.240   2.902  0.00  0.00    +0.223 C 
ATOM     11  O   UNL     1       0.703  -0.378   3.725  0.00  0.00    -0.275 OA
ATOM     12  N   UNL     1       1.281  -0.905   1.667  0.00  0.00    -0.284 N 
ATOM     13  C   UNL     1       1.566  -1.800   0.722  0.00  0.00    +0.043 A 
ATOM     14  H   UNL     1       1.324   0.037   1.440  0.00  0.00    +0.155 HD
ENDBRANCH   1   9
BRANCH   1  15
ATOM     15  C   UNL     1      -1.534  -2.729   2.688  0.00  0.00    +0.139 A 
ATOM     16  N   UNL     1      -2.034  -1.571   2.330  0.00  0.00    -0.115 NA
ATOM     17  N   UNL     1      -2.840  -1.773   1.345  0.00  0.00    -0.023 NA
ATOM     18  N   UNL     1      -2.868  -3.030   1.067  0.00  0.00    -0.044 NA
ATOM     19  N   UNL     1      -2.072  -3.652   1.869  0.00  0.00    -0.229 N 
BRANCH  19  20
ATOM     20  C   UNL     1      -1.806  -5.092   1.887  0.00  0.00    +0.175 C 
BRANCH  20  21
ATOM     21  C   UNL     1      -2.701  -5.763   2.931  0.00  0.00    +0.183 C 
BRANCH  21  22
ATOM     22  O   UNL     1      -2.421  -7.164   2.969  0.00  0.00    -0.381 OA
ATOM     23  C   UNL     1      -3.208  -7.888   3.917  0.00  0.00    +0.194 C 
ENDBRANCH  21  22
ENDBRANCH  20  21
ENDBRANCH  19  20
ENDBRANCH   1  15
BRANCH   1  24
ATOM     24  N   UNL     1      -0.842  -2.088   4.927  0.00  0.00    +0.392 N 
ATOM     25  H   UNL     1      -0.886  -1.134   4.602  0.00  0.00    -0.080 HD
BRANCH  24  26
ATOM     26  C   UNL     1      -2.134  -2.463   5.519  0.00  0.00    -0.042 C 
BRANCH  26  27
ATOM     27  C   UNL     1      -3.252  -1.966   4.640  0.00  0.00    -0.064 A 
ATOM     28  C   UNL     1      -3.570  -0.621   4.621  0.00  0.00    +0.002 A 
ATOM     29  C   UNL     1      -4.596  -0.165   3.815  0.00  0.00    +0.000 A 
ATOM     30  C   UNL     1      -5.304  -1.054   3.027  0.00  0.00    +0.000 A 
ATOM     31  C   UNL     1      -4.986  -2.398   3.046  0.00  0.00    +0.000 A 
ATOM     32  C   UNL     1      -3.957  -2.854   3.849  0.00  0.00    +0.002 A 
ENDBRANCH  26  27
ENDBRANCH  24  26
BRANCH  24  33
ATOM     33  C   UNL     1       0.215  -2.212   5.940  0.00  0.00    -0.042 C 
BRANCH  33  34
ATOM     34  C   UNL     1      -0.035  -1.226   7.051  0.00  0.00    -0.064 A 
ATOM     35  C   UNL     1       0.388   0.084   6.921  0.00  0.00    +0.003 A 
ATOM     36  C   UNL     1       0.159   0.989   7.940  0.00  0.00    +0.020 A 
ATOM     37  C   UNL     1      -0.495   0.585   9.090  0.00  0.00    +0.041 A 
ATOM     38  C   UNL     1      -0.918  -0.726   9.220  0.00  0.00    +0.020 A 
ATOM     39  C   UNL     1      -0.694  -1.629   8.198  0.00  0.00    +0.003 A 
ATOM     40 CL   UNL     1      -0.783   1.721  10.370  0.00  0.00    -0.084 Cl
ENDBRANCH  33  34
ENDBRANCH  24  33
ENDBRANCH   1  24
TORSDOF 10
