REMARK  Name = ZINC67284163
REMARK  5 active torsions:
REMARK  status: ('A' for Active; 'I' for Inactive)
REMARK    1  A    between atoms: C_1  and  C_2
REMARK    2  A    between atoms: C_2  and  C_3
REMARK    3  A    between atoms: C_6  and  N_9
REMARK    4  A    between atoms: C_11  and  C_16
REMARK    5  A    between atoms: C_21  and  C_24
REMARK                            x       y       z     vdW  Elec       q    Type
REMARK                         _______ _______ _______ _____ _____    ______ ____
ROOT
ATOM      1  N   UNL     1       2.737  -1.399  -4.781  0.00  0.00    -0.296 N 
ATOM      2  C   UNL     1       4.079  -1.776  -4.722  0.00  0.00    +0.177 A 
ATOM      3  C   UNL     1       4.853  -2.314  -5.773  0.00  0.00    +0.189 A 
ATOM      4  N   UNL     1       6.070  -2.533  -5.308  0.00  0.00    -0.148 NA
ATOM      5  N   UNL     1       6.128  -2.183  -4.071  0.00  0.00    -0.194 N 
ATOM      6  N   UNL     1       4.876  -1.694  -3.676  0.00  0.00    -0.139 NA
ATOM      7  H   UNL     1       6.913  -2.246  -3.504  0.00  0.00    +0.213 HD
ATOM      8  H   UNL     1       2.213  -1.594  -5.574  0.00  0.00    +0.154 HD
ENDROOT
BRANCH   3   9
ATOM      9  C   UNL     1       4.386  -2.584  -7.146  0.00  0.00    +0.270 C 
ATOM     10  O   UNL     1       3.212  -2.438  -7.428  0.00  0.00    -0.268 OA
ATOM     11  N   UNL     1       5.260  -2.992  -8.087  0.00  0.00    -0.292 N 
ATOM     12  C   UNL     1       4.807  -3.392  -9.431  0.00  0.00    +0.113 C 
ATOM     13  C   UNL     1       5.434  -2.432 -10.445  0.00  0.00    +0.054 C 
ATOM     14  C   UNL     1       6.890  -2.233 -10.147  0.00  0.00    -0.041 C 
ATOM     15  C   UNL     1       7.452  -2.497  -8.993  0.00  0.00    -0.004 C 
ATOM     16  C   UNL     1       6.704  -3.049  -7.816  0.00  0.00    +0.135 C 
BRANCH  14  17
ATOM     17  C   UNL     1       7.749  -1.704 -11.228  0.00  0.00    -0.022 A 
ATOM     18  C   UNL     1       7.549  -0.411 -11.712  0.00  0.00    +0.008 A 
ATOM     19  C   UNL     1       8.354   0.077 -12.721  0.00  0.00    +0.001 A 
ATOM     20  C   UNL     1       9.359  -0.713 -13.251  0.00  0.00    +0.000 A 
ATOM     21  C   UNL     1       9.563  -1.996 -12.775  0.00  0.00    +0.001 A 
ATOM     22  C   UNL     1       8.767  -2.494 -11.763  0.00  0.00    +0.008 A 
ENDBRANCH  14  17
ENDBRANCH   3   9
BRANCH   1  26
ATOM     23  C   UNL     1       0.981   0.561  -1.554  0.00  0.00    -0.048 A 
ATOM     24  C   UNL     1       2.327   0.738  -1.819  0.00  0.00    +0.005 A 
ATOM     25  C   UNL     1       2.913   0.089  -2.888  0.00  0.00    +0.023 A 
ATOM     26  C   UNL     1       2.148  -0.742  -3.698  0.00  0.00    +0.032 A 
ATOM     27  C   UNL     1       0.797  -0.917  -3.429  0.00  0.00    +0.023 A 
ATOM     28  C   UNL     1       0.218  -0.269  -2.355  0.00  0.00    +0.005 A 
BRANCH  23  30
ATOM     29  C   UNL     1       0.451   0.393   0.863  0.00  0.00    +0.009 C 
ATOM     30  C   UNL     1       0.345   1.271  -0.386  0.00  0.00    +0.032 C 
ENDBRANCH  23  30
ENDBRANCH   1  26
TORSDOF 4
