REMARK  Name = ZINC21256879
REMARK  8 active torsions:
REMARK  status: ('A' for Active; 'I' for Inactive)
REMARK    1  A    between atoms: C_1  and  O_2
REMARK    2  A    between atoms: O_2  and  C_3
REMARK    3  A    between atoms: C_5  and  C_13
REMARK    4  A    between atoms: C_7  and  O_11
REMARK    5  A    between atoms: C_8  and  O_9
REMARK    6  A    between atoms: O_9  and  C_10
REMARK    7  A    between atoms: O_11  and  C_12
REMARK    8  A    between atoms: C_18  and  C_28
REMARK                            x       y       z     vdW  Elec       q    Type
REMARK                         _______ _______ _______ _____ _____    ______ ____
ROOT
ATOM      1  C   UNL     1       6.070  -1.645  -2.904  0.00  0.00    +0.032 C 
ATOM      2  C   UNL     1       5.620  -1.760  -1.448  0.00  0.00    +0.059 C 
ATOM      3  C   UNL     1       4.832  -0.524  -1.050  0.00  0.00    +0.017 C 
ATOM      4  C   UNL     1       5.123   0.673  -1.588  0.00  0.00    +0.036 C 
ATOM      5  C   UNL     1       4.427   1.976  -1.280  0.00  0.00    +0.137 C 
ATOM      6  N   UNL     1       3.545   1.929  -0.134  0.00  0.00    -0.331 N 
ATOM      7  C   UNL     1       2.405   1.128  -0.139  0.00  0.00    +0.049 A 
ATOM      8  C   UNL     1       1.134   1.679  -0.117  0.00  0.00    +0.025 A 
ATOM      9  C   UNL     1       0.030   0.849  -0.201  0.00  0.00    +0.002 A 
ATOM     10  C   UNL     1       0.191  -0.522  -0.299  0.00  0.00    +0.002 A 
ATOM     11  C   UNL     1       1.459  -1.078  -0.293  0.00  0.00    +0.025 A 
ATOM     12  C   UNL     1       2.563  -0.248  -0.204  0.00  0.00    +0.052 A 
ATOM     13  N   UNL     1       3.861  -0.742  -0.127  0.00  0.00    -0.316 N 
ATOM     14  C   UNL     1       6.158   0.789  -2.546  0.00  0.00    +0.163 C 
ATOM     15  O   UNL     1       6.417   1.887  -2.999  0.00  0.00    -0.292 OA
ATOM     16  C   UNL     1       6.947  -0.393  -3.024  0.00  0.00    +0.088 C 
ATOM     17  H   UNL     1       3.769   2.532   0.758  0.00  0.00    +0.147 HD
ATOM     18  H   UNL     1       4.076  -1.350   0.764  0.00  0.00    +0.152 HD
ENDROOT
BRANCH   5  19
ATOM     19  C   UNL     1       3.621   2.384  -2.487  0.00  0.00    -0.003 A 
ATOM     20  C   UNL     1       3.323   1.454  -3.466  0.00  0.00    +0.007 A 
ATOM     21  C   UNL     1       2.585   1.827  -4.573  0.00  0.00    +0.002 A 
ATOM     22  C   UNL     1       2.143   3.131  -4.702  0.00  0.00    +0.021 A 
ATOM     23  C   UNL     1       2.438   4.062  -3.724  0.00  0.00    +0.060 A 
ATOM     24  C   UNL     1       3.174   3.687  -2.612  0.00  0.00    +0.064 A 
ATOM     25 CL   UNL     1       3.541   4.853  -1.379  0.00  0.00    -0.082 Cl
ATOM     26 CL   UNL     1       1.883   5.699  -3.885  0.00  0.00    -0.082 Cl
ENDBRANCH   5  19
BRANCH   1  29
ATOM     27  C   UNL     1       7.161  -4.796  -4.683  0.00  0.00    +0.165 A 
ATOM     28  C   UNL     1       6.432  -3.673  -4.324  0.00  0.00    +0.053 A 
ATOM     29  C   UNL     1       6.866  -2.865  -3.290  0.00  0.00    -0.036 A 
ATOM     30  C   UNL     1       8.031  -3.171  -2.612  0.00  0.00    +0.053 A 
ATOM     31  C   UNL     1       8.764  -4.295  -2.961  0.00  0.00    +0.165 A 
ATOM     32  C   UNL     1       8.330  -5.110  -4.000  0.00  0.00    +0.204 A 
BRANCH  27  34
ATOM     33  C   UNL     1       5.522  -5.207  -6.356  0.00  0.00    +0.277 C 
ATOM     34  O   UNL     1       6.733  -5.590  -5.700  0.00  0.00    -0.491 OA
ENDBRANCH  27  34
BRANCH  32  35
ATOM     35  O   UNL     1       9.049  -6.212  -4.348  0.00  0.00    -0.488 OA
ATOM     36  C   UNL     1      10.062  -6.039  -5.341  0.00  0.00    +0.277 C 
ENDBRANCH  32  35
BRANCH  31  37
ATOM     37  O   UNL     1       9.907  -4.598  -2.289  0.00  0.00    -0.491 OA
ATOM     38  C   UNL     1      10.292  -3.717  -1.233  0.00  0.00    +0.277 C 
ENDBRANCH  31  37
ENDBRANCH   1  29
TORSDOF 5
