REMARK  Name = ZINC20911593
REMARK  15 active torsions:
REMARK  status: ('A' for Active; 'I' for Inactive)
REMARK    1  A    between atoms: C_1  and  C_2
REMARK    2  A    between atoms: C_2  and  C_3
REMARK    3  A    between atoms: C_3  and  S_4
REMARK    4  A    between atoms: S_4  and  C_5
REMARK    5  A    between atoms: C_11  and  C_13
REMARK    6  A    between atoms: C_13  and  S_14
REMARK    7  A    between atoms: S_14  and  C_15
REMARK    8  A    between atoms: N_19  and  N_20
REMARK    9  A    between atoms: N_21  and  N_22
REMARK   10  A    between atoms: C_23  and  C_24
REMARK   11  A    between atoms: C_25  and  C_33
REMARK   12  A    between atoms: N_27  and  C_30
REMARK   13  A    between atoms: C_28  and  C_29
REMARK   14  A    between atoms: C_30  and  C_31
REMARK   15  A    between atoms: C_30  and  C_32
REMARK                            x       y       z     vdW  Elec       q    Type
REMARK                         _______ _______ _______ _____ _____    ______ ____
ROOT
ATOM      1  C   UNL     1      -0.641  -6.966  -0.028  0.00  0.00    +0.210 A 
ATOM      2  N   UNL     1       0.577  -7.452  -0.048  0.00  0.00    -0.119 NA
ATOM      3  N   UNL     1       0.485  -8.850  -0.049  0.00  0.00    -0.109 NA
ATOM      4  C   UNL     1      -0.786  -9.172  -0.039  0.00  0.00    +0.254 A 
ATOM      5  N   UNL     1      -1.515  -8.016  -0.025  0.00  0.00    -0.211 N 
ATOM      6  N   UNL     1      -1.300 -10.461  -0.041  0.00  0.00    -0.204 N 
ATOM      7  H   UNL     1      -2.389 -10.618  -0.032  0.00  0.00    +0.177 HD
ENDROOT
BRANCH   5   8
ATOM      8  N   UNL     1      -2.878  -7.926  -0.012  0.00  0.00    -0.294 N 
ATOM      9  H   UNL     1      -3.489  -8.841  -0.011  0.00  0.00    +0.163 HD
ATOM     10  H   UNL     1      -3.364  -6.939  -0.002  0.00  0.00    +0.163 HD
ENDBRANCH   5   8
BRANCH   6  11
ATOM     11  N   UNL     1      -0.433 -11.561  -0.055  0.00  0.00    -0.187 NA
ATOM     12  C   UNL     1      -0.914 -12.766  -0.057  0.00  0.00    +0.141 C 
BRANCH  12  13
ATOM     13  C   UNL     1      -0.001 -13.926  -0.072  0.00  0.00    +0.038 A 
ATOM     14  C   UNL     1       1.410 -13.880  -0.085  0.00  0.00    +0.069 A 
ATOM     15  N   UNL     1       1.857 -15.107  -0.095  0.00  0.00    -0.175 NA
ATOM     16  N   UNL     1       0.767 -15.985  -0.090  0.00  0.00    -0.265 N 
ATOM     17  C   UNL     1      -0.367 -15.254  -0.071  0.00  0.00    +0.045 A 
ATOM     18  C   UNL     1      -1.775 -15.792  -0.054  0.00  0.00    +0.066 C 
ATOM     19  C   UNL     1       2.254 -12.631  -0.086  0.00  0.00    +0.068 C 
BRANCH  16  20
ATOM     20  C   UNL     1       0.844 -17.447  -0.099  0.00  0.00    +0.101 C 
ATOM     21  C   UNL     1       1.580 -17.911  -1.357  0.00  0.00    +0.032 C 
ATOM     22  C   UNL     1       1.602 -17.926   1.141  0.00  0.00    +0.032 C 
ENDBRANCH  16  20
ENDBRANCH  12  13
ENDBRANCH   6  11
BRANCH   1  23
ATOM     23  S   UNL     1      -1.074  -5.258  -0.015  0.00  0.00    -0.075 S 
BRANCH  23  24
ATOM     24  C   UNL     1       0.524  -4.400  -0.026  0.00  0.00    +0.173 C 
BRANCH  24  31
ATOM     25  C   UNL     1       1.100   1.973   0.002  0.00  0.00    +0.160 A 
ATOM     26  N   UNL     1      -0.015   1.257   0.009  0.00  0.00    -0.133 NA
ATOM     27  N   UNL     1       0.002  -0.004   0.002  0.00  0.00    -0.125 NA
ATOM     28  C   UNL     1       1.133  -0.690  -0.013  0.00  0.00    +0.189 A 
ATOM     29  S   UNL     1       2.314   0.656  -0.017  0.00  0.00    -0.024 S 
ATOM     30  N   UNL     1       1.345  -2.067  -0.021  0.00  0.00    -0.263 N 
ATOM     31  C   UNL     1       0.294  -2.910  -0.016  0.00  0.00    +0.229 C 
ATOM     32  O   UNL     1      -0.836  -2.471  -0.003  0.00  0.00    -0.275 OA
ATOM     33  H   UNL     1       2.370  -2.465  -0.033  0.00  0.00    +0.157 HD
BRANCH  25  34
ATOM     34  S   UNL     1       1.324   3.720   0.009  0.00  0.00    -0.097 S 
BRANCH  34  35
ATOM     35  C   UNL     1      -0.365   4.380   0.028  0.00  0.00    +0.076 C 
BRANCH  35  37
ATOM     36  C   UNL     1      -1.741   6.465   0.052  0.00  0.00    +0.004 C 
ATOM     37  C   UNL     1      -0.316   5.909   0.035  0.00  0.00    +0.008 C 
ENDBRANCH  35  37
ENDBRANCH  34  35
ENDBRANCH  25  34
ENDBRANCH  24  31
ENDBRANCH  23  24
ENDBRANCH   1  23
TORSDOF 10
