REMARK  Name = ZINC36055778
REMARK  9 active torsions:
REMARK  status: ('A' for Active; 'I' for Inactive)
REMARK    1  A    between atoms: C_1  and  C_2
REMARK    2  A    between atoms: C_2  and  C_4
REMARK    3  A    between atoms: C_2  and  N_14
REMARK    4  A    between atoms: C_7  and  S_10
REMARK    5  A    between atoms: S_10  and  N_13
REMARK    6  A    between atoms: N_14  and  C_15
REMARK    7  A    between atoms: C_16  and  C_18
REMARK    8  A    between atoms: C_22  and  C_27
REMARK    9  A    between atoms: C_27  and  C_28
REMARK                            x       y       z     vdW  Elec       q    Type
REMARK                         _______ _______ _______ _____ _____    ______ ____
ROOT
ATOM      1  N   UNL     1      -1.423  -0.458  -0.068  0.00  0.00    -0.296 N 
ATOM      2  C   UNL     1      -2.413   0.020   0.901  0.00  0.00    +0.132 C 
ATOM      3  C   UNL     1      -1.793  -1.309  -1.045  0.00  0.00    +0.237 C 
ATOM      4  O   UNL     1      -0.974  -1.705  -1.847  0.00  0.00    -0.274 OA
ENDROOT
BRANCH   3   5
ATOM      5  C   UNL     1      -3.225  -1.770  -1.140  0.00  0.00    +0.169 C 
ATOM      6  C   UNL     1      -3.464  -2.861  -0.096  0.00  0.00    +0.101 C 
ATOM      7  S   UNL     1      -2.539  -4.345  -0.607  0.00  0.00    -0.145 S 
ATOM      8  C   UNL     1      -3.288  -4.723  -2.221  0.00  0.00    +0.136 C 
ATOM      9  C   UNL     1      -3.454  -3.444  -2.991  0.00  0.00    +0.227 C 
ATOM     10  O   UNL     1      -3.578  -3.542  -4.194  0.00  0.00    -0.275 OA
ATOM     11  N   UNL     1      -3.479  -2.229  -2.487  0.00  0.00    -0.302 N 
ATOM     12  H   UNL     1      -3.704  -1.531  -3.121  0.00  0.00    +0.150 HD
BRANCH   8  13
ATOM     13  C   UNL     1      -2.379  -5.677  -2.997  0.00  0.00    +0.058 C 
BRANCH  13  14
ATOM     14  C   UNL     1      -2.303  -6.998  -2.275  0.00  0.00    -0.046 A 
ATOM     15  C   UNL     1      -1.327  -7.206  -1.318  0.00  0.00    +0.006 A 
ATOM     16  C   UNL     1      -1.257  -8.417  -0.654  0.00  0.00    +0.038 A 
ATOM     17  C   UNL     1      -2.164  -9.421  -0.949  0.00  0.00    +0.123 A 
ATOM     18  C   UNL     1      -3.141  -9.210  -1.907  0.00  0.00    +0.038 A 
ATOM     19  C   UNL     1      -3.212  -7.997  -2.566  0.00  0.00    +0.006 A 
ATOM     20  F   UNL     1      -2.096 -10.604  -0.301  0.00  0.00    -0.205 F 
ENDBRANCH  13  14
ENDBRANCH   8  13
ENDBRANCH   3   5
BRANCH   1  22
ATOM     21  C   UNL     1       0.013   1.520   0.021  0.00  0.00    +0.033 C 
ATOM     22  C   UNL     1      -0.032  -0.009   0.025  0.00  0.00    +0.103 C 
BRANCH  22  23
ATOM     23  C   UNL     1       0.578  -0.526   1.303  0.00  0.00    -0.027 A 
ATOM     24  C   UNL     1       0.157  -1.732   1.832  0.00  0.00    +0.007 A 
ATOM     25  C   UNL     1       0.716  -2.206   3.003  0.00  0.00    +0.029 A 
ATOM     26  C   UNL     1       1.697  -1.474   3.646  0.00  0.00    +0.105 A 
ATOM     27  C   UNL     1       2.119  -0.269   3.117  0.00  0.00    +0.029 A 
ATOM     28  C   UNL     1       1.563   0.203   1.943  0.00  0.00    +0.007 A 
BRANCH  26  29
ATOM     29  S   UNL     1       2.409  -2.078   5.141  0.00  0.00    +0.056 S 
ATOM     30  O   UNL     1       2.917  -0.947   5.835  0.00  0.00    -0.153 OA
ATOM     31  O   UNL     1       1.457  -2.961   5.717  0.00  0.00    -0.153 OA
BRANCH  29  32
ATOM     32  N   UNL     1       3.718  -3.002   4.721  0.00  0.00    -0.204 NA
ATOM     33  H   UNL     1       3.951  -3.117   3.787  0.00  0.00    +0.144 HD
ATOM     34  H   UNL     1       4.251  -3.429   5.410  0.00  0.00    +0.144 HD
ENDBRANCH  29  32
ENDBRANCH  26  29
ENDBRANCH  22  23
ENDBRANCH   1  22
TORSDOF 7
