REMARK  Name = ZINC19220689
REMARK  5 active torsions:
REMARK  status: ('A' for Active; 'I' for Inactive)
REMARK    1  A    between atoms: C_2  and  N_10
REMARK    2  A    between atoms: C_11  and  C_13
REMARK    3  A    between atoms: C_13  and  S_14
REMARK    4  A    between atoms: S_14  and  C_15
REMARK    5  A    between atoms: C_15  and  C_16
REMARK                            x       y       z     vdW  Elec       q    Type
REMARK                         _______ _______ _______ _____ _____    ______ ____
ROOT
ATOM      1  C   UNL     1      -0.022   5.651  -0.184  0.00  0.00    +0.165 C 
ENDROOT
BRANCH   1   3
ATOM      2  N   UNL     1       1.161   3.487   0.009  0.00  0.00    -0.284 N 
ATOM      3  C   UNL     1      -0.011   4.148  -0.078  0.00  0.00    +0.227 C 
ATOM      4  O   UNL     1      -1.056   3.533  -0.072  0.00  0.00    -0.275 OA
ATOM      5  H   UNL     1       1.992   3.982   0.085  0.00  0.00    +0.155 HD
BRANCH   2   7
ATOM      6  C   UNL     1       0.141   1.387  -0.611  0.00  0.00    +0.046 A 
ATOM      7  C   UNL     1       1.178   2.087  -0.009  0.00  0.00    +0.053 A 
ATOM      8  C   UNL     1       2.232   1.397   0.575  0.00  0.00    +0.064 A 
ATOM      9  C   UNL     1       2.247   0.015   0.555  0.00  0.00    +0.043 A 
ATOM     10  C   UNL     1       1.213  -0.681  -0.046  0.00  0.00    +0.061 A 
ATOM     11  C   UNL     1       0.161   0.005  -0.628  0.00  0.00    +0.061 A 
ATOM     12 CL   UNL     1      -1.136  -0.871  -1.380  0.00  0.00    -0.082 Cl
ATOM     13 CL   UNL     1       1.236  -2.417  -0.070  0.00  0.00    -0.082 Cl
ATOM     14 CL   UNL     1       3.531   2.269   1.328  0.00  0.00    -0.082 Cl
ENDBRANCH   2   7
ENDBRANCH   1   3
BRANCH   1  15
ATOM     15  S   UNL     1      -1.736   6.238  -0.285  0.00  0.00    -0.144 S 
BRANCH  15  16
ATOM     16  C   UNL     1      -1.576   8.041  -0.406  0.00  0.00    +0.145 C 
BRANCH  16  17
ATOM     17  C   UNL     1      -2.946   8.661  -0.498  0.00  0.00    +0.146 A 
ATOM     18  N   UNL     1      -3.507   8.848  -1.679  0.00  0.00    -0.199 NA
ATOM     19  C   UNL     1      -4.718   9.395  -1.764  0.00  0.00    +0.217 A 
ATOM     20  N   UNL     1      -5.362   9.754  -0.659  0.00  0.00    -0.181 NA
ATOM     21  C   UNL     1      -4.794   9.566   0.527  0.00  0.00    +0.217 A 
ATOM     22  N   UNL     1      -3.585   9.013   0.604  0.00  0.00    -0.199 NA
ATOM     23  N   UNL     1      -5.458   9.937   1.678  0.00  0.00    -0.327 N 
ATOM     24  N   UNL     1      -5.303   9.589  -2.999  0.00  0.00    -0.327 N 
ATOM     25  H   UNL     1      -6.340  10.336   1.621  0.00  0.00    +0.145 HD
ATOM     26  H   UNL     1      -5.043   9.799   2.544  0.00  0.00    +0.145 HD
ATOM     27  H   UNL     1      -4.832   9.327  -3.806  0.00  0.00    +0.145 HD
ATOM     28  H   UNL     1      -6.185   9.989  -3.060  0.00  0.00    +0.145 HD
ENDBRANCH  16  17
ENDBRANCH  15  16
ENDBRANCH   1  15
TORSDOF 5
