REMARK  Name = ZINC39724668
REMARK  10 active torsions:
REMARK  status: ('A' for Active; 'I' for Inactive)
REMARK    1  A    between atoms: C_1  and  C_2
REMARK    2  A    between atoms: C_2  and  O_3
REMARK    3  A    between atoms: O_3  and  C_4
REMARK    4  A    between atoms: C_4  and  C_6
REMARK    5  A    between atoms: C_8  and  N_17
REMARK    6  A    between atoms: C_18  and  C_20
REMARK    7  A    between atoms: C_20  and  C_22
REMARK    8  A    between atoms: C_20  and  S_23
REMARK    9  A    between atoms: S_23  and  C_24
REMARK   10  A    between atoms: C_29  and  C_31
REMARK                            x       y       z     vdW  Elec       q    Type
REMARK                         _______ _______ _______ _____ _____    ______ ____
ROOT
ATOM      1  N   UNL     1       1.468  -0.742   4.376  0.00  0.00    -0.301 N 
ATOM      2  C   UNL     1       0.737   0.305   4.806  0.00  0.00    +0.227 C 
ATOM      3  O   UNL     1      -0.472   0.282   4.708  0.00  0.00    -0.275 OA
ATOM      4  H   UNL     1       2.434  -0.724   4.454  0.00  0.00    +0.150 HD
ENDROOT
BRANCH   1   6
ATOM      5  C   UNL     1       1.516  -2.381   2.500  0.00  0.00    +0.155 C 
ATOM      6  C   UNL     1       0.803  -1.908   3.790  0.00  0.00    +0.153 C 
ATOM      7  S   UNL     1       1.052  -3.417   4.816  0.00  0.00    -0.106 S 
ATOM      8  C   UNL     1       1.318  -4.583   3.501  0.00  0.00    -0.013 C 
ATOM      9  C   UNL     1       1.528  -3.885   2.393  0.00  0.00    -0.044 C 
ATOM     10  C   UNL     1       1.774  -4.585   1.058  0.00  0.00    +0.032 C 
ATOM     11  C   UNL     1       2.196  -6.030   1.321  0.00  0.00    +0.005 C 
ATOM     12  C   UNL     1       1.175  -6.702   2.244  0.00  0.00    +0.005 C 
ATOM     13  C   UNL     1       1.302  -6.080   3.636  0.00  0.00    +0.042 C 
BRANCH   5  14
ATOM     14  C   UNL     1       0.801  -1.808   1.304  0.00  0.00    +0.317 C 
ATOM     15  O   UNL     1       0.324  -2.546   0.475  0.00  0.00    -0.250 OA
BRANCH  14  16
ATOM     16  O   UNL     1       0.693  -0.477   1.160  0.00  0.00    -0.464 OA
BRANCH  16  18
ATOM     17  C   UNL     1      -0.019   1.526   0.010  0.00  0.00    +0.048 C 
ATOM     18  C   UNL     1       0.002  -0.004   0.002  0.00  0.00    +0.229 C 
ENDBRANCH  16  18
ENDBRANCH  14  16
ENDBRANCH   5  14
ENDBRANCH   1   6
BRANCH   2  19
ATOM     19  C   UNL     1       1.421   1.505   5.409  0.00  0.00    +0.137 C 
ATOM     20  C   UNL     1       1.858   2.457   4.294  0.00  0.00    +0.029 C 
BRANCH  19  21
ATOM     21  S   UNL     1       0.271   2.363   6.519  0.00  0.00    -0.073 S 
BRANCH  21  22
ATOM     22  C   UNL     1       1.249   3.634   7.248  0.00  0.00    +0.193 A 
ATOM     23  N   UNL     1       2.523   3.747   6.900  0.00  0.00    -0.183 NA
ATOM     24  C   UNL     1       3.293   4.691   7.427  0.00  0.00    +0.275 A 
ATOM     25  O   UNL     1       4.594   4.799   7.065  0.00  0.00    -0.266 OA
ATOM     26  C   UNL     1       2.745   5.571   8.357  0.00  0.00    +0.100 A 
ATOM     27  C   UNL     1       1.403   5.423   8.700  0.00  0.00    +0.079 A 
ATOM     28  N   UNL     1       0.691   4.454   8.124  0.00  0.00    -0.222 NA
BRANCH  27  29
ATOM     29  C   UNL     1       0.773   6.335   9.686  0.00  0.00    +0.001 A 
ATOM     30  C   UNL     1       1.521   7.352  10.275  0.00  0.00    +0.010 A 
ATOM     31  C   UNL     1       0.929   8.198  11.191  0.00  0.00    +0.001 A 
ATOM     32  C   UNL     1      -0.403   8.036  11.526  0.00  0.00    +0.000 A 
ATOM     33  C   UNL     1      -1.150   7.027  10.945  0.00  0.00    +0.001 A 
ATOM     34  C   UNL     1      -0.571   6.180  10.023  0.00  0.00    +0.010 A 
ENDBRANCH  27  29
ENDBRANCH  21  22
ENDBRANCH  19  21
ENDBRANCH   2  19
TORSDOF 8
