REMARK  Name = ZINC08893316
REMARK  7 active torsions:
REMARK  status: ('A' for Active; 'I' for Inactive)
REMARK    1  A    between atoms: C_3  and  C_28
REMARK    2  A    between atoms: C_4  and  N_8
REMARK    3  A    between atoms: C_9  and  C_11
REMARK    4  A    between atoms: N_13  and  C_14
REMARK    5  A    between atoms: C_14  and  C_15
REMARK    6  A    between atoms: C_15  and  C_17
REMARK    7  A    between atoms: C_15  and  N_52
REMARK                            x       y       z     vdW  Elec       q    Type
REMARK                         _______ _______ _______ _____ _____    ______ ____
ROOT
ATOM      1  C   UNL     1       3.433   6.116  -0.953  0.00  0.00    +0.299 C 
ATOM      2  O   UNL     1       4.452   5.531  -1.258  0.00  0.00    -0.265 OA
ATOM      3  N   UNL     1       3.464   7.441  -0.711  0.00  0.00    -0.309 N 
ATOM      4  H   UNL     1       2.650   7.908  -0.467  0.00  0.00    +0.149 HD
ENDROOT
BRANCH   1   6
ATOM      5  N   UNL     1       2.115   4.041  -1.089  0.00  0.00    -0.277 N 
ATOM      6  C   UNL     1       2.146   5.367  -0.847  0.00  0.00    +0.303 C 
ATOM      7  O   UNL     1       1.127   5.951  -0.541  0.00  0.00    -0.265 OA
ATOM      8  H   UNL     1       2.940   3.561  -1.262  0.00  0.00    +0.155 HD
BRANCH   5  12
ATOM      9  C   UNL     1      -1.524   2.005  -1.101  0.00  0.00    +0.021 A 
ATOM     10  C   UNL     1      -0.362   1.311  -0.839  0.00  0.00    +0.022 A 
ATOM     11  C   UNL     1       0.863   1.982  -0.835  0.00  0.00    +0.073 A 
ATOM     12  C   UNL     1       0.900   3.362  -1.092  0.00  0.00    +0.053 A 
ATOM     13  C   UNL     1      -0.280   4.045  -1.348  0.00  0.00    +0.044 A 
ATOM     14  C   UNL     1      -1.485   3.368  -1.349  0.00  0.00    +0.043 A 
ATOM     15 CL   UNL     1      -2.958   4.229  -1.670  0.00  0.00    -0.083 Cl
BRANCH  11  16
ATOM     16  C   UNL     1       2.075   1.266  -0.569  0.00  0.00    +0.101 C 
ATOM     17  N   UNL     1       3.036   0.698  -0.359  0.00  0.00    -0.191 NA
ENDBRANCH  11  16
ENDBRANCH   5  12
ENDBRANCH   1   6
BRANCH   3  18
ATOM     18  C   UNL     1       4.727   8.176  -0.815  0.00  0.00    +0.094 C 
BRANCH  18  19
ATOM     19  C   UNL     1       4.507   9.630  -0.392  0.00  0.00    -0.020 C 
BRANCH  19  26
ATOM     20  C   UNL     1       3.964  11.603  -1.704  0.00  0.00    -0.078 C 
ATOM     21  C   UNL     1       2.878  12.388  -2.388  0.00  0.00    -0.019 C 
ATOM     22  C   UNL     1       2.164  13.258  -1.333  0.00  0.00    -0.002 C 
ATOM     23  C   UNL     1       1.216  12.489  -0.534  0.00  0.00    -0.002 C 
ATOM     24  C   UNL     1       1.904  11.354   0.254  0.00  0.00    -0.019 C 
ATOM     25  C   UNL     1       2.166  10.210  -0.687  0.00  0.00    -0.078 C 
ATOM     26  N   UNL     1       3.528  10.216  -1.321  0.00  0.00    +0.385 N 
ATOM     27  H   UNL     1       3.492   9.642  -2.171  0.00  0.00    -0.081 HD
ENDBRANCH  19  26
BRANCH  19  28
ATOM     28  C   UNL     1       5.811  10.382  -0.481  0.00  0.00    -0.052 A 
ATOM     29  C   UNL     1       6.473  10.776   0.666  0.00  0.00    +0.009 A 
ATOM     30  C   UNL     1       7.646  11.445   0.551  0.00  0.00    +0.045 A 
ATOM     31  S   UNL     1       7.840  11.548  -1.220  0.00  0.00    -0.105 S 
ATOM     32  C   UNL     1       6.348  10.685  -1.688  0.00  0.00    +0.047 A 
ENDBRANCH  19  28
ENDBRANCH  18  19
ENDBRANCH   3  18
TORSDOF 7
