REMARK  Name = ZINC00865821
REMARK  4 active torsions:
REMARK  status: ('A' for Active; 'I' for Inactive)
REMARK    1  A    between atoms: C_3  and  C_6
REMARK    2  A    between atoms: C_9  and  C_30
REMARK    3  A    between atoms: C_14  and  C_16
REMARK    4  A    between atoms: N_18  and  C_19
REMARK                            x       y       z     vdW  Elec       q    Type
REMARK                         _______ _______ _______ _____ _____    ______ ____
ROOT
ATOM      1  C   UNL     1      -1.768   8.027   0.062  0.00  0.00    +0.111 C 
ATOM      2  C   UNL     1      -0.513   8.013  -0.817  0.00  0.00    +0.063 C 
ATOM      3  C   UNL     1       0.380   6.838  -0.391  0.00  0.00    +0.215 C 
ATOM      4  N   UNL     1      -0.472   5.650  -0.265  0.00  0.00    -0.237 N 
ATOM      5  C   UNL     1      -1.833   5.688  -0.200  0.00  0.00    +0.133 A 
ATOM      6  C   UNL     1      -2.277   4.412  -0.095  0.00  0.00    +0.089 A 
ATOM      7  C   UNL     1      -1.148   3.564  -0.085  0.00  0.00    +0.163 A 
ATOM      8  N   UNL     1      -0.068   4.316  -0.192  0.00  0.00    -0.163 NA
ATOM      9 BR   UNL     1      -4.083   3.866   0.024  0.00  0.00    -0.044 Br
ATOM     10  N   UNL     1      -2.598   6.852  -0.243  0.00  0.00    -0.321 N 
ATOM     11  H   UNL     1      -3.669   6.977  -0.462  0.00  0.00    +0.148 HD
ENDROOT
BRANCH   1  14
ATOM     12  C   UNL     1      -0.888   8.746   3.698  0.00  0.00    +0.008 A 
ATOM     13  C   UNL     1      -1.283   9.015   2.401  0.00  0.00    +0.013 A 
ATOM     14  C   UNL     1      -1.364   7.993   1.514  0.00  0.00    +0.010 A 
ATOM     15  S   UNL     1      -0.863   6.599   2.509  0.00  0.00    -0.100 S 
ATOM     16  C   UNL     1      -0.585   7.470   4.042  0.00  0.00    +0.045 A 
ENDBRANCH   1  14
BRANCH   7  17
ATOM     17  C   UNL     1      -1.172   2.091   0.018  0.00  0.00    +0.270 C 
ATOM     18  O   UNL     1      -2.233   1.505   0.111  0.00  0.00    -0.268 OA
ATOM     19  N   UNL     1      -0.017   1.396   0.010  0.00  0.00    -0.280 N 
ATOM     20  H   UNL     1       0.945   1.929   0.002  0.00  0.00    +0.155 HD
BRANCH  19  21
ATOM     21  C   UNL     1      -0.042  -0.004   0.010  0.00  0.00    +0.037 A 
ATOM     22  C   UNL     1       0.924  -0.716  -0.688  0.00  0.00    +0.027 A 
ATOM     23  C   UNL     1       0.901  -2.098  -0.688  0.00  0.00    +0.051 A 
ATOM     24  C   UNL     1      -0.086  -2.776   0.008  0.00  0.00    +0.166 A 
ATOM     25  C   UNL     1      -1.057  -2.065   0.709  0.00  0.00    +0.168 A 
ATOM     26  C   UNL     1      -1.030  -0.680   0.713  0.00  0.00    +0.072 A 
ATOM     27  O   UNL     1      -1.906  -2.954   1.303  0.00  0.00    -0.453 OA
ATOM     28  C   UNL     1      -1.208  -4.214   1.298  0.00  0.00    +0.466 C 
ATOM     29  O   UNL     1      -0.327  -4.112   0.164  0.00  0.00    -0.453 OA
ENDBRANCH  19  21
ENDBRANCH   7  17
BRANCH   3  30
ATOM     30  C   UNL     1       1.456   6.595  -1.452  0.00  0.00    +0.412 C 
ATOM     31  F   UNL     1       0.845   6.330  -2.683  0.00  0.00    -0.168 F 
ATOM     32  F   UNL     1       2.263   7.731  -1.566  0.00  0.00    -0.168 F 
ATOM     33  F   UNL     1       2.241   5.500  -1.076  0.00  0.00    -0.168 F 
ENDBRANCH   3  30
TORSDOF 4
