REMARK  Name = ZINC14356493
REMARK  11 active torsions:
REMARK  status: ('A' for Active; 'I' for Inactive)
REMARK    1  A    between atoms: C_1  and  C_2
REMARK    2  A    between atoms: C_2  and  C_3
REMARK    3  A    between atoms: C_3  and  C_4
REMARK    4  A    between atoms: C_4  and  N_5
REMARK    5  A    between atoms: N_5  and  C_6
REMARK    6  A    between atoms: C_11  and  C_12
REMARK    7  A    between atoms: C_12  and  O_14
REMARK    8  A    between atoms: O_14  and  C_15
REMARK    9  A    between atoms: C_15  and  C_16
REMARK   10  A    between atoms: C_19  and  C_36
REMARK   11  A    between atoms: C_27  and  C_28
REMARK                            x       y       z     vdW  Elec       q    Type
REMARK                         _______ _______ _______ _____ _____    ______ ____
ROOT
ATOM      1  C   UNL     1      -5.738   2.060   0.598  0.00  0.00    +0.273 C 
ATOM      2  O   UNL     1      -5.469   0.877   0.590  0.00  0.00    -0.270 OA
ATOM      3  N   UNL     1      -6.986   2.469   0.296  0.00  0.00    -0.182 N 
ATOM      4  C   UNL     1      -8.127   1.599  -0.070  0.00  0.00    +0.140 C 
ATOM      5  C   UNL     1      -9.038   2.579  -0.825  0.00  0.00    +0.066 C 
ATOM      6  C   UNL     1     -10.511   2.417  -0.444  0.00  0.00    +0.012 C 
ATOM      7  C   UNL     1     -11.304   3.537  -1.115  0.00  0.00    +0.005 C 
ATOM      8  C   UNL     1     -10.905   4.922  -0.648  0.00  0.00    +0.037 C 
ATOM      9  C   UNL     1      -9.457   5.059  -0.293  0.00  0.00    -0.024 C 
ATOM     10  C   UNL     1      -8.954   6.280  -0.022  0.00  0.00    +0.013 C 
ATOM     11  C   UNL     1      -8.605   3.928  -0.259  0.00  0.00    +0.068 C 
ATOM     12  N   UNL     1      -7.437   3.794   0.265  0.00  0.00    -0.181 NA
ENDROOT
BRANCH  10  13
ATOM     13  C   UNL     1      -9.855   7.438   0.097  0.00  0.00    -0.025 A 
ATOM     14  C   UNL     1      -9.515   8.657  -0.498  0.00  0.00    +0.008 A 
ATOM     15  C   UNL     1     -10.368   9.735  -0.388  0.00  0.00    +0.001 A 
ATOM     16  C   UNL     1     -11.552   9.616   0.320  0.00  0.00    +0.000 A 
ATOM     17  C   UNL     1     -11.892   8.415   0.916  0.00  0.00    +0.001 A 
ATOM     18  C   UNL     1     -11.053   7.326   0.809  0.00  0.00    +0.008 A 
ENDBRANCH  10  13
BRANCH   4  19
ATOM     19  C   UNL     1      -7.682   0.474  -0.968  0.00  0.00    -0.024 A 
ATOM     20  C   UNL     1      -6.736   0.706  -1.949  0.00  0.00    +0.005 A 
ATOM     21  C   UNL     1      -6.324  -0.328  -2.770  0.00  0.00    +0.000 A 
ATOM     22  C   UNL     1      -6.866  -1.590  -2.617  0.00  0.00    +0.000 A 
ATOM     23  C   UNL     1      -7.817  -1.820  -1.640  0.00  0.00    +0.000 A 
ATOM     24  C   UNL     1      -8.225  -0.788  -0.816  0.00  0.00    +0.005 A 
ENDBRANCH   4  19
BRANCH   1  25
ATOM     25  C   UNL     1      -4.677   3.071   0.946  0.00  0.00    +0.330 C 
BRANCH  25  26
ATOM     26  O   UNL     1      -3.429   2.386   1.230  0.00  0.00    -0.452 OA
BRANCH  26  27
ATOM     27  C   UNL     1      -2.371   3.152   1.560  0.00  0.00    +0.341 C 
ATOM     28  O   UNL     1      -2.488   4.361   1.610  0.00  0.00    -0.245 OA
BRANCH  27  34
ATOM     29  C   UNL     1       0.001   3.307   2.316  0.00  0.00    +0.041 A 
ATOM     30  C   UNL     1       1.221   2.704   2.596  0.00  0.00    +0.024 A 
ATOM     31  C   UNL     1       1.373   1.343   2.428  0.00  0.00    +0.002 A 
ATOM     32  C   UNL     1       0.315   0.568   1.980  0.00  0.00    +0.001 A 
ATOM     33  C   UNL     1      -0.900   1.148   1.691  0.00  0.00    +0.017 A 
ATOM     34  C   UNL     1      -1.073   2.525   1.862  0.00  0.00    +0.080 A 
BRANCH  29  35
ATOM     35  N   UNL     1      -0.155   4.676   2.485  0.00  0.00    -0.343 N 
ATOM     36  H   UNL     1      -0.979   5.108   2.210  0.00  0.00    +0.146 HD
BRANCH  35  37
ATOM     37  C   UNL     1       0.925   5.469   3.079  0.00  0.00    +0.101 C 
BRANCH  37  38
ATOM     38  C   UNL     1       0.499   6.937   3.150  0.00  0.00    +0.018 C 
BRANCH  38  40
ATOM     39  C   UNL     1       1.202   9.233   3.842  0.00  0.00    +0.004 C 
ATOM     40  C   UNL     1       1.627   7.765   3.770  0.00  0.00    -0.002 C 
ENDBRANCH  38  40
ENDBRANCH  37  38
ENDBRANCH  35  37
ENDBRANCH  29  35
ENDBRANCH  27  34
ENDBRANCH  26  27
ENDBRANCH  25  26
ENDBRANCH   1  25
TORSDOF 10
