REMARK  Name = ZINC48456883
REMARK  6 active torsions:
REMARK  status: ('A' for Active; 'I' for Inactive)
REMARK    1  A    between atoms: C_1  and  C_2
REMARK    2  A    between atoms: C_2  and  N_3
REMARK    3  A    between atoms: N_3  and  C_4
REMARK    4  A    between atoms: C_11  and  C_13
REMARK    5  A    between atoms: C_13  and  S_14
REMARK    6  A    between atoms: S_14  and  C_15
REMARK                            x       y       z     vdW  Elec       q    Type
REMARK                         _______ _______ _______ _____ _____    ______ ____
ROOT
ATOM      1  N   UNL     1       0.688  -0.476  -1.203  0.00  0.00    -0.270 N 
ATOM      2  C   UNL     1      -0.013  -0.705  -2.332  0.00  0.00    +0.230 C 
ATOM      3  O   UNL     1       0.555  -1.096  -3.330  0.00  0.00    -0.274 OA
ENDROOT
BRANCH   1   4
ATOM      4  C   UNL     1       2.071  -0.691  -1.183  0.00  0.00    +0.050 A 
ATOM      5  C   UNL     1       2.576  -1.937  -0.836  0.00  0.00    +0.024 A 
ATOM      6  C   UNL     1       3.942  -2.146  -0.817  0.00  0.00    +0.002 A 
ATOM      7  C   UNL     1       4.805  -1.116  -1.142  0.00  0.00    +0.001 A 
ATOM      8  C   UNL     1       4.306   0.126  -1.488  0.00  0.00    +0.017 A 
ATOM      9  C   UNL     1       2.940   0.340  -1.516  0.00  0.00    +0.039 A 
ATOM     10 BR   UNL     1       2.257   2.036  -1.997  0.00  0.00    -0.048 Br
ENDBRANCH   1   4
BRANCH   1  12
ATOM     11  C   UNL     1      -0.019   1.526   0.010  0.00  0.00    +0.025 C 
ATOM     12  C   UNL     1       0.002  -0.004   0.002  0.00  0.00    +0.110 C 
ENDBRANCH   1  12
BRANCH   2  13
ATOM     13  C   UNL     1      -1.502  -0.473  -2.354  0.00  0.00    +0.173 C 
BRANCH  13  14
ATOM     14  S   UNL     1      -2.151  -0.866  -4.002  0.00  0.00    -0.075 S 
BRANCH  14  15
ATOM     15  C   UNL     1      -3.879  -0.549  -3.866  0.00  0.00    +0.210 A 
ATOM     16  N   UNL     1      -4.776  -0.701  -4.846  0.00  0.00    -0.188 NA
ATOM     17  H   UNL     1      -6.569   0.283  -2.524  0.00  0.00    +0.192 HD
ATOM     18  C   UNL     1      -5.973  -0.378  -4.405  0.00  0.00    +0.209 A 
ATOM     19  N   UNL     1      -5.855  -0.008  -3.112  0.00  0.00    -0.246 N 
ATOM     20  N   UNL     1      -4.495  -0.132  -2.786  0.00  0.00    -0.144 NA
ATOM     21  N   UNL     1      -7.146  -0.410  -5.137  0.00  0.00    -0.328 N 
ATOM     22  H   UNL     1      -7.131  -0.692  -6.065  0.00  0.00    +0.145 HD
ATOM     23  H   UNL     1      -7.984  -0.152  -4.722  0.00  0.00    +0.145 HD
ENDBRANCH  14  15
ENDBRANCH  13  14
ENDBRANCH   2  13
TORSDOF 5
