REMARK  Name = ZINC00062224
REMARK  5 active torsions:
REMARK  status: ('A' for Active; 'I' for Inactive)
REMARK    1  A    between atoms: C_1  and  O_2
REMARK    2  A    between atoms: O_2  and  C_3
REMARK    3  A    between atoms: C_3  and  C_5
REMARK    4  A    between atoms: C_6  and  N_24
REMARK    5  A    between atoms: C_10  and  C_12
REMARK                            x       y       z     vdW  Elec       q    Type
REMARK                         _______ _______ _______ _____ _____    ______ ____
ROOT
ATOM      1  C   UNL     1      -1.119  -2.157   0.460  0.00  0.00    +0.105 C 
ATOM      2  C   UNL     1       0.140  -2.656   0.573  0.00  0.00    +0.195 C 
ATOM      3  O   UNL     1       1.205  -1.967   0.141  0.00  0.00    -0.446 OA
ATOM      4  C   UNL     1       1.125  -0.632  -0.011  0.00  0.00    +0.115 C 
ATOM      5  C   UNL     1      -0.061  -0.013  -0.157  0.00  0.00    +0.045 C 
ATOM      6  C   UNL     1      -1.347  -0.804  -0.155  0.00  0.00    +0.098 C 
ATOM      7  C   UNL     1      -0.144   1.384  -0.314  0.00  0.00    +0.163 C 
ATOM      8  O   UNL     1      -1.230   1.903  -0.472  0.00  0.00    -0.292 OA
ATOM      9  C   UNL     1       1.090   2.245  -0.295  0.00  0.00    +0.080 C 
ATOM     10  C   UNL     1       2.161   1.556   0.557  0.00  0.00    +0.016 C 
ATOM     11  C   UNL     1       2.412   0.159  -0.015  0.00  0.00    +0.075 C 
ENDROOT
BRANCH   6  12
ATOM     12  C   UNL     1      -1.831  -0.975  -1.572  0.00  0.00    -0.032 A 
ATOM     13  C   UNL     1      -3.068  -0.481  -1.944  0.00  0.00    +0.005 A 
ATOM     14  C   UNL     1      -3.513  -0.636  -3.243  0.00  0.00    +0.003 A 
ATOM     15  C   UNL     1      -2.722  -1.285  -4.172  0.00  0.00    +0.038 A 
ATOM     16  C   UNL     1      -1.484  -1.779  -3.802  0.00  0.00    +0.124 A 
ATOM     17  C   UNL     1      -1.036  -1.619  -2.501  0.00  0.00    +0.043 A 
ATOM     18  F   UNL     1      -0.710  -2.414  -4.709  0.00  0.00    -0.205 F 
ENDBRANCH   6  12
BRANCH   2  19
ATOM     19  N   UNL     1       0.323  -3.889   1.141  0.00  0.00    -0.329 N 
ATOM     20  H   UNL     1       1.206  -4.292   1.150  0.00  0.00    +0.145 HD
ATOM     21  H   UNL     1      -0.429  -4.359   1.534  0.00  0.00    +0.145 HD
ENDBRANCH   2  19
BRANCH   1  22
ATOM     22  C   UNL     1      -2.212  -2.908   0.919  0.00  0.00    +0.341 C 
ATOM     23  O   UNL     1      -2.727  -2.642   1.990  0.00  0.00    -0.245 OA
BRANCH  22  25
ATOM     24  C   UNL     1      -3.807  -4.648   0.702  0.00  0.00    +0.280 C 
ATOM     25  O   UNL     1      -2.693  -3.926   0.173  0.00  0.00    -0.465 OA
ENDBRANCH  22  25
ENDBRANCH   1  22
TORSDOF 4
