REMARK  Name = ZINC39446526
REMARK  5 active torsions:
REMARK  status: ('A' for Active; 'I' for Inactive)
REMARK    1  A    between atoms: C_1  and  C_2
REMARK    2  A    between atoms: C_5  and  N_9
REMARK    3  A    between atoms: C_10  and  C_17
REMARK    4  A    between atoms: C_14  and  S_16
REMARK    5  A    between atoms: C_17  and  C_18
REMARK                            x       y       z     vdW  Elec       q    Type
REMARK                         _______ _______ _______ _____ _____    ______ ____
ROOT
ATOM      1  N   UNL     1       0.059  -4.168  -0.023  0.00  0.00    -0.287 N 
ATOM      2  C   UNL     1      -1.109  -5.066  -0.028  0.00  0.00    +0.162 C 
ATOM      3  N   UNL     1      -0.579  -6.449  -0.036  0.00  0.00    -0.234 NA
ATOM      4  N   UNL     1       0.772  -6.319  -0.603  0.00  0.00    -0.226 NA
ATOM      5  C   UNL     1       1.254  -5.036  -0.034  0.00  0.00    +0.214 C 
ATOM      6  H   UNL     1      -0.544  -6.828   0.899  0.00  0.00    +0.143 HD
ATOM      7  H   UNL     1       1.360  -7.088  -0.316  0.00  0.00    +0.143 HD
ENDROOT
BRANCH   1  12
ATOM      8  C   UNL     1      -0.018   1.503   0.010  0.00  0.00    +0.044 C 
ATOM      9  C   UNL     1       0.002  -0.004   0.002  0.00  0.00    -0.049 A 
ATOM     10  C   UNL     1       0.006  -0.687  -1.200  0.00  0.00    +0.005 A 
ATOM     11  C   UNL     1       0.025  -2.068  -1.212  0.00  0.00    +0.024 A 
ATOM     12  C   UNL     1       0.041  -2.771  -0.014  0.00  0.00    +0.047 A 
ATOM     13  C   UNL     1       0.037  -2.082   1.192  0.00  0.00    +0.039 A 
ATOM     14  C   UNL     1       0.023  -0.700   1.196  0.00  0.00    +0.020 A 
ATOM     15 BR   UNL     1       0.057  -3.034   2.826  0.00  0.00    -0.048 Br
ENDBRANCH   1  12
BRANCH   5  16
ATOM     16  S   UNL     1       1.873  -5.288   1.653  0.00  0.00    -0.139 S 
ATOM     17  H   UNL     1       2.945  -6.084   1.491  0.00  0.00    +0.105 HD
ENDBRANCH   5  16
BRANCH   2  18
ATOM     18  C   UNL     1      -1.954  -4.835   1.227  0.00  0.00    +0.077 C 
BRANCH  18  19
ATOM     19  C   UNL     1      -3.144  -5.759   1.208  0.00  0.00    -0.019 A 
ATOM     20  C   UNL     1      -3.178  -7.146   1.678  0.00  0.00    +0.003 A 
ATOM     21  C   UNL     1      -2.231  -8.002   2.243  0.00  0.00    +0.010 A 
ATOM     22  C   UNL     1      -2.587  -9.277   2.583  0.00  0.00    +0.001 A 
ATOM     23  C   UNL     1      -3.882  -9.728   2.371  0.00  0.00    +0.002 A 
ATOM     24  C   UNL     1      -4.832  -8.899   1.815  0.00  0.00    +0.026 A 
ATOM     25  C   UNL     1      -4.492  -7.598   1.461  0.00  0.00    +0.047 A 
ATOM     26  N   UNL     1      -5.194  -6.553   0.902  0.00  0.00    -0.360 N 
ATOM     27  C   UNL     1      -4.376  -5.465   0.764  0.00  0.00    +0.087 A 
ATOM     28  H   UNL     1      -6.129  -6.584   0.647  0.00  0.00    +0.165 HD
ENDBRANCH  18  19
ENDBRANCH   2  18
TORSDOF 4
