REMARK  Name = ZINC36794784
REMARK  9 active torsions:
REMARK  status: ('A' for Active; 'I' for Inactive)
REMARK    1  A    between atoms: C_1  and  C_2
REMARK    2  A    between atoms: C_2  and  O_3
REMARK    3  A    between atoms: O_3  and  C_4
REMARK    4  A    between atoms: C_11  and  C_18
REMARK    5  A    between atoms: C_13  and  O_14
REMARK    6  A    between atoms: C_18  and  N_19
REMARK    7  A    between atoms: C_22  and  C_26
REMARK    8  A    between atoms: C_22  and  C_27
REMARK    9  A    between atoms: C_30  and  N_33
REMARK                            x       y       z     vdW  Elec       q    Type
REMARK                         _______ _______ _______ _____ _____    ______ ____
ROOT
ATOM      1  C   UNL     1       0.979  -1.828  -1.233  0.00  0.00    +0.405 C 
ATOM      2  O   UNL     1       0.915  -2.572  -0.268  0.00  0.00    -0.226 OA
ATOM      3  N   UNL     1       1.385  -2.296  -2.405  0.00  0.00    -0.251 N 
ATOM      4  C   UNL     1       1.593  -3.629  -2.570  0.00  0.00    +0.040 A 
ATOM      5  C   UNL     1       2.338  -4.090  -3.671  0.00  0.00    +0.024 A 
ATOM      6  C   UNL     1       2.552  -5.420  -3.846  0.00  0.00    +0.014 A 
ATOM      7  C   UNL     1       2.028  -6.343  -2.924  0.00  0.00    +0.022 A 
ATOM      8  C   UNL     1       2.240  -7.728  -3.088  0.00  0.00    -0.012 A 
ATOM      9  C   UNL     1       1.705  -8.593  -2.154  0.00  0.00    +0.093 A 
ATOM     10  C   UNL     1       0.978  -8.092  -1.084  0.00  0.00    +0.285 A 
ATOM     11  O   UNL     1       0.779  -6.778  -0.932  0.00  0.00    -0.425 OA
ATOM     12  C   UNL     1       1.279  -5.889  -1.815  0.00  0.00    +0.141 A 
ATOM     13  C   UNL     1       1.071  -4.533  -1.642  0.00  0.00    +0.070 A 
ATOM     14  H   UNL     1       1.535  -1.686  -3.145  0.00  0.00    +0.158 HD
ENDROOT
BRANCH  10  15
ATOM     15  O   UNL     1       0.462  -8.947  -0.180  0.00  0.00    -0.480 OA
ATOM     16  H   UNL     1      -0.030  -8.516   0.532  0.00  0.00    +0.295 HD
ENDBRANCH  10  15
BRANCH   1  17
ATOM     17  O   UNL     1       0.634  -0.527  -1.107  0.00  0.00    -0.450 OA
BRANCH  17  19
ATOM     18  C   UNL     1      -0.140   1.398   0.132  0.00  0.00    +0.048 C 
ATOM     19  C   UNL     1       0.205  -0.091   0.185  0.00  0.00    +0.230 C 
ENDBRANCH  17  19
ENDBRANCH   1  17
BRANCH   8  20
ATOM     20  C   UNL     1       3.033  -8.252  -4.258  0.00  0.00    +0.154 C 
BRANCH  20  21
ATOM     21  N   UNL     1       4.428  -8.445  -3.854  0.00  0.00    -0.220 N 
ATOM     22  C   UNL     1       5.383  -7.498  -3.950  0.00  0.00    +0.251 C 
ATOM     23  O   UNL     1       5.254  -6.369  -4.370  0.00  0.00    -0.272 OA
ATOM     24  C   UNL     1       6.651  -8.140  -3.422  0.00  0.00    +0.135 C 
ATOM     25  N   UNL     1       6.224  -9.501  -3.056  0.00  0.00    -0.281 N 
ATOM     26  C   UNL     1       4.911  -9.582  -3.340  0.00  0.00    +0.310 C 
ATOM     27  O   UNL     1       4.240 -10.578  -3.153  0.00  0.00    -0.252 OA
ATOM     28  C   UNL     1       7.163  -7.387  -2.193  0.00  0.00    +0.047 C 
ATOM     29  H   UNL     1       6.780 -10.201  -2.680  0.00  0.00    +0.152 HD
BRANCH  24  30
ATOM     30  C   UNL     1       7.708  -8.186  -4.495  0.00  0.00    -0.015 A 
ATOM     31  C   UNL     1       7.742  -7.211  -5.474  0.00  0.00    +0.008 A 
ATOM     32  C   UNL     1       8.712  -7.254  -6.459  0.00  0.00    +0.033 A 
ATOM     33  C   UNL     1       9.647  -8.272  -6.464  0.00  0.00    +0.126 A 
ATOM     34  C   UNL     1       9.613  -9.247  -5.484  0.00  0.00    +0.033 A 
ATOM     35  C   UNL     1       8.646  -9.201  -4.497  0.00  0.00    +0.008 A 
BRANCH  33  36
ATOM     36  N   UNL     1      10.684  -8.318  -7.519  0.00  0.00    +0.056 N 
ATOM     37  O   UNL     1      10.714  -7.466  -8.376  0.00  0.00    -0.126 OA
ATOM     38  O   UNL     1      11.502  -9.209  -7.523  0.00  0.00    -0.126 OA
ENDBRANCH  33  36
ENDBRANCH  24  30
ENDBRANCH  20  21
ENDBRANCH   8  20
TORSDOF 7
