REMARK  Name = ZINC12759607
REMARK  10 active torsions:
REMARK  status: ('A' for Active; 'I' for Inactive)
REMARK    1  A    between atoms: C_1  and  C_2
REMARK    2  A    between atoms: C_5  and  C_8
REMARK    3  A    between atoms: C_10  and  C_13
REMARK    4  A    between atoms: C_13  and  N_14
REMARK    5  A    between atoms: C_20  and  C_22
REMARK    6  A    between atoms: C_22  and  C_24
REMARK    7  A    between atoms: C_22  and  N_27
REMARK    8  A    between atoms: C_24  and  C_25
REMARK    9  A    between atoms: C_24  and  C_26
REMARK   10  A    between atoms: C_28  and  C_30
REMARK                            x       y       z     vdW  Elec       q    Type
REMARK                         _______ _______ _______ _____ _____    ______ ____
ROOT
ATOM      1  N   UNL     1       2.262   5.765  -0.226  0.00  0.00    -0.291 NA
ATOM      2  C   UNL     1       0.884   6.274  -0.260  0.00  0.00    +0.104 C 
ATOM      3  C   UNL     1       0.139   5.804   0.994  0.00  0.00    +0.123 C 
ATOM      4  N   UNL     1       0.259   4.341   1.087  0.00  0.00    -0.298 N 
ATOM      5  C   UNL     1       1.601   3.746   0.997  0.00  0.00    +0.123 C 
ATOM      6  C   UNL     1       2.288   4.297  -0.263  0.00  0.00    +0.104 C 
ATOM      7  C   UNL     1      -0.831   3.567   1.257  0.00  0.00    +0.236 C 
ATOM      8  O   UNL     1      -1.918   4.079   1.427  0.00  0.00    -0.274 OA
ENDROOT
BRANCH   1   9
ATOM      9  C   UNL     1       3.060   6.333  -1.321  0.00  0.00    +0.183 C 
BRANCH   9  12
ATOM     10  C   UNL     1       5.940   4.258  -1.885  0.00  0.00    +0.202 A 
ATOM     11  N   UNL     1       4.639   4.545  -2.120  0.00  0.00    -0.190 NA
ATOM     12  C   UNL     1       4.381   5.613  -1.406  0.00  0.00    +0.242 A 
ATOM     13  O   UNL     1       5.510   5.946  -0.772  0.00  0.00    -0.336 OA
ATOM     14  N   UNL     1       6.390   5.160  -1.051  0.00  0.00    -0.056 NA
BRANCH  10  19
ATOM     15  C   UNL     1       8.935  -0.117  -4.135  0.00  0.00    +0.044 C 
ATOM     16  C   UNL     1       8.151   1.028  -3.546  0.00  0.00    -0.050 A 
ATOM     17  C   UNL     1       8.767   1.907  -2.674  0.00  0.00    +0.004 A 
ATOM     18  C   UNL     1       8.053   2.958  -2.132  0.00  0.00    +0.012 A 
ATOM     19  C   UNL     1       6.712   3.131  -2.465  0.00  0.00    +0.022 A 
ATOM     20  C   UNL     1       6.096   2.240  -3.341  0.00  0.00    +0.012 A 
ATOM     21  C   UNL     1       6.820   1.195  -3.881  0.00  0.00    +0.004 A 
ENDBRANCH  10  19
ENDBRANCH   9  12
ENDBRANCH   1   9
BRANCH   7  22
ATOM     22  C   UNL     1      -0.700   2.066   1.237  0.00  0.00    +0.162 C 
BRANCH  22  23
ATOM     23  N   UNL     1      -1.654   1.479   2.182  0.00  0.00    -0.300 N 
ATOM     24  C   UNL     1      -1.412   0.266   2.717  0.00  0.00    +0.250 C 
ATOM     25  O   UNL     1      -0.403  -0.341   2.416  0.00  0.00    -0.270 OA
ATOM     26  H   UNL     1      -2.567   2.029   2.454  0.00  0.00    +0.150 HD
BRANCH  24  27
ATOM     27  C   UNL     1      -2.372  -0.325   3.669  0.00  0.00    +0.107 A 
ATOM     28  C   UNL     1      -3.422  -1.124   3.204  0.00  0.00    +0.138 A 
ATOM     29  C   UNL     1      -4.314  -1.678   4.103  0.00  0.00    +0.039 A 
ATOM     30  C   UNL     1      -4.178  -1.435   5.457  0.00  0.00    +0.006 A 
ATOM     31  C   UNL     1      -3.146  -0.641   5.925  0.00  0.00    +0.039 A 
ATOM     32  C   UNL     1      -2.242  -0.084   5.041  0.00  0.00    +0.138 A 
ATOM     33  F   UNL     1      -1.235   0.691   5.500  0.00  0.00    -0.205 F 
ATOM     34  F   UNL     1      -3.561  -1.358   1.881  0.00  0.00    -0.205 F 
ENDBRANCH  24  27
ENDBRANCH  22  23
BRANCH  22  35
ATOM     35  C   UNL     1      -0.995   1.548  -0.173  0.00  0.00    +0.012 C 
ATOM     36  C   UNL     1      -0.777   0.034  -0.215  0.00  0.00    +0.009 C 
ATOM     37  C   UNL     1      -0.056   2.226  -1.172  0.00  0.00    +0.009 C 
ENDBRANCH  22  35
ENDBRANCH   7  22
TORSDOF 7
