REMARK  Name = ZINC04035982
REMARK  4 active torsions:
REMARK  status: ('A' for Active; 'I' for Inactive)
REMARK    1  A    between atoms: C_3  and  N_24
REMARK    2  A    between atoms: C_5  and  S_7
REMARK    3  A    between atoms: S_7  and  N_10
REMARK    4  A    between atoms: N_10  and  C_11
REMARK                            x       y       z     vdW  Elec       q    Type
REMARK                         _______ _______ _______ _____ _____    ______ ____
ROOT
ATOM      1  N   UNL     1      -0.096   6.100  -1.547  0.00  0.00    -0.216 N 
ATOM      2  H   UNL     1       0.655   6.595  -1.909  0.00  0.00    +0.174 HD
ENDROOT
BRANCH   1   3
ATOM      3  C   UNL     1      -1.198   5.807  -2.357  0.00  0.00    +0.049 A 
ATOM      4  C   UNL     1      -2.490   5.995  -1.870  0.00  0.00    +0.028 A 
ATOM      5  C   UNL     1      -3.584   5.712  -2.657  0.00  0.00    +0.049 A 
ATOM      6  C   UNL     1      -3.408   5.235  -3.949  0.00  0.00    +0.136 A 
ATOM      7  C   UNL     1      -2.106   5.043  -4.445  0.00  0.00    +0.025 A 
ATOM      8  C   UNL     1      -1.003   5.338  -3.644  0.00  0.00    +0.036 A 
ATOM      9  C   UNL     1      -2.283   4.542  -5.806  0.00  0.00    +0.001 A 
ATOM     10  C   UNL     1      -3.607   4.471  -6.023  0.00  0.00    +0.109 A 
ATOM     11  O   UNL     1      -4.268   4.879  -4.928  0.00  0.00    -0.459 OA
ATOM     12  C   UNL     1      -4.215   3.996  -7.323  0.00  0.00    +0.075 C 
ATOM     13  C   UNL     1      -3.136   4.039  -8.411  0.00  0.00    +0.008 C 
ATOM     14  C   UNL     1      -1.878   3.324  -7.912  0.00  0.00    +0.005 C 
ATOM     15  C   UNL     1      -1.223   4.162  -6.806  0.00  0.00    +0.039 C 
ENDBRANCH   1   3
BRANCH   1  16
ATOM     16  S   UNL     1      -0.074   5.602   0.033  0.00  0.00    +0.072 S 
ATOM     17  O   UNL     1      -1.319   5.988   0.597  0.00  0.00    -0.150 OA
ATOM     18  O   UNL     1       1.171   6.022   0.574  0.00  0.00    -0.150 OA
BRANCH  16  23
ATOM     19  C   UNL     1       1.175   1.783   0.000  0.00  0.00    +0.004 A 
ATOM     20  C   UNL     1      -0.013   1.076   0.008  0.00  0.00    +0.033 A 
ATOM     21  C   UNL     1      -1.219   1.750   0.017  0.00  0.00    +0.128 A 
ATOM     22  C   UNL     1      -1.238   3.133   0.030  0.00  0.00    +0.061 A 
ATOM     23  C   UNL     1      -0.050   3.840   0.023  0.00  0.00    +0.111 A 
ATOM     24  C   UNL     1       1.157   3.165   0.008  0.00  0.00    +0.029 A 
BRANCH  21  25
ATOM     25  N   UNL     1      -2.490   0.993   0.019  0.00  0.00    +0.056 N 
ATOM     26  O   UNL     1      -2.474  -0.225   0.013  0.00  0.00    -0.126 OA
ATOM     27  O   UNL     1      -3.554   1.588   0.028  0.00  0.00    -0.126 OA
ENDBRANCH  21  25
ENDBRANCH  16  23
ENDBRANCH   1  16
TORSDOF 4
