REMARK  Name = ZINC04322286
REMARK  9 active torsions:
REMARK  status: ('A' for Active; 'I' for Inactive)
REMARK    1  A    between atoms: C_1  and  C_2
REMARK    2  A    between atoms: C_2  and  N_13
REMARK    3  A    between atoms: C_10  and  C_11
REMARK    4  A    between atoms: C_10  and  C_12
REMARK    5  A    between atoms: N_13  and  C_14
REMARK    6  A    between atoms: C_14  and  N_16
REMARK    7  A    between atoms: N_16  and  N_17
REMARK    8  A    between atoms: C_18  and  C_19
REMARK    9  A    between atoms: C_24  and  O_25
REMARK                            x       y       z     vdW  Elec       q    Type
REMARK                         _______ _______ _______ _____ _____    ______ ____
ROOT
ATOM      1  C   UNL     1      -1.805  -0.923  -1.431  0.00  0.00    +0.150 C 
ATOM      2  S   UNL     1      -1.231  -0.012  -2.762  0.00  0.00    -0.017 S 
ENDROOT
BRANCH   1   3
ATOM      3  N   UNL     1      -1.120  -0.923  -0.270  0.00  0.00    -0.319 N 
ATOM      4  H   UNL     1      -1.480  -1.382   0.505  0.00  0.00    +0.148 HD
BRANCH   3   6
ATOM      5  C   UNL     1      -0.027   1.278  -0.338  0.00  0.00    +0.032 C 
ATOM      6  C   UNL     1       0.168  -0.231  -0.178  0.00  0.00    +0.039 C 
ATOM      7  C   UNL     1       1.155  -0.769  -1.259  0.00  0.00    +0.013 C 
ATOM      8  C   UNL     1       1.055  -2.320  -1.141  0.00  0.00    +0.006 C 
ATOM      9  C   UNL     1       1.732  -2.654   0.208  0.00  0.00    +0.004 C 
ATOM     10  C   UNL     1       2.178  -1.273   0.778  0.00  0.00    -0.003 C 
ATOM     11  C   UNL     1       2.531  -0.492  -0.558  0.00  0.00    +0.009 C 
ATOM     12  C   UNL     1       0.855  -0.546   1.170  0.00  0.00    -0.011 C 
ATOM     13  C   UNL     1       1.134   0.746   1.941  0.00  0.00    +0.013 C 
ATOM     14  C   UNL     1      -0.015  -1.489   2.004  0.00  0.00    +0.013 C 
ENDBRANCH   3   6
ENDBRANCH   1   3
BRANCH   1  15
ATOM     15  N   UNL     1      -2.941  -1.639  -1.544  0.00  0.00    -0.218 N 
ATOM     16  H   UNL     1      -3.433  -1.639  -2.379  0.00  0.00    +0.176 HD
BRANCH  15  17
ATOM     17  N   UNL     1      -3.410  -2.385  -0.454  0.00  0.00    -0.188 NA
ATOM     18  C   UNL     1      -4.503  -3.075  -0.563  0.00  0.00    +0.142 C 
BRANCH  18  19
ATOM     19  C   UNL     1      -4.997  -3.859   0.583  0.00  0.00    +0.039 A 
ATOM     20  C   UNL     1      -6.171  -4.608   0.469  0.00  0.00    +0.033 A 
ATOM     21  C   UNL     1      -6.628  -5.340   1.545  0.00  0.00    +0.043 A 
ATOM     22  C   UNL     1      -5.927  -5.336   2.740  0.00  0.00    +0.043 A 
ATOM     23  C   UNL     1      -4.764  -4.598   2.866  0.00  0.00    +0.084 A 
ATOM     24  C   UNL     1      -4.288  -3.862   1.792  0.00  0.00    +0.144 A 
ATOM     25 CL   UNL     1      -3.894  -4.600   4.369  0.00  0.00    -0.080 Cl
ATOM     26 CL   UNL     1      -8.086  -6.270   1.402  0.00  0.00    -0.083 Cl
BRANCH  24  27
ATOM     27  O   UNL     1      -3.143  -3.142   1.913  0.00  0.00    -0.505 OA
ATOM     28  H   UNL     1      -3.279  -2.236   2.224  0.00  0.00    +0.292 HD
ENDBRANCH  24  27
ENDBRANCH  18  19
ENDBRANCH  15  17
ENDBRANCH   1  15
TORSDOF 6
