REMARK  Name = ZINC49559994
REMARK  3 active torsions:
REMARK  status: ('A' for Active; 'I' for Inactive)
REMARK    1  A    between atoms: C_1  and  C_2
REMARK    2  A    between atoms: C_3  and  C_20
REMARK    3  A    between atoms: C_7  and  C_8
REMARK                            x       y       z     vdW  Elec       q    Type
REMARK                         _______ _______ _______ _____ _____    ______ ____
ROOT
ATOM      1  C   UNL     1      -0.018   1.503   0.010  0.00  0.00    +0.047 C 
ATOM      2  C   UNL     1       0.002  -0.004   0.002  0.00  0.00    -0.007 A 
ATOM      3  C   UNL     1       0.006  -0.712  -1.188  0.00  0.00    +0.065 A 
ATOM      4  N   UNL     1       0.024  -2.031  -1.175  0.00  0.00    -0.152 NA
ATOM      5  N   UNL     1       0.039  -2.712  -0.089  0.00  0.00    -0.132 NA
ATOM      6  C   UNL     1       0.037  -2.138   1.106  0.00  0.00    +0.165 A 
ATOM      7  C   UNL     1       0.023  -0.733   1.198  0.00  0.00    +0.098 A 
ATOM      8  N   UNL     1       0.053  -2.914   2.254  0.00  0.00    -0.276 N 
ATOM      9  C   UNL     1       0.071  -4.298   2.156  0.00  0.00    +0.164 A 
ATOM     10  N   UNL     1       0.082  -5.041   1.071  0.00  0.00    -0.229 NA
ATOM     11  C   UNL     1       0.100  -6.370   1.129  0.00  0.00    +0.054 A 
ATOM     12  C   UNL     1       0.106  -6.887   2.384  0.00  0.00    +0.014 A 
ATOM     13  S   UNL     1       0.093  -5.436   3.399  0.00  0.00    -0.057 S 
ATOM     14  C   UNL     1       0.123  -8.325   2.777  0.00  0.00    +0.044 C 
ATOM     15  C   UNL     1      -0.236  -9.165   1.541  0.00  0.00    +0.006 C 
ATOM     16  C   UNL     1       0.593  -8.673   0.352  0.00  0.00    +0.006 C 
ATOM     17  C   UNL     1       0.115  -7.287  -0.086  0.00  0.00    +0.056 C 
ATOM     18  C   UNL     1      -0.010   0.026  -2.502  0.00  0.00    +0.068 C 
ATOM     19  H   UNL     1       0.052  -2.489   3.126  0.00  0.00    +0.156 HD
ENDROOT
BRANCH   7  20
ATOM     20  C   UNL     1       0.026  -0.073   2.469  0.00  0.00    +0.103 C 
ATOM     21  N   UNL     1       0.028   0.450   3.477  0.00  0.00    -0.191 NA
ENDBRANCH   7  20
TORSDOF 1
