REMARK  Name = ZINC40256671
REMARK  4 active torsions:
REMARK  status: ('A' for Active; 'I' for Inactive)
REMARK    1  A    between atoms: C_6  and  C_7
REMARK    2  A    between atoms: C_7  and  C_9
REMARK    3  A    between atoms: C_7  and  O_17
REMARK    4  A    between atoms: C_12  and  N_14
REMARK                            x       y       z     vdW  Elec       q    Type
REMARK                         _______ _______ _______ _____ _____    ______ ____
ROOT
ATOM      1  C   UNL     1      -1.292  -0.776   0.011  0.00  0.00    +0.210 C 
ENDROOT
BRANCH   1   7
ATOM      2  C   UNL     1      -0.017   1.378   0.010  0.00  0.00    +0.007 A 
ATOM      3  C   UNL     1       1.171   2.083   0.002  0.00  0.00    +0.004 A 
ATOM      4  C   UNL     1       2.381   1.411  -0.014  0.00  0.00    -0.044 A 
ATOM      5  C   UNL     1       2.400   0.028  -0.021  0.00  0.00    -0.044 A 
ATOM      6  C   UNL     1       1.208  -0.677  -0.014  0.00  0.00    +0.010 A 
ATOM      7  C   UNL     1       0.002  -0.004   0.002  0.00  0.00    -0.012 A 
ATOM      8  C   UNL     1       3.831  -0.464  -0.038  0.00  0.00    +0.036 C 
ATOM      9  C   UNL     1       4.671   0.753  -0.480  0.00  0.00    +0.009 C 
ATOM     10  C   UNL     1       3.799   1.942  -0.025  0.00  0.00    +0.036 C 
ENDBRANCH   1   7
BRANCH   1  11
ATOM     11  C   UNL     1      -1.801  -0.919  -1.400  0.00  0.00    +0.141 A 
ATOM     12  C   UNL     1      -1.674  -2.011  -2.175  0.00  0.00    +0.050 A 
ATOM     13  C   UNL     1      -2.291  -1.711  -3.412  0.00  0.00    +0.076 A 
ATOM     14  C   UNL     1      -2.758  -0.453  -3.318  0.00  0.00    +0.280 A 
ATOM     15  O   UNL     1      -2.463   0.020  -2.096  0.00  0.00    -0.436 OA
BRANCH  14  16
ATOM     16  N   UNL     1      -3.480   0.284  -4.380  0.00  0.00    +0.093 N 
ATOM     17  O   UNL     1      -3.694  -0.247  -5.445  0.00  0.00    -0.123 OA
ATOM     18  O   UNL     1      -3.854   1.416  -4.183  0.00  0.00    -0.123 OA
ENDBRANCH  14  16
ENDBRANCH   1  11
BRANCH   1  19
ATOM     19  O   UNL     1      -2.259  -0.076   0.797  0.00  0.00    -0.379 OA
ATOM     20  H   UNL     1      -2.459   0.813   0.474  0.00  0.00    +0.211 HD
ENDBRANCH   1  19
TORSDOF 4
