REMARK  Name = ZINC12391564
REMARK  4 active torsions:
REMARK  status: ('A' for Active; 'I' for Inactive)
REMARK    1  A    between atoms: C_1  and  O_2
REMARK    2  A    between atoms: O_2  and  C_3
REMARK    3  A    between atoms: C_8  and  C_9
REMARK    4  A    between atoms: C_14  and  C_19
REMARK                            x       y       z     vdW  Elec       q    Type
REMARK                         _______ _______ _______ _____ _____    ______ ____
ROOT
ATOM      1  C   UNL     1      -2.178   3.455  -2.309  0.00  0.00    +0.141 C 
ATOM      2  C   UNL     1      -1.380   2.712  -1.259  0.00  0.00    +0.037 C 
ATOM      3  C   UNL     1      -0.769   1.520  -1.318  0.00  0.00    +0.019 C 
ATOM      4  C   UNL     1      -0.042   0.950  -0.111  0.00  0.00    +0.060 C 
ATOM      5  C   UNL     1      -0.747   1.389   1.172  0.00  0.00    +0.039 C 
ATOM      6  C   UNL     1      -0.699   2.922   1.209  0.00  0.00    +0.088 C 
ATOM      7  C   UNL     1      -1.321   3.451  -0.043  0.00  0.00    +0.163 C 
ATOM      8  O   UNL     1      -1.800   4.568  -0.023  0.00  0.00    -0.292 OA
ATOM      9  N   UNL     1      -0.707   0.723  -2.424  0.00  0.00    -0.297 N 
ATOM     10  C   UNL     1      -1.798   0.501  -3.252  0.00  0.00    +0.208 A 
ATOM     11  C   UNL     1      -2.442   1.623  -3.921  0.00  0.00    +0.205 A 
ATOM     12  N   UNL     1      -3.357   1.165  -4.716  0.00  0.00    -0.032 NA
ATOM     13  O   UNL     1      -3.383  -0.248  -4.561  0.00  0.00    -0.239 OA
ATOM     14  N   UNL     1      -2.378  -0.596  -3.618  0.00  0.00    -0.032 NA
ATOM     15  N   UNL     1      -2.065   2.940  -3.662  0.00  0.00    -0.312 N 
ATOM     16  H   UNL     1       0.135   0.293  -2.640  0.00  0.00    +0.153 HD
ATOM     17  H   UNL     1      -1.731   3.505  -4.376  0.00  0.00    +0.149 HD
ENDROOT
BRANCH   1  23
ATOM     18  C   UNL     1      -4.529   4.311  -2.481  0.00  0.00    +0.125 A 
ATOM     19  C   UNL     1      -5.867   4.274  -2.115  0.00  0.00    +0.046 A 
ATOM     20  C   UNL     1      -6.300   3.356  -1.178  0.00  0.00    +0.004 A 
ATOM     21  C   UNL     1      -5.402   2.472  -0.607  0.00  0.00    +0.001 A 
ATOM     22  C   UNL     1      -4.069   2.504  -0.974  0.00  0.00    +0.009 A 
ATOM     23  C   UNL     1      -3.631   3.420  -1.911  0.00  0.00    +0.019 A 
BRANCH  18  25
ATOM     24  C   UNL     1      -5.079   6.103  -3.943  0.00  0.00    +0.277 C 
ATOM     25  O   UNL     1      -4.099   5.217  -3.398  0.00  0.00    -0.495 OA
ENDBRANCH  18  25
ENDBRANCH   1  23
BRANCH   5  26
ATOM     26  C   UNL     1      -0.030   0.825   2.371  0.00  0.00    -0.006 A 
ATOM     27  C   UNL     1      -0.501  -0.006   3.334  0.00  0.00    +0.011 A 
ATOM     28  C   UNL     1       0.347  -0.400   4.352  0.00  0.00    +0.008 A 
ATOM     29  C   UNL     1       1.623   0.056   4.358  0.00  0.00    +0.045 A 
ATOM     30  S   UNL     1       1.661   1.069   2.889  0.00  0.00    -0.101 S 
ENDBRANCH   5  26
TORSDOF 3
