REMARK  Name = ZINC09644419
REMARK  8 active torsions:
REMARK  status: ('A' for Active; 'I' for Inactive)
REMARK    1  A    between atoms: C_1  and  C_2
REMARK    2  A    between atoms: C_2  and  O_3
REMARK    3  A    between atoms: O_3  and  C_4
REMARK    4  A    between atoms: C_4  and  C_6
REMARK    5  A    between atoms: C_7  and  C_15
REMARK    6  A    between atoms: C_15  and  S_16
REMARK    7  A    between atoms: S_16  and  C_17
REMARK    8  A    between atoms: N_24  and  C_27
REMARK                            x       y       z     vdW  Elec       q    Type
REMARK                         _______ _______ _______ _____ _____    ______ ____
ROOT
ATOM      1  S   UNL     1      -0.536  -5.300  -2.456  0.00  0.00    -0.081 S 
ENDROOT
BRANCH   1   2
ATOM      2  C   UNL     1      -0.938  -6.649  -1.395  0.00  0.00    +0.194 A 
ATOM      3  N   UNL     1      -0.043  -7.044  -0.495  0.00  0.00    -0.183 NA
ATOM      4  C   UNL     1      -0.296  -8.053   0.326  0.00  0.00    +0.285 A 
ATOM      5  O   UNL     1       0.622  -8.449   1.239  0.00  0.00    -0.265 OA
ATOM      6  C   UNL     1      -1.539  -8.704   0.228  0.00  0.00    +0.105 A 
ATOM      7  C   UNL     1      -2.151  -9.781   0.906  0.00  0.00    +0.150 A 
ATOM      8  N   UNL     1      -3.336  -9.971   0.400  0.00  0.00    -0.172 NA
ATOM      9  N   UNL     1      -3.566  -9.043  -0.624  0.00  0.00    -0.214 N 
ATOM     10  C   UNL     1      -2.458  -8.252  -0.740  0.00  0.00    +0.171 A 
ATOM     11  N   UNL     1      -2.121  -7.227  -1.519  0.00  0.00    -0.202 NA
BRANCH   9  12
ATOM     12  C   UNL     1      -4.730  -8.944  -1.396  0.00  0.00    +0.068 A 
ATOM     13  C   UNL     1      -5.179  -7.701  -1.822  0.00  0.00    +0.028 A 
ATOM     14  C   UNL     1      -6.328  -7.607  -2.583  0.00  0.00    +0.002 A 
ATOM     15  C   UNL     1      -7.030  -8.749  -2.921  0.00  0.00    +0.000 A 
ATOM     16  C   UNL     1      -6.586  -9.988  -2.498  0.00  0.00    +0.002 A 
ATOM     17  C   UNL     1      -5.435 -10.090  -1.742  0.00  0.00    +0.028 A 
ENDBRANCH   9  12
ENDBRANCH   1   2
BRANCH   1  18
ATOM     18  C   UNL     1       1.140  -4.827  -1.948  0.00  0.00    +0.117 C 
BRANCH  18  20
ATOM     19  C   UNL     1       1.450  -2.345  -2.519  0.00  0.00    +0.217 A 
ATOM     20  C   UNL     1       1.610  -3.668  -2.789  0.00  0.00    +0.023 A 
ATOM     21  C   UNL     1       2.331  -3.738  -4.059  0.00  0.00    +0.025 A 
ATOM     22  C   UNL     1       2.792  -4.785  -4.861  0.00  0.00    +0.012 A 
ATOM     23  C   UNL     1       3.450  -4.508  -6.025  0.00  0.00    +0.001 A 
ATOM     24  C   UNL     1       3.665  -3.193  -6.415  0.00  0.00    +0.004 A 
ATOM     25  C   UNL     1       3.219  -2.145  -5.639  0.00  0.00    +0.047 A 
ATOM     26  C   UNL     1       2.546  -2.403  -4.450  0.00  0.00    +0.136 A 
ATOM     27  O   UNL     1       2.001  -1.609  -3.508  0.00  0.00    -0.448 OA
BRANCH  19  28
ATOM     28  C   UNL     1       0.776  -1.800  -1.335  0.00  0.00    +0.375 C 
ATOM     29  O   UNL     1       0.312  -2.551  -0.499  0.00  0.00    -0.241 OA
BRANCH  28  30
ATOM     30  O   UNL     1       0.671  -0.465  -1.174  0.00  0.00    -0.459 OA
BRANCH  30  32
ATOM     31  C   UNL     1      -0.019   1.526   0.010  0.00  0.00    +0.048 C 
ATOM     32  C   UNL     1       0.002  -0.004   0.002  0.00  0.00    +0.229 C 
ENDBRANCH  30  32
ENDBRANCH  28  30
ENDBRANCH  19  28
ENDBRANCH  18  20
ENDBRANCH   1  18
TORSDOF 7
