REMARK  Name = ZINC40127162
REMARK  12 active torsions:
REMARK  status: ('A' for Active; 'I' for Inactive)
REMARK    1  A    between atoms: C_1  and  C_2
REMARK    2  A    between atoms: C_2  and  O_3
REMARK    3  A    between atoms: O_3  and  C_4
REMARK    4  A    between atoms: C_6  and  C_14
REMARK    5  A    between atoms: C_9  and  O_10
REMARK    6  A    between atoms: O_10  and  C_11
REMARK    7  A    between atoms: C_11  and  C_12
REMARK    8  A    between atoms: C_16  and  C_22
REMARK    9  A    between atoms: C_22  and  C_24
REMARK   10  A    between atoms: C_27  and  O_30
REMARK   11  A    between atoms: O_30  and  C_31
REMARK   12  A    between atoms: C_31  and  C_32
REMARK                            x       y       z     vdW  Elec       q    Type
REMARK                         _______ _______ _______ _____ _____    ______ ____
ROOT
ATOM      1  C   UNL     1      -0.369  -5.008  -0.236  0.00  0.00    +0.142 C 
ATOM      2  C   UNL     1      -1.833  -5.344  -0.068  0.00  0.00    +0.076 C 
ATOM      3  C   UNL     1      -1.929  -6.693  -0.095  0.00  0.00    +0.249 C 
ATOM      4  C   UNL     1      -0.581  -7.273  -0.276  0.00  0.00    +0.285 C 
ATOM      5  O   UNL     1      -0.336  -8.461  -0.340  0.00  0.00    -0.267 OA
ATOM      6  N   UNL     1       0.335  -6.289  -0.359  0.00  0.00    -0.298 N 
ATOM      7  O   UNL     1      -3.076  -7.400   0.024  0.00  0.00    -0.282 OA
ATOM      8  H   UNL     1       1.290  -6.407  -0.479  0.00  0.00    +0.150 HD
ENDROOT
BRANCH   1  11
ATOM      9  C   UNL     1       0.792  -2.196   2.004  0.00  0.00    +0.162 A 
ATOM     10  C   UNL     1       0.332  -2.889   0.896  0.00  0.00    +0.055 A 
ATOM     11  C   UNL     1       0.132  -4.255   0.970  0.00  0.00    -0.019 A 
ATOM     12  C   UNL     1       0.389  -4.932   2.147  0.00  0.00    +0.009 A 
ATOM     13  C   UNL     1       0.848  -4.246   3.256  0.00  0.00    +0.050 A 
ATOM     14  C   UNL     1       1.057  -2.878   3.187  0.00  0.00    +0.162 A 
BRANCH   9  15
ATOM     15  O   UNL     1       0.990  -0.852   1.933  0.00  0.00    -0.489 OA
BRANCH  15  17
ATOM     16  C   UNL     1       0.787   1.310   0.872  0.00  0.00    +0.048 C 
ATOM     17  C   UNL     1       0.595  -0.201   0.724  0.00  0.00    +0.226 C 
ENDBRANCH  15  17
ENDBRANCH   9  15
BRANCH  14  18
ATOM     18  O   UNL     1       1.514  -2.203   4.276  0.00  0.00    -0.484 OA
BRANCH  18  19
ATOM     19  C   UNL     1       1.764  -2.969   5.456  0.00  0.00    +0.256 C 
BRANCH  19  20
ATOM     20  C   UNL     1       2.261  -2.058   6.549  0.00  0.00    +0.006 C 
ATOM     21  C   UNL     1       1.777  -2.166   7.762  0.00  0.00    +0.007 C 
ENDBRANCH  19  20
ENDBRANCH  18  19
ENDBRANCH  14  18
ENDBRANCH   1  11
BRANCH   2  22
ATOM     22  C   UNL     1      -2.936  -4.391   0.093  0.00  0.00    +0.195 C 
ATOM     23  O   UNL     1      -3.559  -4.354   1.137  0.00  0.00    -0.287 OA
BRANCH  22  24
ATOM     24  C   UNL     1      -3.290  -3.478  -1.011  0.00  0.00    +0.022 A 
ATOM     25  C   UNL     1      -2.628  -3.573  -2.239  0.00  0.00    +0.015 A 
ATOM     26  C   UNL     1      -2.961  -2.720  -3.267  0.00  0.00    +0.046 A 
ATOM     27  C   UNL     1      -3.954  -1.763  -3.084  0.00  0.00    +0.121 A 
ATOM     28  C   UNL     1      -4.614  -1.665  -1.864  0.00  0.00    +0.046 A 
ATOM     29  C   UNL     1      -4.292  -2.519  -0.834  0.00  0.00    +0.015 A 
BRANCH  27  30
ATOM     30  O   UNL     1      -4.279  -0.924  -4.099  0.00  0.00    -0.487 OA
BRANCH  30  31
ATOM     31  C   UNL     1      -5.308   0.035  -3.844  0.00  0.00    +0.264 C 
BRANCH  31  32
ATOM     32  C   UNL     1      -5.531   0.873  -5.077  0.00  0.00    -0.010 A 
ATOM     33  C   UNL     1      -4.806   2.035  -5.262  0.00  0.00    +0.008 A 
ATOM     34  C   UNL     1      -5.010   2.804  -6.392  0.00  0.00    +0.020 A 
ATOM     35  C   UNL     1      -5.940   2.410  -7.338  0.00  0.00    +0.041 A 
ATOM     36  C   UNL     1      -6.665   1.247  -7.152  0.00  0.00    +0.020 A 
ATOM     37  C   UNL     1      -6.456   0.475  -6.024  0.00  0.00    +0.008 A 
ATOM     38 CL   UNL     1      -6.197   3.376  -8.758  0.00  0.00    -0.084 Cl
ENDBRANCH  31  32
ENDBRANCH  30  31
ENDBRANCH  27  30
ENDBRANCH  22  24
ENDBRANCH   2  22
TORSDOF 11
