REMARK  Name = ZINC49001867
REMARK  7 active torsions:
REMARK  status: ('A' for Active; 'I' for Inactive)
REMARK    1  A    between atoms: C_1  and  C_2
REMARK    2  A    between atoms: C_5  and  C_9
REMARK    3  A    between atoms: C_6  and  C_8
REMARK    4  A    between atoms: C_12  and  C_14
REMARK    5  A    between atoms: C_15  and  N_27
REMARK    6  A    between atoms: N_16  and  C_19
REMARK    7  A    between atoms: C_22  and  C_26
REMARK                            x       y       z     vdW  Elec       q    Type
REMARK                         _______ _______ _______ _____ _____    ______ ____
ROOT
ATOM      1  C   UNL     1       0.983  -6.918   2.683  0.00  0.00    +0.159 A 
ATOM      2  C   UNL     1       1.228  -8.280   2.713  0.00  0.00    +0.150 A 
ATOM      3  N   UNL     1       1.283  -8.630   4.030  0.00  0.00    -0.198 N 
ATOM      4  N   UNL     1       1.068  -7.457   4.767  0.00  0.00    -0.058 NA
ATOM      5  N   UNL     1       0.902  -6.478   3.949  0.00  0.00    -0.125 NA
ENDROOT
BRANCH   3   6
ATOM      6  C   UNL     1       1.510  -9.914   4.547  0.00  0.00    +0.072 A 
ATOM      7  C   UNL     1       1.018 -11.028   3.881  0.00  0.00    +0.028 A 
ATOM      8  C   UNL     1       1.242 -12.292   4.391  0.00  0.00    +0.008 A 
ATOM      9  C   UNL     1       1.957 -12.449   5.564  0.00  0.00    -0.015 A 
ATOM     10  C   UNL     1       2.449 -11.340   6.232  0.00  0.00    +0.128 A 
ATOM     11  C   UNL     1       2.232 -10.072   5.721  0.00  0.00    +0.066 A 
ATOM     12  F   UNL     1       3.146 -11.496   7.378  0.00  0.00    -0.205 F 
ATOM     13  C   UNL     1       2.200 -13.829   6.118  0.00  0.00    +0.047 C 
ENDBRANCH   3   6
BRANCH   1  17
ATOM     14  C   UNL     1       0.515  -4.207   0.180  0.00  0.00    +0.079 A 
ATOM     15  C   UNL     1       0.651  -4.960  -0.955  0.00  0.00    +0.075 A 
ATOM     16  S   UNL     1       0.932  -6.578  -0.249  0.00  0.00    -0.073 S 
ATOM     17  C   UNL     1       0.842  -6.091   1.469  0.00  0.00    +0.132 A 
ATOM     18  N   UNL     1       0.620  -4.789   1.362  0.00  0.00    -0.237 NA
BRANCH  14  23
ATOM     19  C   UNL     1      -0.476   1.454  -0.193  0.00  0.00    +0.044 C 
ATOM     20  C   UNL     1      -0.216  -0.028  -0.095  0.00  0.00    -0.050 A 
ATOM     21  C   UNL     1       0.783  -0.604  -0.858  0.00  0.00    +0.004 A 
ATOM     22  C   UNL     1       1.025  -1.959  -0.773  0.00  0.00    +0.010 A 
ATOM     23  C   UNL     1       0.260  -2.749   0.084  0.00  0.00    +0.004 A 
ATOM     24  C   UNL     1      -0.745  -2.163   0.851  0.00  0.00    -0.041 A 
ATOM     25  C   UNL     1      -0.975  -0.805   0.761  0.00  0.00    +0.007 A 
ATOM     26  C   UNL     1      -1.577  -3.010   1.780  0.00  0.00    +0.044 C 
ENDBRANCH  14  23
ENDBRANCH   1  17
BRANCH   2  27
ATOM     27  N   UNL     1       1.385  -9.121   1.622  0.00  0.00    -0.341 N 
ATOM     28  H   UNL     1       1.326  -8.764   0.722  0.00  0.00    +0.144 HD
ATOM     29  H   UNL     1       1.554 -10.066   1.758  0.00  0.00    +0.144 HD
ENDBRANCH   2  27
TORSDOF 4
