REMARK  Name = ZINC06600254
REMARK  7 active torsions:
REMARK  status: ('A' for Active; 'I' for Inactive)
REMARK    1  A    between atoms: C_1  and  C_2
REMARK    2  A    between atoms: C_2  and  O_3
REMARK    3  A    between atoms: O_3  and  C_4
REMARK    4  A    between atoms: C_5  and  C_20
REMARK    5  A    between atoms: C_9  and  O_10
REMARK    6  A    between atoms: O_10  and  C_11
REMARK    7  A    between atoms: C_11  and  C_12
REMARK                            x       y       z     vdW  Elec       q    Type
REMARK                         _______ _______ _______ _____ _____    ______ ____
ROOT
ATOM      1  C   UNL     1       3.525  -2.436  -0.059  0.00  0.00    +0.169 A 
ATOM      2  C   UNL     1       4.468  -3.444   0.215  0.00  0.00    +0.021 A 
ATOM      3  C   UNL     1       5.715  -3.096   0.758  0.00  0.00    +0.012 A 
ATOM      4  C   UNL     1       6.009  -1.777   1.013  0.00  0.00    +0.004 A 
ATOM      5  C   UNL     1       5.080  -0.785   0.738  0.00  0.00    +0.049 A 
ATOM      6  C   UNL     1       3.845  -1.108   0.202  0.00  0.00    +0.163 A 
ENDROOT
BRANCH   2   7
ATOM      7  C   UNL     1       4.148  -4.844  -0.058  0.00  0.00    +0.030 C 
ATOM      8  C   UNL     1       5.042  -5.633  -0.756  0.00  0.00    +0.100 C 
ATOM      9  C   UNL     1       6.225  -5.054  -1.423  0.00  0.00    +0.256 C 
ATOM     10  O   UNL     1       6.446  -3.859  -1.375  0.00  0.00    -0.270 OA
ATOM     11  N   UNL     1       7.057  -5.887  -2.080  0.00  0.00    -0.236 N 
ATOM     12  C   UNL     1       6.823  -7.205  -2.145  0.00  0.00    +0.313 C 
ATOM     13  O   UNL     1       7.610  -7.899  -2.759  0.00  0.00    -0.252 OA
ATOM     14  N   UNL     1       5.768  -7.799  -1.570  0.00  0.00    -0.236 N 
ATOM     15  C   UNL     1       4.854  -7.093  -0.873  0.00  0.00    +0.256 C 
ATOM     16  O   UNL     1       3.901  -7.644  -0.355  0.00  0.00    -0.270 OA
ATOM     17  H   UNL     1       7.842  -5.523  -2.520  0.00  0.00    +0.159 HD
ATOM     18  H   UNL     1       5.660  -8.759  -1.657  0.00  0.00    +0.159 HD
ENDBRANCH   2   7
BRANCH   1  19
ATOM     19  O   UNL     1       2.314  -2.757  -0.579  0.00  0.00    -0.488 OA
BRANCH  19  21
ATOM     20  C   UNL     1       0.780  -3.171  -2.399  0.00  0.00    +0.048 C 
ATOM     21  C   UNL     1       2.209  -2.794  -2.003  0.00  0.00    +0.226 C 
ENDBRANCH  19  21
ENDBRANCH   1  19
BRANCH   6  22
ATOM     22  O   UNL     1       2.941  -0.127  -0.063  0.00  0.00    -0.484 OA
BRANCH  22  23
ATOM     23  C   UNL     1       3.334   1.214   0.235  0.00  0.00    +0.266 C 
BRANCH  23  24
ATOM     24  C   UNL     1       2.213   2.157  -0.123  0.00  0.00    +0.008 A 
ATOM     25  C   UNL     1       1.036   1.662  -0.652  0.00  0.00    +0.010 A 
ATOM     26  C   UNL     1       0.011   2.526  -0.986  0.00  0.00    +0.020 A 
ATOM     27  C   UNL     1       0.157   3.886  -0.779  0.00  0.00    +0.042 A 
ATOM     28  C   UNL     1       1.334   4.382  -0.249  0.00  0.00    +0.040 A 
ATOM     29  C   UNL     1       2.363   3.517   0.079  0.00  0.00    +0.049 A 
ATOM     30 CL   UNL     1       3.841   4.139   0.745  0.00  0.00    -0.083 Cl
ATOM     31 CL   UNL     1      -1.134   4.971  -1.191  0.00  0.00    -0.083 Cl
ENDBRANCH  23  24
ENDBRANCH  22  23
ENDBRANCH   6  22
TORSDOF 6
