REMARK  Name = ZINC09237770
REMARK  8 active torsions:
REMARK  status: ('A' for Active; 'I' for Inactive)
REMARK    1  A    between atoms: C_1  and  C_2
REMARK    2  A    between atoms: C_5  and  N_9
REMARK    3  A    between atoms: C_6  and  C_8
REMARK    4  A    between atoms: C_10  and  C_12
REMARK    5  A    between atoms: C_14  and  C_24
REMARK    6  A    between atoms: C_18  and  C_23
REMARK    7  A    between atoms: C_27  and  O_31
REMARK    8  A    between atoms: O_31  and  C_32
REMARK                            x       y       z     vdW  Elec       q    Type
REMARK                         _______ _______ _______ _____ _____    ______ ____
ROOT
ATOM      1  C   UNL     1      -3.137   3.922  -1.380  0.00  0.00    +0.166 C 
ATOM      2  C   UNL     1      -2.569   3.877   0.045  0.00  0.00    +0.140 C 
ATOM      3  N   UNL     1      -3.503   3.197   0.943  0.00  0.00    -0.272 N 
ATOM      4  N   UNL     1      -4.720   3.796   1.020  0.00  0.00    -0.225 N 
ATOM      5  C   UNL     1      -5.644   3.682   2.019  0.00  0.00    +0.148 A 
ATOM      6  N   UNL     1      -6.676   4.404   1.678  0.00  0.00    -0.132 NA
ATOM      7  N   UNL     1      -6.466   4.967   0.538  0.00  0.00    -0.121 NA
ATOM      8  C   UNL     1      -5.285   4.631   0.099  0.00  0.00    +0.209 A 
ATOM      9  S   UNL     1      -4.497   5.128  -1.400  0.00  0.00    -0.069 S 
ATOM     10  C   UNL     1      -5.499   2.872   3.282  0.00  0.00    +0.090 C 
ATOM     11  H   UNL     1      -3.592   2.221   0.701  0.00  0.00    +0.167 HD
ENDROOT
BRANCH   2  12
ATOM     12  C   UNL     1      -1.257   3.135   0.035  0.00  0.00    -0.023 A 
ATOM     13  C   UNL     1      -1.247   1.752   0.025  0.00  0.00    +0.009 A 
ATOM     14  C   UNL     1      -0.046   1.069   0.022  0.00  0.00    +0.047 A 
ATOM     15  C   UNL     1       1.150   1.772   0.018  0.00  0.00    +0.134 A 
ATOM     16  C   UNL     1       1.137   3.159   0.022  0.00  0.00    +0.060 A 
ATOM     17  C   UNL     1      -0.067   3.838   0.031  0.00  0.00    +0.024 A 
ATOM     18 BR   UNL     1       2.766   4.121   0.016  0.00  0.00    -0.047 Br
BRANCH  15  19
ATOM     19  O   UNL     1       2.333   1.102   0.008  0.00  0.00    -0.494 OA
ATOM     20  C   UNL     1       2.270  -0.326   0.003  0.00  0.00    +0.277 C 
ENDBRANCH  15  19
ENDBRANCH   2  12
BRANCH   1  22
ATOM     21  N   UNL     1      -2.085   3.911  -3.619  0.00  0.00    -0.284 N 
ATOM     22  C   UNL     1      -2.061   4.349  -2.345  0.00  0.00    +0.233 C 
ATOM     23  O   UNL     1      -1.173   5.089  -1.975  0.00  0.00    -0.274 OA
ATOM     24  H   UNL     1      -2.747   3.258  -3.894  0.00  0.00    +0.155 HD
BRANCH  21  29
ATOM     25  C   UNL     1       1.685   5.884  -7.371  0.00  0.00    +0.044 C 
ATOM     26  C   UNL     1       0.684   5.360  -6.374  0.00  0.00    -0.050 A 
ATOM     27  C   UNL     1       0.349   6.119  -5.268  0.00  0.00    +0.005 A 
ATOM     28  C   UNL     1      -0.569   5.642  -4.353  0.00  0.00    +0.024 A 
ATOM     29  C   UNL     1      -1.155   4.397  -4.544  0.00  0.00    +0.036 A 
ATOM     30  C   UNL     1      -0.812   3.635  -5.653  0.00  0.00    -0.029 A 
ATOM     31  C   UNL     1       0.102   4.121  -6.567  0.00  0.00    +0.008 A 
ATOM     32  C   UNL     1      -1.442   2.282  -5.861  0.00  0.00    +0.045 C 
ENDBRANCH  21  29
ENDBRANCH   1  22
TORSDOF 4
