REMARK  Name = ZINC39675956
REMARK  8 active torsions:
REMARK  status: ('A' for Active; 'I' for Inactive)
REMARK    1  A    between atoms: C_1  and  N_2
REMARK    2  A    between atoms: N_2  and  C_3
REMARK    3  A    between atoms: N_2  and  C_4
REMARK    4  A    between atoms: C_4  and  C_6
REMARK    5  A    between atoms: C_4  and  C_32
REMARK    6  A    between atoms: C_6  and  N_7
REMARK    7  A    between atoms: C_8  and  C_10
REMARK    8  A    between atoms: C_21  and  C_23
REMARK                            x       y       z     vdW  Elec       q    Type
REMARK                         _______ _______ _______ _____ _____    ______ ____
ROOT
ATOM      1  C   UNL     1      -0.345   3.799   3.175  0.00  0.00    +0.100 C 
ATOM      2  C   UNL     1      -1.269   4.239   2.018  0.00  0.00    +0.121 C 
ATOM      3  N   UNL     1      -2.549   4.595   2.676  0.00  0.00    -0.296 N 
ATOM      4  C   UNL     1      -2.142   5.283   3.925  0.00  0.00    +0.115 C 
ATOM      5  C   UNL     1      -0.918   4.489   4.424  0.00  0.00    -0.004 C 
ATOM      6  C   UNL     1       0.116   5.435   5.026  0.00  0.00    -0.010 C 
ATOM      7  C   UNL     1      -0.457   6.065   6.300  0.00  0.00    -0.082 C 
ATOM      8  N   UNL     1      -0.800   5.009   7.259  0.00  0.00    +0.379 N 
ATOM      9  C   UNL     1      -1.862   4.158   6.707  0.00  0.00    -0.082 C 
ATOM     10  C   UNL     1      -1.350   3.447   5.452  0.00  0.00    -0.010 C 
ATOM     11  C   UNL     1      -3.799   4.349   2.238  0.00  0.00    +0.252 C 
ATOM     12  O   UNL     1      -4.756   4.708   2.897  0.00  0.00    -0.270 OA
ATOM     13  H   UNL     1       0.017   4.446   7.445  0.00  0.00    -0.086 HD
ATOM     14  H   UNL     1      -1.120   5.428   8.119  0.00  0.00    -0.086 HD
ENDROOT
BRANCH  11  15
ATOM     15  C   UNL     1      -4.008   3.645   0.958  0.00  0.00    +0.108 A 
ATOM     16  C   UNL     1      -4.109   2.249   0.931  0.00  0.00    +0.138 A 
ATOM     17  C   UNL     1      -4.304   1.597  -0.271  0.00  0.00    +0.041 A 
ATOM     18  C   UNL     1      -4.400   2.320  -1.447  0.00  0.00    +0.026 A 
ATOM     19  C   UNL     1      -4.301   3.700  -1.430  0.00  0.00    +0.077 A 
ATOM     20  C   UNL     1      -4.111   4.369  -0.234  0.00  0.00    +0.156 A 
ATOM     21  F   UNL     1      -4.021   5.717  -0.218  0.00  0.00    -0.203 F 
ATOM     22 CL   UNL     1      -4.423   4.595  -2.913  0.00  0.00    -0.081 Cl
ATOM     23  F   UNL     1      -4.014   1.542   2.078  0.00  0.00    -0.205 F 
ENDBRANCH  11  15
BRANCH   1  25
ATOM     24  N   UNL     1       0.668   1.653   3.874  0.00  0.00    -0.316 N 
ATOM     25  C   UNL     1      -0.385   2.301   3.338  0.00  0.00    +0.218 C 
ATOM     26  O   UNL     1      -1.365   1.679   2.987  0.00  0.00    -0.275 OA
ATOM     27  H   UNL     1       1.452   2.151   4.155  0.00  0.00    +0.149 HD
BRANCH  24  28
ATOM     28  C   UNL     1       0.629   0.197   4.032  0.00  0.00    +0.093 C 
BRANCH  28  29
ATOM     29  C   UNL     1       1.976  -0.294   4.567  0.00  0.00    -0.021 C 
BRANCH  29  30
ATOM     30  C   UNL     1       2.204   0.268   5.947  0.00  0.00    -0.059 A 
ATOM     31  C   UNL     1       1.599  -0.322   7.042  0.00  0.00    +0.002 A 
ATOM     32  C   UNL     1       1.808   0.193   8.307  0.00  0.00    +0.000 A 
ATOM     33  C   UNL     1       2.622   1.298   8.478  0.00  0.00    +0.000 A 
ATOM     34  C   UNL     1       3.227   1.886   7.384  0.00  0.00    +0.000 A 
ATOM     35  C   UNL     1       3.022   1.369   6.119  0.00  0.00    +0.002 A 
ENDBRANCH  29  30
BRANCH  29  37
ATOM     36  C   UNL     1       1.720  -2.309   3.291  0.00  0.00    -0.096 C 
ATOM     37  N   UNL     1       1.972  -1.762   4.630  0.00  0.00    +0.382 N 
ATOM     38  C   UNL     1       3.275  -2.235   5.116  0.00  0.00    -0.096 C 
ATOM     39  H   UNL     1       1.246  -2.069   5.261  0.00  0.00    -0.082 HD
ENDBRANCH  29  37
ENDBRANCH  28  29
ENDBRANCH  24  28
ENDBRANCH   1  25
TORSDOF 6
