REMARK  Name = ZINC58343504
REMARK  3 active torsions:
REMARK  status: ('A' for Active; 'I' for Inactive)
REMARK    1  A    between atoms: C_5  and  S_7
REMARK    2  A    between atoms: S_7  and  N_10
REMARK    3  A    between atoms: C_20  and  C_22
REMARK                            x       y       z     vdW  Elec       q    Type
REMARK                         _______ _______ _______ _____ _____    ______ ____
ROOT
ATOM      1  N   UNL     1       1.890  -2.915  -1.466  0.00  0.00    -0.161 NA
ATOM      2  C   UNL     1       1.148  -3.265  -2.680  0.00  0.00    +0.084 C 
ATOM      3  C   UNL     1      -0.206  -3.873  -2.391  0.00  0.00    +0.021 C 
ATOM      4  C   UNL     1      -0.068  -5.234  -1.710  0.00  0.00    +0.002 C 
ATOM      5  C   UNL     1       0.728  -6.160  -2.636  0.00  0.00    +0.000 C 
ATOM      6  C   UNL     1       2.131  -5.586  -2.814  0.00  0.00    +0.005 C 
ATOM      7  C   UNL     1       2.065  -4.220  -3.467  0.00  0.00    +0.010 C 
ATOM      8  C   UNL     1       3.452  -3.555  -3.214  0.00  0.00    +0.035 C 
ATOM      9  C   UNL     1       3.328  -3.053  -1.758  0.00  0.00    +0.166 C 
ENDROOT
BRANCH   9  10
ATOM     10  C   UNL     1       3.949  -4.054  -0.818  0.00  0.00    +0.229 C 
ATOM     11  O   UNL     1       3.265  -4.605   0.018  0.00  0.00    -0.274 OA
ATOM     12  N   UNL     1       5.264  -4.336  -0.906  0.00  0.00    -0.328 N 
ATOM     13  H   UNL     1       5.811  -3.895  -1.575  0.00  0.00    +0.145 HD
ATOM     14  H   UNL     1       5.663  -4.980  -0.301  0.00  0.00    +0.145 HD
ENDBRANCH   9  10
BRANCH   1  15
ATOM     15  S   UNL     1       1.230  -2.442  -0.024  0.00  0.00    +0.065 S 
ATOM     16  O   UNL     1       2.257  -2.558   0.951  0.00  0.00    -0.153 OA
ATOM     17  O   UNL     1      -0.013  -3.120   0.096  0.00  0.00    -0.153 OA
BRANCH  15  22
ATOM     18  C   UNL     1      -0.753   1.047  -0.219  0.00  0.00    +0.005 A 
ATOM     19  C   UNL     1       0.265   1.970  -0.374  0.00  0.00    +0.041 A 
ATOM     20  C   UNL     1       1.581   1.545  -0.421  0.00  0.00    +0.160 A 
ATOM     21  C   UNL     1       1.877   0.195  -0.314  0.00  0.00    +0.185 A 
ATOM     22  C   UNL     1       0.856  -0.726  -0.160  0.00  0.00    +0.143 A 
ATOM     23  C   UNL     1      -0.458  -0.299  -0.112  0.00  0.00    +0.031 A 
ATOM     24  F   UNL     1       3.162  -0.222  -0.361  0.00  0.00    -0.200 F 
ATOM     25  F   UNL     1       2.577   2.446  -0.573  0.00  0.00    -0.202 F 
ENDBRANCH  15  22
ENDBRANCH   1  15
TORSDOF 3
