REMARK  Name = ZINC22853482
REMARK  9 active torsions:
REMARK  status: ('A' for Active; 'I' for Inactive)
REMARK    1  A    between atoms: C_1  and  C_2
REMARK    2  A    between atoms: C_2  and  C_3
REMARK    3  A    between atoms: C_9  and  C_11
REMARK    4  A    between atoms: C_11  and  C_13
REMARK    5  A    between atoms: C_11  and  N_20
REMARK    6  A    between atoms: C_23  and  C_26
REMARK    7  A    between atoms: C_26  and  O_28
REMARK    8  A    between atoms: O_28  and  C_29
REMARK    9  A    between atoms: C_29  and  C_30
REMARK                            x       y       z     vdW  Elec       q    Type
REMARK                         _______ _______ _______ _____ _____    ______ ____
ROOT
ATOM      1  C   UNL     1      -2.519   1.253   0.021  0.00  0.00    +0.008 C 
ENDROOT
BRANCH   1   8
ATOM      2  C   UNL     1      -4.703  -0.870  -5.105  0.00  0.00    +0.152 A 
ATOM      3  N   UNL     1      -4.789   0.441  -4.894  0.00  0.00    -0.205 NA
ATOM      4  C   UNL     1      -4.266   0.726  -3.732  0.00  0.00    +0.199 A 
ATOM      5  N   UNL     1      -3.816  -0.415  -3.142  0.00  0.00    -0.170 N 
ATOM      6  N   UNL     1      -4.124  -1.435  -4.079  0.00  0.00    -0.146 NA
ATOM      7  C   UNL     1      -3.227  -0.294  -1.906  0.00  0.00    +0.282 A 
ATOM      8  C   UNL     1      -3.119   0.902  -1.316  0.00  0.00    +0.050 A 
ATOM      9  S   UNL     1      -3.864   1.975  -2.534  0.00  0.00    -0.050 S 
ATOM     10  O   UNL     1      -2.754  -1.402  -1.274  0.00  0.00    -0.265 OA
BRANCH   2  12
ATOM     11  C   UNL     1      -4.075  -1.648  -7.374  0.00  0.00    +0.012 C 
ATOM     12  C   UNL     1      -5.195  -1.590  -6.334  0.00  0.00    +0.075 C 
ENDBRANCH   2  12
ENDBRANCH   1   8
BRANCH   1  13
ATOM     13  C   UNL     1      -1.218   1.984  -0.188  0.00  0.00    -0.021 A 
ATOM     14  C   UNL     1      -1.200   3.366  -0.225  0.00  0.00    +0.005 A 
ATOM     15  C   UNL     1      -0.008   4.037  -0.421  0.00  0.00    +0.000 A 
ATOM     16  C   UNL     1       1.168   3.328  -0.576  0.00  0.00    +0.003 A 
ATOM     17  C   UNL     1       1.154   1.946  -0.534  0.00  0.00    +0.038 A 
ATOM     18  C   UNL     1      -0.040   1.273  -0.337  0.00  0.00    +0.125 A 
ATOM     19  F   UNL     1      -0.056  -0.077  -0.295  0.00  0.00    -0.205 F 
ENDBRANCH   1  13
BRANCH   1  20
ATOM     20  N   UNL     1      -3.450   2.112   0.765  0.00  0.00    +0.388 N 
ATOM     21  C   UNL     1      -4.793   1.520   0.808  0.00  0.00    -0.077 C 
ATOM     22  C   UNL     1      -5.766   2.504   1.461  0.00  0.00    -0.004 C 
ATOM     23  C   UNL     1      -5.285   2.826   2.878  0.00  0.00    +0.094 C 
ATOM     24  C   UNL     1      -3.865   3.397   2.809  0.00  0.00    -0.004 C 
ATOM     25  C   UNL     1      -2.947   2.386   2.117  0.00  0.00    -0.077 C 
ATOM     26  H   UNL     1      -3.525   3.072   0.234  0.00  0.00    -0.080 HD
BRANCH  23  27
ATOM     27  C   UNL     1      -6.205   3.841   3.504  0.00  0.00    +0.310 C 
ATOM     28  O   UNL     1      -5.772   4.912   3.860  0.00  0.00    -0.251 OA
BRANCH  27  29
ATOM     29  O   UNL     1      -7.507   3.556   3.667  0.00  0.00    -0.465 OA
BRANCH  29  30
ATOM     30  C   UNL     1      -8.335   4.581   4.278  0.00  0.00    +0.229 C 
ATOM     31  C   UNL     1      -9.776   4.078   4.380  0.00  0.00    +0.048 C 
ENDBRANCH  29  30
ENDBRANCH  27  29
ENDBRANCH  23  27
ENDBRANCH   1  20
TORSDOF 7
