REMARK  Name = ZINC38902053
REMARK  9 active torsions:
REMARK  status: ('A' for Active; 'I' for Inactive)
REMARK    1  A    between atoms: C_1  and  C_2
REMARK    2  A    between atoms: C_4  and  C_35
REMARK    3  A    between atoms: N_5  and  C_7
REMARK    4  A    between atoms: C_7  and  C_8
REMARK    5  A    between atoms: C_8  and  N_9
REMARK    6  A    between atoms: C_13  and  C_20
REMARK    7  A    between atoms: C_21  and  C_23
REMARK    8  A    between atoms: C_25  and  N_32
REMARK    9  A    between atoms: C_27  and  N_29
REMARK                            x       y       z     vdW  Elec       q    Type
REMARK                         _______ _______ _______ _____ _____    ______ ____
ROOT
ATOM      1  N   UNL     1       1.797  -5.032   2.458  0.00  0.00    -0.245 N 
ATOM      2  C   UNL     1       1.871  -6.254   1.813  0.00  0.00    +0.168 A 
ATOM      3  N   UNL     1       1.680  -7.457   2.304  0.00  0.00    -0.224 NA
ATOM      4  C   UNL     1       1.786  -8.573   1.551  0.00  0.00    +0.085 A 
ATOM      5  C   UNL     1       1.607  -9.918   1.953  0.00  0.00    -0.006 A 
ATOM      6  C   UNL     1       1.754 -10.943   1.054  0.00  0.00    +0.046 A 
ATOM      7  C   UNL     1       2.079 -10.702  -0.274  0.00  0.00    +0.021 A 
ATOM      8  C   UNL     1       2.260  -9.399  -0.701  0.00  0.00    +0.019 A 
ATOM      9  C   UNL     1       2.116  -8.367   0.192  0.00  0.00    +0.041 A 
ATOM     10  S   UNL     1       2.242  -6.597   0.099  0.00  0.00    -0.052 S 
ATOM     11 CL   UNL     1       1.527 -12.579   1.589  0.00  0.00    -0.083 Cl
ATOM     12  C   UNL     1       1.254 -10.226   3.385  0.00  0.00    +0.047 C 
ATOM     13  C   UNL     1       1.499  -4.979   3.771  0.00  0.00    +0.252 C 
ATOM     14  O   UNL     1       1.187  -5.993   4.364  0.00  0.00    -0.270 OA
ENDROOT
BRANCH  13  15
ATOM     15  C   UNL     1       1.553  -3.689   4.490  0.00  0.00    +0.042 A 
ATOM     16  C   UNL     1       0.939  -2.558   3.948  0.00  0.00    +0.046 A 
ATOM     17  C   UNL     1       0.993  -1.357   4.625  0.00  0.00    +0.129 A 
ATOM     18  C   UNL     1       1.653  -1.272   5.838  0.00  0.00    +0.065 A 
ATOM     19  C   UNL     1       2.263  -2.389   6.381  0.00  0.00    +0.129 A 
ATOM     20  C   UNL     1       2.212  -3.597   5.717  0.00  0.00    +0.046 A 
BRANCH  19  21
ATOM     21  N   UNL     1       2.967  -2.288   7.678  0.00  0.00    +0.057 N 
ATOM     22  O   UNL     1       3.009  -1.230   8.263  0.00  0.00    -0.126 OA
ATOM     23  O   UNL     1       3.501  -3.263   8.154  0.00  0.00    -0.126 OA
ENDBRANCH  19  21
BRANCH  17  24
ATOM     24  N   UNL     1       0.343  -0.158   4.051  0.00  0.00    +0.057 N 
ATOM     25  O   UNL     1      -0.318  -0.251   3.043  0.00  0.00    -0.126 OA
ATOM     26  O   UNL     1       0.473   0.916   4.591  0.00  0.00    -0.126 OA
ENDBRANCH  17  24
ENDBRANCH  13  15
BRANCH   1  27
ATOM     27  C   UNL     1       2.042  -3.795   1.712  0.00  0.00    +0.139 C 
BRANCH  27  28
ATOM     28  C   UNL     1       0.792  -3.424   0.913  0.00  0.00    +0.163 C 
BRANCH  28  33
ATOM     29  C   UNL     1       0.999   1.390  -0.491  0.00  0.00    +0.067 C 
ATOM     30  C   UNL     1       1.138  -0.110  -0.475  0.00  0.00    +0.060 A 
ATOM     31  C   UNL     1       1.704  -0.892  -1.487  0.00  0.00    +0.047 A 
ATOM     32  C   UNL     1       1.642  -2.187  -1.097  0.00  0.00    +0.036 A 
ATOM     33  N   UNL     1       1.058  -2.222   0.119  0.00  0.00    -0.267 N 
ATOM     34  N   UNL     1       0.755  -0.906   0.490  0.00  0.00    -0.176 NA
ATOM     35  C   UNL     1       2.137  -3.375  -1.880  0.00  0.00    +0.065 C 
ENDBRANCH  28  33
ENDBRANCH  27  28
ENDBRANCH   1  27
TORSDOF 6
