REMARK  Name = ZINC39676736
REMARK  9 active torsions:
REMARK  status: ('A' for Active; 'I' for Inactive)
REMARK    1  A    between atoms: C_1  and  C_2
REMARK    2  A    between atoms: C_2  and  C_4
REMARK    3  A    between atoms: C_2  and  N_12
REMARK    4  A    between atoms: C_8  and  O_10
REMARK    5  A    between atoms: O_10  and  C_11
REMARK    6  A    between atoms: C_13  and  C_15
REMARK    7  A    between atoms: C_26  and  C_28
REMARK    8  A    between atoms: C_28  and  O_29
REMARK    9  A    between atoms: O_29  and  C_30
REMARK                            x       y       z     vdW  Elec       q    Type
REMARK                         _______ _______ _______ _____ _____    ______ ____
ROOT
ATOM      1  C   UNL     1      -3.442  -1.177   1.191  0.00  0.00    +0.100 C 
ATOM      2  C   UNL     1      -4.400  -0.149   0.548  0.00  0.00    +0.121 C 
ATOM      3  N   UNL     1      -5.639  -0.235   1.355  0.00  0.00    -0.297 N 
ATOM      4  C   UNL     1      -5.160  -0.392   2.750  0.00  0.00    +0.115 C 
ATOM      5  C   UNL     1      -3.945  -1.333   2.637  0.00  0.00    -0.004 C 
ATOM      6  C   UNL     1      -4.368  -2.776   2.896  0.00  0.00    -0.010 C 
ATOM      7  C   UNL     1      -4.810  -2.919   4.355  0.00  0.00    -0.082 C 
ATOM      8  N   UNL     1      -3.701  -2.546   5.242  0.00  0.00    +0.379 N 
ATOM      9  C   UNL     1      -3.362  -1.131   5.052  0.00  0.00    -0.082 C 
ATOM     10  C   UNL     1      -2.859  -0.912   3.622  0.00  0.00    -0.010 C 
ATOM     11  C   UNL     1      -6.914  -0.182   0.921  0.00  0.00    +0.253 C 
ATOM     12  O   UNL     1      -7.829  -0.266   1.713  0.00  0.00    -0.272 OA
ATOM     13  H   UNL     1      -3.974  -2.699   6.202  0.00  0.00    -0.086 HD
ATOM     14  H   UNL     1      -2.896  -3.115   5.030  0.00  0.00    -0.086 HD
ENDROOT
BRANCH   1  16
ATOM     15  N   UNL     1      -0.993  -1.516   1.136  0.00  0.00    -0.308 N 
ATOM     16  C   UNL     1      -2.029  -0.655   1.181  0.00  0.00    +0.219 C 
ATOM     17  O   UNL     1      -1.823   0.540   1.212  0.00  0.00    -0.275 OA
ATOM     18  H   UNL     1      -1.157  -2.472   1.111  0.00  0.00    +0.149 HD
BRANCH  15  20
ATOM     19  C   UNL     1       0.790  -0.672  -0.310  0.00  0.00    +0.033 C 
ATOM     20  C   UNL     1       0.382  -1.009   1.126  0.00  0.00    +0.100 C 
BRANCH  20  21
ATOM     21  C   UNL     1       1.309  -2.061   1.678  0.00  0.00    -0.024 A 
ATOM     22  C   UNL     1       1.124  -3.390   1.344  0.00  0.00    +0.005 A 
ATOM     23  C   UNL     1       1.973  -4.357   1.849  0.00  0.00    +0.004 A 
ATOM     24  C   UNL     1       3.009  -3.997   2.690  0.00  0.00    +0.045 A 
ATOM     25  C   UNL     1       3.197  -2.665   3.026  0.00  0.00    +0.120 A 
ATOM     26  C   UNL     1       2.347  -1.696   2.513  0.00  0.00    +0.051 A 
BRANCH  25  27
ATOM     27  O   UNL     1       4.215  -2.308   3.853  0.00  0.00    -0.495 OA
ATOM     28  C   UNL     1       5.054  -3.358   4.339  0.00  0.00    +0.277 C 
ENDBRANCH  25  27
ENDBRANCH  20  21
ENDBRANCH  15  20
ENDBRANCH   1  16
BRANCH  11  29
ATOM     29  C   UNL     1      -7.203  -0.017  -0.549  0.00  0.00    +0.324 C 
BRANCH  29  30
ATOM     30  O   UNL     1      -8.616   0.011  -0.757  0.00  0.00    -0.483 OA
BRANCH  30  31
ATOM     31  C   UNL     1      -9.049   0.155  -2.037  0.00  0.00    +0.123 A 
ATOM     32  C   UNL     1      -8.132   0.261  -3.073  0.00  0.00    +0.046 A 
ATOM     33  C   UNL     1      -8.573   0.407  -4.373  0.00  0.00    +0.005 A 
ATOM     34  C   UNL     1      -9.929   0.447  -4.644  0.00  0.00    +0.020 A 
ATOM     35  C   UNL     1     -10.846   0.342  -3.614  0.00  0.00    +0.044 A 
ATOM     36  C   UNL     1     -10.408   0.191  -2.311  0.00  0.00    +0.065 A 
ATOM     37 CL   UNL     1     -12.547   0.394  -3.957  0.00  0.00    -0.083 Cl
ENDBRANCH  30  31
ENDBRANCH  29  30
ENDBRANCH  11  29
TORSDOF 7
