REMARK  Name = ZINC07169480
REMARK  5 active torsions:
REMARK  status: ('A' for Active; 'I' for Inactive)
REMARK    1  A    between atoms: C_1  and  C_2
REMARK    2  A    between atoms: C_15  and  C_17
REMARK    3  A    between atoms: C_17  and  O_18
REMARK    4  A    between atoms: O_18  and  C_19
REMARK    5  A    between atoms: C_19  and  C_21
REMARK                            x       y       z     vdW  Elec       q    Type
REMARK                         _______ _______ _______ _____ _____    ______ ____
ROOT
ATOM      1  C   UNL     1       7.363   5.947   4.314  0.00  0.00    +0.029 C 
ATOM      2  C   UNL     1       7.663   4.490   3.957  0.00  0.00    +0.087 C 
ATOM      3  C   UNL     1       9.174   4.256   4.000  0.00  0.00    +0.118 C 
ATOM      4  C   UNL     1       9.521   2.977   3.285  0.00  0.00    +0.219 C 
ATOM      5  O   UNL     1       9.814   1.990   3.926  0.00  0.00    -0.275 OA
ATOM      6  N   UNL     1       9.510   2.921   1.935  0.00  0.00    -0.284 N 
ATOM      7  C   UNL     1       9.091   4.023   1.180  0.00  0.00    +0.055 A 
ATOM      8  C   UNL     1       9.847   4.486   0.116  0.00  0.00    +0.025 A 
ATOM      9  C   UNL     1       9.402   5.542  -0.634  0.00  0.00    +0.002 A 
ATOM     10  C   UNL     1       8.199   6.151  -0.330  0.00  0.00    +0.002 A 
ATOM     11  C   UNL     1       7.442   5.707   0.739  0.00  0.00    +0.025 A 
ATOM     12  C   UNL     1       7.892   4.646   1.508  0.00  0.00    +0.058 A 
ATOM     13  N   UNL     1       7.155   4.204   2.614  0.00  0.00    -0.264 N 
ATOM     14  C   UNL     1       6.003   3.524   2.446  0.00  0.00    +0.258 C 
ATOM     15  O   UNL     1       5.377   3.142   3.412  0.00  0.00    -0.271 OA
ATOM     16  H   UNL     1       9.794   2.110   1.485  0.00  0.00    +0.155 HD
ENDROOT
BRANCH  14  17
ATOM     17  C   UNL     1       5.494   3.237   1.056  0.00  0.00    +0.328 C 
BRANCH  17  18
ATOM     18  O   UNL     1       4.247   2.498   1.141  0.00  0.00    -0.452 OA
BRANCH  18  19
ATOM     19  C   UNL     1       3.656   2.160  -0.022  0.00  0.00    +0.344 C 
ATOM     20  O   UNL     1       4.169   2.475  -1.078  0.00  0.00    -0.245 OA
BRANCH  19  21
ATOM     21  C   UNL     1       2.388   1.409  -0.013  0.00  0.00    +0.112 A 
ATOM     22  C   UNL     1       2.399   0.009  -0.020  0.00  0.00    +0.139 A 
ATOM     23  C   UNL     1       1.204  -0.687  -0.013  0.00  0.00    +0.039 A 
ATOM     24  C   UNL     1       0.002  -0.004   0.002  0.00  0.00    +0.004 A 
ATOM     25  C   UNL     1      -0.017   1.379   0.010  0.00  0.00    +0.021 A 
ATOM     26  C   UNL     1       1.167   2.090   0.002  0.00  0.00    +0.058 A 
ATOM     27 CL   UNL     1       1.139   3.826   0.011  0.00  0.00    -0.083 Cl
ATOM     28  F   UNL     1       3.573  -0.659  -0.034  0.00  0.00    -0.205 F 
ENDBRANCH  19  21
ENDBRANCH  18  19
ENDBRANCH  17  18
ENDBRANCH  14  17
TORSDOF 4
