REMARK  Name = ZINC52309160
REMARK  9 active torsions:
REMARK  status: ('A' for Active; 'I' for Inactive)
REMARK    1  A    between atoms: C_1  and  C_2
REMARK    2  A    between atoms: C_2  and  C_3
REMARK    3  A    between atoms: C_3  and  C_5
REMARK    4  A    between atoms: C_3  and  N_21
REMARK    5  A    between atoms: C_5  and  C_7
REMARK    6  A    between atoms: C_5  and  S_13
REMARK    7  A    between atoms: S_13  and  C_14
REMARK    8  A    between atoms: C_16  and  C_20
REMARK    9  A    between atoms: N_18  and  C_19
REMARK                            x       y       z     vdW  Elec       q    Type
REMARK                         _______ _______ _______ _____ _____    ______ ____
ROOT
ATOM      1  C   UNL     1      -1.238  -2.079  -0.115  0.00  0.00    +0.075 C 
ENDROOT
BRANCH   1   2
ATOM      2  C   UNL     1      -2.696  -2.459  -0.083  0.00  0.00    +0.003 A 
ATOM      3  C   UNL     1      -3.322  -3.377   0.692  0.00  0.00    +0.013 A 
ATOM      4  C   UNL     1      -4.684  -3.560   0.548  0.00  0.00    +0.023 A 
ATOM      5  C   UNL     1      -5.354  -2.815  -0.366  0.00  0.00    +0.055 A 
ATOM      6  S   UNL     1      -4.048  -1.810  -1.052  0.00  0.00    -0.085 S 
ATOM      7 BR   UNL     1      -7.196  -2.829  -0.796  0.00  0.00    -0.043 Br
ENDBRANCH   1   2
BRANCH   1   8
ATOM      8  C   UNL     1      -1.090  -0.596   0.230  0.00  0.00    -0.057 C 
BRANCH   8   9
ATOM      9  N   UNL     1      -1.716  -0.331   1.532  0.00  0.00    +0.381 N 
ATOM     10  H   UNL     1      -1.619   0.647   1.759  0.00  0.00    -0.090 HD
ATOM     11  H   UNL     1      -2.696  -0.570   1.489  0.00  0.00    -0.090 HD
ATOM     12  H   UNL     1      -1.265  -0.888   2.242  0.00  0.00    -0.090 HD
ENDBRANCH   8   9
BRANCH   8  14
ATOM     13  C   UNL     1       0.543   1.274   0.510  0.00  0.00    +0.002 C 
ATOM     14  C   UNL     1       0.395  -0.233   0.295  0.00  0.00    -0.018 C 
ENDBRANCH   8  14
ENDBRANCH   1   8
BRANCH   1  15
ATOM     15  S   UNL     1      -0.569  -2.384  -1.773  0.00  0.00    -0.099 S 
BRANCH  15  16
ATOM     16  C   UNL     1      -0.624  -4.137  -1.939  0.00  0.00    +0.095 A 
ATOM     17  C   UNL     1      -1.186  -4.833  -2.967  0.00  0.00    +0.059 A 
ATOM     18  C   UNL     1      -1.011  -6.195  -2.709  0.00  0.00    +0.061 A 
ATOM     19  N   UNL     1      -0.372  -6.323  -1.575  0.00  0.00    -0.176 NA
ATOM     20  N   UNL     1      -0.108  -5.044  -1.068  0.00  0.00    -0.261 N 
ATOM     21  C   UNL     1       0.595  -4.738   0.180  0.00  0.00    +0.173 C 
ATOM     22  C   UNL     1      -1.481  -7.325  -3.588  0.00  0.00    +0.067 C 
ENDBRANCH  15  16
ENDBRANCH   1  15
TORSDOF 6
