REMARK  Name = ZINC64981565
REMARK  6 active torsions:
REMARK  status: ('A' for Active; 'I' for Inactive)
REMARK    1  A    between atoms: C_1  and  C_2
REMARK    2  A    between atoms: C_2  and  O_3
REMARK    3  A    between atoms: O_3  and  C_4
REMARK    4  A    between atoms: C_13  and  C_14
REMARK    5  A    between atoms: N_15  and  N_16
REMARK    6  A    between atoms: N_27  and  C_28
REMARK                            x       y       z     vdW  Elec       q    Type
REMARK                         _______ _______ _______ _____ _____    ______ ____
ROOT
ATOM      1  N   UNL     1       2.426   0.721  -4.303  0.00  0.00    -0.204 N 
ATOM      2  C   UNL     1       2.325   2.092  -4.149  0.00  0.00    +0.256 A 
ATOM      3  N   UNL     1       2.834   2.891  -5.077  0.00  0.00    -0.192 NA
ATOM      4  C   UNL     1       2.735   4.208  -4.926  0.00  0.00    +0.165 A 
ATOM      5  C   UNL     1       2.087   4.704  -3.776  0.00  0.00    +0.138 A 
ATOM      6  C   UNL     1       2.128   6.173  -3.879  0.00  0.00    +0.030 A 
ATOM      7  C   UNL     1       1.663   7.206  -3.068  0.00  0.00    +0.027 A 
ATOM      8  C   UNL     1       1.861   8.517  -3.447  0.00  0.00    +0.019 A 
ATOM      9  C   UNL     1       2.520   8.809  -4.632  0.00  0.00    +0.017 A 
ATOM     10  C   UNL     1       2.984   7.796  -5.444  0.00  0.00    +0.027 A 
ATOM     11  C   UNL     1       2.795   6.468  -5.078  0.00  0.00    +0.053 A 
ATOM     12  N   UNL     1       3.148   5.274  -5.687  0.00  0.00    -0.326 N 
ATOM     13  C   UNL     1       3.862   5.165  -6.962  0.00  0.00    +0.151 C 
ATOM     14 BR   UNL     1       1.230   9.921  -2.349  0.00  0.00    -0.050 Br
ATOM     15  N   UNL     1       1.598   3.853  -2.886  0.00  0.00    -0.142 NA
ATOM     16  N   UNL     1       1.714   2.583  -3.075  0.00  0.00    -0.111 NA
ATOM     17  H   UNL     1       2.871   0.352  -5.083  0.00  0.00    +0.177 HD
ENDROOT
BRANCH   1  19
ATOM     18  C   UNL     1       1.984  -1.424  -3.480  0.00  0.00    +0.142 C 
ATOM     19  N   UNL     1       1.888  -0.136  -3.334  0.00  0.00    -0.187 NA
BRANCH  18  29
ATOM     20  C   UNL     1       0.777  -1.809  -1.336  0.00  0.00    +0.130 A 
ATOM     21  C   UNL     1       0.238  -2.667  -0.378  0.00  0.00    +0.047 A 
ATOM     22  C   UNL     1       0.321  -4.018  -0.500  0.00  0.00    +0.012 A 
ATOM     23  C   UNL     1       0.959  -4.603  -1.607  0.00  0.00    -0.017 A 
ATOM     24  C   UNL     1       1.050  -5.999  -1.743  0.00  0.00    +0.008 A 
ATOM     25  C   UNL     1       1.676  -6.530  -2.830  0.00  0.00    +0.001 A 
ATOM     26  C   UNL     1       2.229  -5.711  -3.812  0.00  0.00    +0.001 A 
ATOM     27  C   UNL     1       2.158  -4.354  -3.711  0.00  0.00    +0.009 A 
ATOM     28  C   UNL     1       1.522  -3.773  -2.607  0.00  0.00    -0.006 A 
ATOM     29  C   UNL     1       1.418  -2.322  -2.463  0.00  0.00    +0.044 A 
BRANCH  20  30
ATOM     30  O   UNL     1       0.671  -0.465  -1.174  0.00  0.00    -0.492 OA
BRANCH  30  32
ATOM     31  C   UNL     1      -0.019   1.526   0.010  0.00  0.00    +0.048 C 
ATOM     32  C   UNL     1       0.002  -0.004   0.002  0.00  0.00    +0.226 C 
ENDBRANCH  30  32
ENDBRANCH  20  30
ENDBRANCH  18  29
ENDBRANCH   1  19
TORSDOF 4
