REMARK  Name = ZINC27519154
REMARK  10 active torsions:
REMARK  status: ('A' for Active; 'I' for Inactive)
REMARK    1  A    between atoms: C_1  and  C_2
REMARK    2  A    between atoms: C_2  and  C_3
REMARK    3  A    between atoms: C_3  and  C_4
REMARK    4  A    between atoms: C_4  and  C_5
REMARK    5  A    between atoms: C_5  and  C_6
REMARK    6  A    between atoms: C_6  and  C_7
REMARK    7  A    between atoms: C_11  and  C_26
REMARK    8  A    between atoms: N_13  and  C_14
REMARK    9  A    between atoms: C_19  and  C_20
REMARK   10  A    between atoms: C_24  and  O_25
REMARK                            x       y       z     vdW  Elec       q    Type
REMARK                         _______ _______ _______ _____ _____    ______ ____
ROOT
ATOM      1  C   UNL     1      -4.698  -3.757  -0.569  0.00  0.00    -0.005 A 
ATOM      2  C   UNL     1      -5.261  -4.424  -1.618  0.00  0.00    +0.018 A 
ATOM      3  C   UNL     1      -6.375  -5.247  -1.406  0.00  0.00    +0.019 A 
ATOM      4  C   UNL     1      -6.992  -5.918  -2.495  0.00  0.00    +0.028 A 
ATOM      5  C   UNL     1      -8.202  -6.555  -2.271  0.00  0.00    +0.078 A 
ATOM      6  C   UNL     1      -8.778  -6.460  -0.915  0.00  0.00    +0.210 A 
ATOM      7  N   UNL     1     -10.074  -6.572  -0.717  0.00  0.00    -0.325 N 
ATOM      8  O   UNL     1      -7.923  -6.254   0.120  0.00  0.00    -0.438 OA
ATOM      9  C   UNL     1      -6.883  -5.413  -0.103  0.00  0.00    +0.141 A 
ATOM     10  C   UNL     1      -6.304  -4.723   0.949  0.00  0.00    +0.092 A 
ATOM     11  C   UNL     1      -5.213  -3.900   0.717  0.00  0.00    +0.124 A 
ATOM     12  H   UNL     1     -10.423  -6.637   0.186  0.00  0.00    +0.169 HD
ENDROOT
BRANCH   5  13
ATOM     13  C   UNL     1      -8.887  -7.298  -3.345  0.00  0.00    +0.144 A 
ATOM     14  N   UNL     1      -9.080  -6.840  -4.621  0.00  0.00    -0.338 N 
ATOM     15  H   UNL     1      -8.796  -5.983  -4.975  0.00  0.00    +0.167 HD
ATOM     16  C   UNL     1      -9.757  -7.828  -5.311  0.00  0.00    +0.066 A 
ATOM     17  C   UNL     1     -10.224  -7.945  -6.613  0.00  0.00    +0.028 A 
ATOM     18  C   UNL     1     -10.880  -9.094  -7.002  0.00  0.00    +0.002 A 
ATOM     19  C   UNL     1     -11.075 -10.133  -6.103  0.00  0.00    +0.002 A 
ATOM     20  C   UNL     1     -10.622 -10.036  -4.818  0.00  0.00    +0.030 A 
ATOM     21  C   UNL     1      -9.954  -8.880  -4.399  0.00  0.00    +0.089 A 
ATOM     22  N   UNL     1      -9.398  -8.501  -3.223  0.00  0.00    -0.228 NA
ENDBRANCH   5  13
BRANCH   7  23
ATOM     23  C   UNL     1     -10.929  -6.596  -1.783  0.00  0.00    +0.045 A 
ATOM     24  C   UNL     1     -10.899  -5.569  -2.731  0.00  0.00    +0.026 A 
ATOM     25  C   UNL     1     -11.765  -5.599  -3.804  0.00  0.00    +0.002 A 
ATOM     26  C   UNL     1     -12.662  -6.644  -3.944  0.00  0.00    +0.000 A 
ATOM     27  C   UNL     1     -12.698  -7.664  -3.009  0.00  0.00    +0.005 A 
ATOM     28  C   UNL     1     -11.834  -7.650  -1.934  0.00  0.00    -0.027 A 
ATOM     29  C   UNL     1     -11.870  -8.765  -0.922  0.00  0.00    +0.046 C 
ENDBRANCH   7  23
BRANCH  11  30
ATOM     30  O   UNL     1      -4.646  -3.225   1.749  0.00  0.00    -0.506 OA
ATOM     31  H   UNL     1      -5.029  -2.350   1.905  0.00  0.00    +0.292 HD
ENDBRANCH  11  30
BRANCH   1  32
ATOM     32  C   UNL     1      -3.506  -2.865  -0.803  0.00  0.00    +0.039 C 
BRANCH  32  33
ATOM     33  C   UNL     1      -3.965  -1.407  -0.863  0.00  0.00    +0.005 C 
BRANCH  33  34
ATOM     34  C   UNL     1      -2.755  -0.501  -1.101  0.00  0.00    +0.000 C 
BRANCH  34  35
ATOM     35  C   UNL     1      -3.214   0.958  -1.161  0.00  0.00    -0.000 C 
BRANCH  35  37
ATOM     36  C   UNL     1      -2.463   3.322  -1.459  0.00  0.00    +0.004 C 
ATOM     37  C   UNL     1      -2.004   1.864  -1.399  0.00  0.00    -0.003 C 
ENDBRANCH  35  37
ENDBRANCH  34  35
ENDBRANCH  33  34
ENDBRANCH  32  33
ENDBRANCH   1  32
TORSDOF 8
