REMARK  Name = ZINC39987056
REMARK  13 active torsions:
REMARK  status: ('A' for Active; 'I' for Inactive)
REMARK    1  A    between atoms: C_1  and  C_2
REMARK    2  A    between atoms: C_2  and  C_3
REMARK    3  A    between atoms: C_8  and  C_27
REMARK    4  A    between atoms: C_9  and  C_23
REMARK    5  A    between atoms: C_12  and  C_15
REMARK    6  A    between atoms: C_13  and  O_14
REMARK    7  A    between atoms: C_15  and  N_16
REMARK    8  A    between atoms: N_16  and  C_17
REMARK    9  A    between atoms: N_16  and  C_20
REMARK   10  A    between atoms: C_17  and  C_18
REMARK   11  A    between atoms: C_18  and  O_19
REMARK   12  A    between atoms: C_20  and  C_21
REMARK   13  A    between atoms: C_21  and  O_22
REMARK                            x       y       z     vdW  Elec       q    Type
REMARK                         _______ _______ _______ _____ _____    ______ ____
ROOT
ATOM      1  C   UNL     1      -1.796  -0.292   0.299  0.00  0.00    -0.005 A 
ATOM      2  C   UNL     1      -2.584  -0.273   1.414  0.00  0.00    +0.022 A 
ATOM      3  C   UNL     1      -3.932  -0.616   1.313  0.00  0.00    +0.065 A 
ATOM      4  C   UNL     1      -4.816  -0.623   2.495  0.00  0.00    +0.203 A 
ATOM      5  O   UNL     1      -4.482  -0.121   3.554  0.00  0.00    -0.286 OA
ATOM      6  C   UNL     1      -6.129  -1.274   2.316  0.00  0.00    +0.101 A 
ATOM      7  C   UNL     1      -6.530  -1.573   1.048  0.00  0.00    +0.221 A 
ATOM      8  O   UNL     1      -5.793  -1.289  -0.026  0.00  0.00    -0.449 OA
ATOM      9  C   UNL     1      -4.487  -0.973   0.071  0.00  0.00    +0.144 A 
ATOM     10  C   UNL     1      -3.670  -0.991  -1.051  0.00  0.00    +0.021 A 
ATOM     11  C   UNL     1      -2.334  -0.646  -0.936  0.00  0.00    +0.125 A 
ENDROOT
BRANCH   6  12
ATOM     12  C   UNL     1      -6.983  -1.593   3.477  0.00  0.00    +0.117 A 
ATOM     13  N   UNL     1      -8.209  -2.072   3.493  0.00  0.00    -0.239 NA
ATOM     14  C   UNL     1      -8.874  -2.318   4.639  0.00  0.00    +0.079 A 
ATOM     15  C   UNL     1     -10.185  -2.829   4.797  0.00  0.00    +0.029 A 
ATOM     16  C   UNL     1     -10.714  -3.019   6.035  0.00  0.00    +0.002 A 
ATOM     17  C   UNL     1      -9.999  -2.724   7.187  0.00  0.00    +0.001 A 
ATOM     18  C   UNL     1      -8.715  -2.223   7.077  0.00  0.00    +0.017 A 
ATOM     19  C   UNL     1      -8.171  -2.027   5.832  0.00  0.00    +0.040 A 
ATOM     20  S   UNL     1      -6.613  -1.433   5.218  0.00  0.00    -0.067 S 
ENDBRANCH   6  12
BRANCH   7  21
ATOM     21  C   UNL     1      -7.860  -2.253   0.852  0.00  0.00    +0.451 C 
ATOM     22  F   UNL     1      -8.883  -1.418   1.313  0.00  0.00    -0.163 F 
ATOM     23  F   UNL     1      -8.053  -2.518  -0.508  0.00  0.00    -0.163 F 
ATOM     24  F   UNL     1      -7.880  -3.454   1.569  0.00  0.00    -0.163 F 
ENDBRANCH   7  21
BRANCH   1  26
ATOM     25  C   UNL     1      -0.162   1.559   0.066  0.00  0.00    +0.009 C 
ATOM     26  C   UNL     1      -0.338   0.077   0.404  0.00  0.00    +0.035 C 
ENDBRANCH   1  26
BRANCH  11  27
ATOM     27  O   UNL     1      -1.539  -0.659  -2.037  0.00  0.00    -0.506 OA
ATOM     28  H   UNL     1      -1.108  -1.509  -2.201  0.00  0.00    +0.292 HD
ENDBRANCH  11  27
BRANCH  10  29
ATOM     29  C   UNL     1      -4.238  -1.378  -2.393  0.00  0.00    -0.035 C 
BRANCH  29  30
ATOM     30  N   UNL     1      -4.881  -0.209  -3.008  0.00  0.00    +0.385 N 
ATOM     31  H   UNL     1      -5.560   0.176  -2.370  0.00  0.00    -0.081 HD
BRANCH  30  32
ATOM     32  C   UNL     1      -3.863   0.806  -3.312  0.00  0.00    -0.050 C 
BRANCH  32  33
ATOM     33  C   UNL     1      -4.546   2.071  -3.837  0.00  0.00    +0.137 C 
BRANCH  33  34
ATOM     34  O   UNL     1      -5.352   2.641  -2.804  0.00  0.00    -0.397 OA
ATOM     35  H   UNL     1      -5.816   3.448  -3.068  0.00  0.00    +0.209 HD
ENDBRANCH  33  34
ENDBRANCH  32  33
ENDBRANCH  30  32
BRANCH  30  36
ATOM     36  C   UNL     1      -5.552  -0.617  -4.250  0.00  0.00    -0.050 C 
BRANCH  36  37
ATOM     37  C   UNL     1      -6.713  -1.556  -3.917  0.00  0.00    +0.137 C 
BRANCH  37  38
ATOM     38  O   UNL     1      -7.681  -0.857  -3.132  0.00  0.00    -0.397 OA
ATOM     39  H   UNL     1      -8.447  -1.392  -2.884  0.00  0.00    +0.209 HD
ENDBRANCH  37  38
ENDBRANCH  36  37
ENDBRANCH  30  36
ENDBRANCH  29  30
ENDBRANCH  10  29
TORSDOF 12
