REMARK  Name = ZINC19320557
REMARK  6 active torsions:
REMARK  status: ('A' for Active; 'I' for Inactive)
REMARK    1  A    between atoms: C_1  and  C_2
REMARK    2  A    between atoms: C_2  and  C_3
REMARK    3  A    between atoms: C_3  and  N_4
REMARK    4  A    between atoms: C_13  and  C_23
REMARK    5  A    between atoms: C_16  and  C_22
REMARK    6  A    between atoms: C_17  and  C_21
REMARK                            x       y       z     vdW  Elec       q    Type
REMARK                         _______ _______ _______ _____ _____    ______ ____
ROOT
ATOM      1  N   UNL     1       0.762  -1.980   1.234  0.00  0.00    -0.268 NA
ATOM      2  C   UNL     1       1.274  -2.508   2.511  0.00  0.00    +0.193 C 
ATOM      3  N   UNL     1       1.167  -3.975   2.456  0.00  0.00    -0.304 N 
ATOM      4  C   UNL     1       1.514  -4.609   1.284  0.00  0.00    +0.184 C 
ATOM      5  N   UNL     1       1.694  -3.940   0.189  0.00  0.00    -0.240 NA
ATOM      6  C   UNL     1       1.565  -2.489   0.115  0.00  0.00    +0.232 C 
ATOM      7  N   UNL     1       1.672  -5.978   1.275  0.00  0.00    -0.256 N 
ATOM      8  C   UNL     1       2.021  -6.629   0.101  0.00  0.00    +0.222 A 
ATOM      9  N   UNL     1       2.202  -5.904  -1.001  0.00  0.00    -0.219 NA
ATOM     10  C   UNL     1       2.535  -6.463  -2.146  0.00  0.00    +0.051 A 
ATOM     11  C   UNL     1       2.699  -7.860  -2.188  0.00  0.00    +0.022 A 
ATOM     12  C   UNL     1       3.053  -8.532  -3.367  0.00  0.00    +0.015 A 
ATOM     13  C   UNL     1       3.198  -9.887  -3.349  0.00  0.00    -0.047 A 
ATOM     14  C   UNL     1       3.000 -10.613  -2.177  0.00  0.00    -0.045 A 
ATOM     15  C   UNL     1       2.655  -9.992  -1.014  0.00  0.00    +0.032 A 
ATOM     16  C   UNL     1       2.498  -8.598  -0.994  0.00  0.00    +0.077 A 
ATOM     17  N   UNL     1       2.166  -7.939   0.123  0.00  0.00    -0.214 NA
ATOM     18  C   UNL     1       3.169 -12.111  -2.195  0.00  0.00    +0.044 C 
ATOM     19  C   UNL     1       3.578 -10.610  -4.615  0.00  0.00    +0.044 C 
ATOM     20  C   UNL     1       2.735  -5.625  -3.383  0.00  0.00    +0.066 C 
ATOM     21  H   UNL     1       0.861  -4.481   3.225  0.00  0.00    +0.150 HD
ATOM     22  H   UNL     1       1.539  -6.487   2.091  0.00  0.00    +0.158 HD
ENDROOT
BRANCH   1  23
ATOM     23  C   UNL     1       0.742  -0.511   1.242  0.00  0.00    +0.087 C 
BRANCH  23  25
ATOM     24  C   UNL     1      -0.019   1.526   0.010  0.00  0.00    +0.005 C 
ATOM     25  C   UNL     1       0.002  -0.004   0.002  0.00  0.00    +0.012 C 
ENDBRANCH  23  25
ENDBRANCH   1  23
TORSDOF 2
