REMARK  Name = ZINC63908280
REMARK  9 active torsions:
REMARK  status: ('A' for Active; 'I' for Inactive)
REMARK    1  A    between atoms: C_1  and  C_2
REMARK    2  A    between atoms: C_5  and  C_21
REMARK    3  A    between atoms: C_6  and  C_20
REMARK    4  A    between atoms: N_7  and  C_8
REMARK    5  A    between atoms: C_8  and  C_9
REMARK    6  A    between atoms: C_21  and  C_23
REMARK    7  A    between atoms: C_23  and  S_24
REMARK    8  A    between atoms: S_24  and  C_25
REMARK    9  A    between atoms: C_28  and  C_30
REMARK                            x       y       z     vdW  Elec       q    Type
REMARK                         _______ _______ _______ _____ _____    ______ ____
ROOT
ATOM      1  C   UNL     1      -2.726  -1.903   1.607  0.00  0.00    +0.171 C 
ATOM      2  O   UNL     1      -2.762  -2.627   2.583  0.00  0.00    -0.291 OA
ENDROOT
BRANCH   1   6
ATOM      3  C   UNL     1       0.290   1.499   0.170  0.00  0.00    +0.028 C 
ATOM      4  C   UNL     1       0.176  -0.025   0.100  0.00  0.00    +0.075 C 
ATOM      5  C   UNL     1      -1.302  -0.450  -0.006  0.00  0.00    +0.062 C 
ATOM      6  C   UNL     1      -1.524  -1.281   1.240  0.00  0.00    +0.014 C 
ATOM      7  C   UNL     1      -0.370  -1.321   1.935  0.00  0.00    +0.010 C 
ATOM      8  N   UNL     1       0.643  -0.633   1.353  0.00  0.00    -0.326 N 
ATOM      9  C   UNL     1      -0.218  -2.062   3.238  0.00  0.00    +0.061 C 
BRANCH   8  10
ATOM     10  C   UNL     1       2.001  -0.513   1.890  0.00  0.00    +0.153 C 
BRANCH  10  11
ATOM     11  C   UNL     1       2.083   0.715   2.799  0.00  0.00    +0.228 C 
ATOM     12  C   UNL     1       3.528   0.909   3.277  0.00  0.00    +0.275 C 
ATOM     13  O   UNL     1       3.566   2.055   4.134  0.00  0.00    -0.485 OA
ATOM     14  C   UNL     1       2.596   2.141   5.085  0.00  0.00    +0.162 A 
ATOM     15  C   UNL     1       2.769   3.001   6.159  0.00  0.00    +0.049 A 
ATOM     16  C   UNL     1       1.791   3.101   7.130  0.00  0.00    +0.004 A 
ATOM     17  C   UNL     1       0.637   2.345   7.034  0.00  0.00    +0.004 A 
ATOM     18  C   UNL     1       0.459   1.485   5.966  0.00  0.00    +0.049 A 
ATOM     19  C   UNL     1       1.438   1.378   4.989  0.00  0.00    +0.163 A 
ATOM     20  O   UNL     1       1.251   0.521   3.948  0.00  0.00    -0.480 OA
ENDBRANCH  10  11
ENDBRANCH   8  10
ENDBRANCH   1   6
BRANCH   1  21
ATOM     21  C   UNL     1      -3.973  -1.674   0.792  0.00  0.00    +0.158 C 
BRANCH  21  22
ATOM     22  S   UNL     1      -5.349  -2.608   1.516  0.00  0.00    -0.058 S 
BRANCH  22  23
ATOM     23  C   UNL     1      -6.714  -2.241   0.465  0.00  0.00    +0.278 A 
ATOM     24  N   UNL     1      -6.690  -1.460  -0.604  0.00  0.00    -0.101 NA
ATOM     25  N   UNL     1      -7.864  -1.419  -1.129  0.00  0.00    -0.107 NA
ATOM     26  C   UNL     1      -8.687  -2.172  -0.417  0.00  0.00    +0.248 A 
ATOM     27  O   UNL     1      -7.968  -2.708   0.599  0.00  0.00    -0.411 OA
BRANCH  26  28
ATOM     28  C   UNL     1     -10.050  -2.383  -0.671  0.00  0.00    +0.044 C 
ATOM     29  C   UNL     1     -10.805  -1.851  -1.716  0.00  0.00    +0.008 A 
ATOM     30  C   UNL     1     -10.479  -0.991  -2.787  0.00  0.00    +0.010 A 
ATOM     31  C   UNL     1     -11.438  -0.630  -3.677  0.00  0.00    +0.001 A 
ATOM     32  C   UNL     1     -12.752  -1.089  -3.563  0.00  0.00    +0.002 A 
ATOM     33  C   UNL     1     -13.136  -1.917  -2.561  0.00  0.00    +0.026 A 
ATOM     34  C   UNL     1     -12.188  -2.339  -1.592  0.00  0.00    +0.043 A 
ATOM     35  N   UNL     1     -12.307  -3.126  -0.541  0.00  0.00    -0.380 N 
ATOM     36  C   UNL     1     -11.008  -3.238   0.129  0.00  0.00    +0.154 C 
ATOM     37  H   UNL     1     -13.124  -3.564  -0.257  0.00  0.00    +0.160 HD
ENDBRANCH  26  28
ENDBRANCH  22  23
ENDBRANCH  21  22
ENDBRANCH   1  21
TORSDOF 7
