REMARK  Name = ZINC20477652
REMARK  10 active torsions:
REMARK  status: ('A' for Active; 'I' for Inactive)
REMARK    1  A    between atoms: C_1  and  C_2
REMARK    2  A    between atoms: C_2  and  C_3
REMARK    3  A    between atoms: C_2  and  N_4
REMARK    4  A    between atoms: C_11  and  C_24
REMARK    5  A    between atoms: C_13  and  C_20
REMARK    6  A    between atoms: C_13  and  C_22
REMARK    7  A    between atoms: C_14  and  N_19
REMARK    8  A    between atoms: C_15  and  C_16
REMARK    9  A    between atoms: C_27  and  S_30
REMARK   10  A    between atoms: S_30  and  C_31
REMARK                            x       y       z     vdW  Elec       q    Type
REMARK                         _______ _______ _______ _____ _____    ______ ____
ROOT
ATOM      1  N   UNL     1       0.480  -0.796   3.399  0.00  0.00    +0.384 N 
ATOM      2  C   UNL     1      -0.395  -1.931   3.743  0.00  0.00    -0.050 C 
ATOM      3  C   UNL     1      -0.754  -2.639   2.460  0.00  0.00    -0.041 C 
ATOM      4  C   UNL     1      -0.872  -1.956   1.337  0.00  0.00    -0.035 C 
ATOM      5  C   UNL     1      -0.718  -0.464   1.266  0.00  0.00    +0.013 C 
ATOM      6  C   UNL     1      -0.242   0.162   2.558  0.00  0.00    -0.069 C 
ATOM      7  C   UNL     1       0.213  -0.136   0.098  0.00  0.00    +0.064 C 
ATOM      8  C   UNL     1      -0.440  -0.603  -1.204  0.00  0.00    +0.188 C 
ATOM      9  C   UNL     1      -0.897  -2.027  -1.116  0.00  0.00    +0.051 C 
ATOM     10  C   UNL     1      -1.116  -2.673   0.060  0.00  0.00    +0.085 C 
ATOM     11  H   UNL     1       1.341  -1.175   2.828  0.00  0.00    -0.081 HD
ENDROOT
BRANCH   7  12
ATOM     12  C   UNL     1       0.447   1.351   0.040  0.00  0.00    -0.041 A 
ATOM     13  C   UNL     1      -0.615   2.223   0.200  0.00  0.00    +0.005 A 
ATOM     14  C   UNL     1      -0.404   3.587   0.152  0.00  0.00    +0.015 A 
ATOM     15  C   UNL     1       0.876   4.083  -0.066  0.00  0.00    +0.008 A 
ATOM     16  C   UNL     1       1.939   3.204  -0.232  0.00  0.00    +0.015 A 
ATOM     17  C   UNL     1       1.722   1.841  -0.178  0.00  0.00    +0.005 A 
BRANCH  15  18
ATOM     18  S   UNL     1       1.149   5.822  -0.135  0.00  0.00    -0.129 S 
ATOM     19  C   UNL     1      -0.498   6.536   0.130  0.00  0.00    +0.090 C 
ENDBRANCH  15  18
ENDBRANCH   7  12
BRANCH   1  21
ATOM     20  C   UNL     1      -0.164   0.394   5.439  0.00  0.00    -0.014 C 
ATOM     21  C   UNL     1       1.001  -0.147   4.609  0.00  0.00    -0.074 C 
ATOM     22  C   UNL     1       1.787  -1.167   5.437  0.00  0.00    -0.014 C 
ENDBRANCH   1  21
BRANCH  10  23
ATOM     23  C   UNL     1      -1.586  -4.061   0.068  0.00  0.00    +0.388 C 
ATOM     24  O   UNL     1      -2.757  -4.305   0.290  0.00  0.00    -0.241 OA
ATOM     25  O   UNL     1      -0.721  -5.067  -0.173  0.00  0.00    -0.241 OA
ENDBRANCH  10  23
BRANCH   9  26
ATOM     26  N   UNL     1      -1.105  -2.711  -2.276  0.00  0.00    -0.359 N 
ATOM     27  H   UNL     1      -1.441  -3.758  -2.245  0.00  0.00    +0.142 HD
ATOM     28  H   UNL     1      -0.937  -2.216  -3.244  0.00  0.00    +0.142 HD
ENDBRANCH   9  26
BRANCH   8  29
ATOM     29  C   UNL     1      -1.600   0.257  -1.493  0.00  0.00    +0.091 C 
ATOM     30  N   UNL     1      -2.495   0.920  -1.716  0.00  0.00    -0.194 NA
ENDBRANCH   8  29
BRANCH   8  31
ATOM     31  C   UNL     1       0.533  -0.477  -2.301  0.00  0.00    +0.091 C 
ATOM     32  N   UNL     1       1.284  -0.381  -3.148  0.00  0.00    -0.194 NA
ENDBRANCH   8  31
TORSDOF 7
