REMARK  Name = ZINC12362263
REMARK  12 active torsions:
REMARK  status: ('A' for Active; 'I' for Inactive)
REMARK    1  A    between atoms: C_1  and  C_2
REMARK    2  A    between atoms: C_2  and  C_33
REMARK    3  A    between atoms: N_3  and  N_4
REMARK    4  A    between atoms: C_5  and  C_7
REMARK    5  A    between atoms: C_7  and  C_9
REMARK    6  A    between atoms: C_7  and  N_18
REMARK    7  A    between atoms: C_9  and  S_10
REMARK    8  A    between atoms: S_10  and  C_11
REMARK    9  A    between atoms: C_11  and  C_12
REMARK   10  A    between atoms: C_19  and  C_21
REMARK   11  A    between atoms: C_23  and  N_30
REMARK   12  A    between atoms: C_25  and  N_27
REMARK                            x       y       z     vdW  Elec       q    Type
REMARK                         _______ _______ _______ _____ _____    ______ ____
ROOT
ATOM      1  C   UNL     1      -1.290   1.681   0.017  0.00  0.00    +0.171 C 
ENDROOT
BRANCH   1   3
ATOM      2  N   UNL     1      -2.575   2.968   1.694  0.00  0.00    -0.205 N 
ATOM      3  C   UNL     1      -1.375   2.539   1.253  0.00  0.00    +0.253 C 
ATOM      4  O   UNL     1      -0.365   2.845   1.850  0.00  0.00    -0.272 OA
ATOM      5  H   UNL     1      -3.383   2.723   1.216  0.00  0.00    +0.177 HD
BRANCH   2   8
ATOM      6  C   UNL     1      -5.064   3.798   2.525  0.00  0.00    +0.068 C 
ATOM      7  C   UNL     1      -3.809   4.178   3.268  0.00  0.00    +0.063 C 
ATOM      8  N   UNL     1      -2.654   3.766   2.843  0.00  0.00    -0.185 NA
BRANCH   7   9
ATOM      9  C   UNL     1      -3.893   5.018   4.477  0.00  0.00    -0.003 A 
ATOM     10  C   UNL     1      -5.134   5.468   4.934  0.00  0.00    +0.010 A 
ATOM     11  C   UNL     1      -5.205   6.251   6.067  0.00  0.00    +0.001 A 
ATOM     12  C   UNL     1      -4.051   6.597   6.747  0.00  0.00    +0.000 A 
ATOM     13  C   UNL     1      -2.817   6.159   6.297  0.00  0.00    +0.001 A 
ATOM     14  C   UNL     1      -2.732   5.372   5.167  0.00  0.00    +0.010 A 
ENDBRANCH   7   9
ENDBRANCH   2   8
ENDBRANCH   1   3
BRANCH   1  15
ATOM     15  N   UNL     1      -0.011   0.966   0.007  0.00  0.00    -0.299 N 
ATOM     16  C   UNL     1       1.147   1.655   0.000  0.00  0.00    +0.245 C 
ATOM     17  O   UNL     1       1.130   2.871   0.007  0.00  0.00    -0.270 OA
ATOM     18  H   UNL     1       0.002  -0.004   0.002  0.00  0.00    +0.150 HD
BRANCH  16  19
ATOM     19  C   UNL     1       2.437   0.934  -0.016  0.00  0.00    +0.041 A 
ATOM     20  C   UNL     1       2.459  -0.462  -0.018  0.00  0.00    +0.046 A 
ATOM     21  C   UNL     1       3.667  -1.129  -0.038  0.00  0.00    +0.129 A 
ATOM     22  C   UNL     1       4.854  -0.418  -0.046  0.00  0.00    +0.065 A 
ATOM     23  C   UNL     1       4.838   0.966  -0.038  0.00  0.00    +0.129 A 
ATOM     24  C   UNL     1       3.638   1.645  -0.024  0.00  0.00    +0.046 A 
BRANCH  23  25
ATOM     25  N   UNL     1       6.113   1.718  -0.047  0.00  0.00    +0.057 N 
ATOM     26  O   UNL     1       6.101   2.936  -0.040  0.00  0.00    -0.126 OA
ATOM     27  O   UNL     1       7.174   1.119  -0.059  0.00  0.00    -0.126 OA
ENDBRANCH  23  25
BRANCH  21  28
ATOM     28  N   UNL     1       3.693  -2.609  -0.047  0.00  0.00    +0.057 N 
ATOM     29  O   UNL     1       4.758  -3.200  -0.060  0.00  0.00    -0.126 OA
ATOM     30  O   UNL     1       2.648  -3.236  -0.040  0.00  0.00    -0.126 OA
ENDBRANCH  21  28
ENDBRANCH  16  19
ENDBRANCH   1  15
BRANCH   1  31
ATOM     31  C   UNL     1      -1.389   2.566  -1.227  0.00  0.00    +0.101 C 
BRANCH  31  32
ATOM     32  S   UNL     1      -1.434   1.522  -2.710  0.00  0.00    -0.154 S 
BRANCH  32  33
ATOM     33  C   UNL     1      -1.550   2.708  -4.077  0.00  0.00    +0.104 C 
BRANCH  33  34
ATOM     34  C   UNL     1      -1.596   1.962  -5.386  0.00  0.00    -0.038 A 
ATOM     35  C   UNL     1      -0.423   1.666  -6.055  0.00  0.00    +0.004 A 
ATOM     36  C   UNL     1      -0.465   0.978  -7.253  0.00  0.00    +0.000 A 
ATOM     37  C   UNL     1      -1.681   0.594  -7.787  0.00  0.00    +0.000 A 
ATOM     38  C   UNL     1      -2.855   0.895  -7.121  0.00  0.00    +0.000 A 
ATOM     39  C   UNL     1      -2.812   1.579  -5.921  0.00  0.00    +0.004 A 
ENDBRANCH  33  34
ENDBRANCH  32  33
ENDBRANCH  31  32
ENDBRANCH   1  31
TORSDOF 11
