REMARK  Name = ZINC36821095
REMARK  13 active torsions:
REMARK  status: ('A' for Active; 'I' for Inactive)
REMARK    1  A    between atoms: C_1  and  C_2
REMARK    2  A    between atoms: C_3  and  C_32
REMARK    3  A    between atoms: N_9  and  C_29
REMARK    4  A    between atoms: C_10  and  S_12
REMARK    5  A    between atoms: S_12  and  C_13
REMARK    6  A    between atoms: C_13  and  C_15
REMARK    7  A    between atoms: C_13  and  C_16
REMARK    8  A    between atoms: C_16  and  C_18
REMARK    9  A    between atoms: C_19  and  N_28
REMARK   10  A    between atoms: N_20  and  C_27
REMARK   11  A    between atoms: N_23  and  C_26
REMARK   12  A    between atoms: C_29  and  C_30
REMARK   13  A    between atoms: C_29  and  C_31
REMARK                            x       y       z     vdW  Elec       q    Type
REMARK                         _______ _______ _______ _____ _____    ______ ____
ROOT
ATOM      1  C   UNL     1       0.321  -5.318   3.915  0.00  0.00    +0.122 C 
ATOM      2  C   UNL     1       1.461  -5.570   2.926  0.00  0.00    +0.028 C 
ENDROOT
BRANCH   1   3
ATOM      3  C   UNL     1       0.305  -6.412   4.952  0.00  0.00    +0.185 C 
ATOM      4  O   UNL     1       0.874  -6.250   6.013  0.00  0.00    -0.291 OA
BRANCH   3   5
ATOM      5  C   UNL     1      -0.370  -7.623   4.690  0.00  0.00    +0.121 A 
ATOM      6  C   UNL     1      -0.524  -8.599   5.690  0.00  0.00    +0.116 A 
ATOM      7  N   UNL     1      -1.185  -9.755   5.389  0.00  0.00    -0.284 N 
ATOM      8  C   UNL     1      -1.687  -9.972   4.163  0.00  0.00    +0.333 A 
ATOM      9  O   UNL     1      -2.268 -11.018   3.946  0.00  0.00    -0.246 OA
ATOM     10  N   UNL     1      -1.572  -9.077   3.169  0.00  0.00    -0.263 N 
ATOM     11  C   UNL     1      -0.941  -7.901   3.366  0.00  0.00    +0.269 A 
ATOM     12  O   UNL     1      -0.843  -7.090   2.464  0.00  0.00    -0.267 OA
ATOM     13  C   UNL     1      -2.144  -9.379   1.854  0.00  0.00    +0.157 C 
ATOM     14  C   UNL     1      -1.350 -10.778   6.424  0.00  0.00    +0.155 C 
BRANCH   6  15
ATOM     15  N   UNL     1      -0.020  -8.395   6.938  0.00  0.00    -0.344 N 
ATOM     16  H   UNL     1       0.281  -7.512   7.201  0.00  0.00    +0.144 HD
ATOM     17  H   UNL     1       0.037  -9.134   7.564  0.00  0.00    +0.144 HD
ENDBRANCH   6  15
ENDBRANCH   3   5
ENDBRANCH   1   3
BRANCH   1  18
ATOM     18  S   UNL     1       0.569  -3.716   4.729  0.00  0.00    -0.076 S 
BRANCH  18  28
ATOM     19  C   UNL     1       0.128   1.580   0.233  0.00  0.00    +0.045 C 
ATOM     20  C   UNL     1       0.019   0.078   0.174  0.00  0.00    -0.026 A 
ATOM     21  C   UNL     1      -0.221  -0.539  -0.992  0.00  0.00    -0.008 A 
ATOM     22  S   UNL     1      -0.259  -2.265  -0.547  0.00  0.00    -0.073 S 
ATOM     23  C   UNL     1       0.049  -2.107   1.193  0.00  0.00    +0.117 A 
ATOM     24  C   UNL     1       0.178  -0.718   1.379  0.00  0.00    +0.075 A 
ATOM     25  C   UNL     1       0.442  -0.291   2.718  0.00  0.00    +0.263 A 
ATOM     26  O   UNL     1       0.564   0.894   2.975  0.00  0.00    -0.267 OA
ATOM     27  N   UNL     1       0.551  -1.214   3.691  0.00  0.00    -0.285 N 
ATOM     28  C   UNL     1       0.417  -2.545   3.422  0.00  0.00    +0.174 A 
ATOM     29  N   UNL     1       0.164  -2.966   2.199  0.00  0.00    -0.216 NA
ATOM     30  C   UNL     1      -0.413   0.079  -2.353  0.00  0.00    +0.052 C 
BRANCH  27  31
ATOM     31  C   UNL     1       0.821  -0.782   5.064  0.00  0.00    +0.087 C 
ATOM     32  C   UNL     1       2.150  -0.026   5.109  0.00  0.00    +0.031 C 
ATOM     33  C   UNL     1      -0.305   0.137   5.541  0.00  0.00    +0.031 C 
ENDBRANCH  27  31
ENDBRANCH  18  28
ENDBRANCH   1  18
TORSDOF 6
