REMARK  Name = ZINC39685037
REMARK  7 active torsions:
REMARK  status: ('A' for Active; 'I' for Inactive)
REMARK    1  A    between atoms: C_4  and  C_33
REMARK    2  A    between atoms: C_5  and  C_7
REMARK    3  A    between atoms: C_11  and  C_20
REMARK    4  A    between atoms: N_22  and  C_23
REMARK    5  A    between atoms: C_23  and  C_24
REMARK    6  A    between atoms: C_24  and  O_25
REMARK    7  A    between atoms: O_25  and  C_26
REMARK                            x       y       z     vdW  Elec       q    Type
REMARK                         _______ _______ _______ _____ _____    ______ ____
ROOT
ATOM      1  C   UNL     1       1.187  -1.958  -0.100  0.00  0.00    +0.247 C 
ATOM      2  O   UNL     1       2.272  -2.506  -0.125  0.00  0.00    -0.270 OA
ATOM      3  N   UNL     1       0.067  -2.689   0.061  0.00  0.00    -0.296 N 
ATOM      4  C   UNL     1      -1.338  -2.219   0.024  0.00  0.00    +0.121 C 
ATOM      5  C   UNL     1      -2.104  -3.335  -0.721  0.00  0.00    +0.100 C 
ATOM      6  C   UNL     1      -1.248  -4.597  -0.523  0.00  0.00    -0.004 C 
ATOM      7  C   UNL     1      -0.040  -4.147   0.311  0.00  0.00    +0.115 C 
ATOM      8  C   UNL     1      -2.042  -5.662   0.228  0.00  0.00    -0.010 C 
ATOM      9  C   UNL     1      -1.190  -6.928   0.362  0.00  0.00    -0.082 C 
ATOM     10  N   UNL     1      -0.821  -7.415  -0.973  0.00  0.00    +0.379 N 
ATOM     11  C   UNL     1       0.020  -6.422  -1.653  0.00  0.00    -0.082 C 
ATOM     12  C   UNL     1      -0.780  -5.135  -1.872  0.00  0.00    -0.010 C 
ATOM     13  H   UNL     1      -0.312  -8.281  -0.884  0.00  0.00    -0.086 HD
ATOM     14  H   UNL     1      -1.657  -7.572  -1.515  0.00  0.00    -0.086 HD
ENDROOT
BRANCH   1  19
ATOM     15  C   UNL     1       0.150   1.614   0.421  0.00  0.00    +0.001 A 
ATOM     16  C   UNL     1       0.928   2.260  -0.524  0.00  0.00    +0.001 A 
ATOM     17  C   UNL     1       1.790   1.539  -1.330  0.00  0.00    +0.013 A 
ATOM     18  C   UNL     1       1.879   0.168  -1.198  0.00  0.00    +0.067 A 
ATOM     19  C   UNL     1       1.097  -0.490  -0.247  0.00  0.00    +0.049 A 
ATOM     20  C   UNL     1       0.230   0.244   0.564  0.00  0.00    +0.013 A 
BRANCH  18  21
ATOM     21  C   UNL     1       2.818  -0.616  -2.078  0.00  0.00    +0.418 C 
ATOM     22  F   UNL     1       3.486   0.258  -2.942  0.00  0.00    -0.166 F 
ATOM     23  F   UNL     1       3.751  -1.288  -1.281  0.00  0.00    -0.166 F 
ATOM     24  F   UNL     1       2.088  -1.546  -2.826  0.00  0.00    -0.166 F 
ENDBRANCH  18  21
ENDBRANCH   1  19
BRANCH   5  25
ATOM     25  C   UNL     1      -3.471  -3.526  -0.117  0.00  0.00    +0.218 C 
ATOM     26  O   UNL     1      -3.647  -3.317   1.065  0.00  0.00    -0.275 OA
ATOM     27  N   UNL     1      -4.500  -3.927  -0.890  0.00  0.00    -0.312 N 
ATOM     28  H   UNL     1      -4.359  -4.094  -1.835  0.00  0.00    +0.149 HD
BRANCH  27  29
ATOM     29  C   UNL     1      -5.829  -4.113  -0.303  0.00  0.00    +0.145 C 
BRANCH  29  30
ATOM     30  C   UNL     1      -6.807  -4.568  -1.389  0.00  0.00    +0.248 C 
BRANCH  30  31
ATOM     31  O   UNL     1      -6.421  -5.859  -1.866  0.00  0.00    -0.488 OA
BRANCH  31  32
ATOM     32  C   UNL     1      -7.191  -6.412  -2.840  0.00  0.00    +0.156 A 
ATOM     33  C   UNL     1      -8.291  -5.725  -3.330  0.00  0.00    +0.048 A 
ATOM     34  C   UNL     1      -9.072  -6.289  -4.321  0.00  0.00    +0.004 A 
ATOM     35  C   UNL     1      -8.759  -7.538  -4.823  0.00  0.00    +0.003 A 
ATOM     36  C   UNL     1      -7.663  -8.227  -4.337  0.00  0.00    +0.042 A 
ATOM     37  C   UNL     1      -6.874  -7.665  -3.350  0.00  0.00    +0.165 A 
ATOM     38  F   UNL     1      -5.800  -8.335  -2.879  0.00  0.00    -0.202 F 
ENDBRANCH  31  32
ENDBRANCH  30  31
ENDBRANCH  29  30
ENDBRANCH  27  29
ENDBRANCH   5  25
TORSDOF 7
