REMARK  Name = ZINC14642225
REMARK  7 active torsions:
REMARK  status: ('A' for Active; 'I' for Inactive)
REMARK    1  A    between atoms: C_4  and  C_7
REMARK    2  A    between atoms: C_10  and  O_14
REMARK    3  A    between atoms: O_14  and  C_15
REMARK    4  A    between atoms: C_15  and  C_16
REMARK    5  A    between atoms: N_18  and  N_19
REMARK    6  A    between atoms: C_20  and  C_22
REMARK    7  A    between atoms: C_26  and  N_28
REMARK                            x       y       z     vdW  Elec       q    Type
REMARK                         _______ _______ _______ _____ _____    ______ ____
ROOT
ATOM      1  C   UNL     1       2.227   8.103   0.020  0.00  0.00    +0.267 C 
ATOM      2  O   UNL     1       3.285   7.511   0.007  0.00  0.00    -0.271 OA
ATOM      3  N   UNL     1       1.069   7.414   0.028  0.00  0.00    -0.231 N 
ATOM      4  H   UNL     1       0.222   7.887   0.039  0.00  0.00    +0.173 HD
ENDROOT
BRANCH   3   5
ATOM      5  N   UNL     1       1.088   6.013   0.022  0.00  0.00    -0.230 N 
ATOM      6  C   UNL     1      -0.070   5.323   0.030  0.00  0.00    +0.260 C 
ATOM      7  O   UNL     1      -1.131   5.916   0.043  0.00  0.00    -0.269 OA
ATOM      8  H   UNL     1       1.934   5.539   0.011  0.00  0.00    +0.173 HD
BRANCH   6   9
ATOM      9  C   UNL     1      -0.050   3.845   0.023  0.00  0.00    +0.040 A 
ATOM     10  C   UNL     1       1.166   3.160   0.007  0.00  0.00    +0.013 A 
ATOM     11  C   UNL     1       1.178   1.781   0.000  0.00  0.00    +0.003 A 
ATOM     12  C   UNL     1      -0.013   1.076   0.008  0.00  0.00    +0.033 A 
ATOM     13  C   UNL     1      -1.222   1.748   0.017  0.00  0.00    +0.127 A 
ATOM     14  C   UNL     1      -1.247   3.128   0.031  0.00  0.00    +0.045 A 
BRANCH  13  15
ATOM     15  N   UNL     1      -2.490   0.986   0.019  0.00  0.00    +0.056 N 
ATOM     16  O   UNL     1      -2.469  -0.232   0.013  0.00  0.00    -0.126 OA
ATOM     17  O   UNL     1      -3.556   1.576   0.028  0.00  0.00    -0.126 OA
ENDBRANCH  13  15
ENDBRANCH   6   9
ENDBRANCH   3   5
BRANCH   1  18
ATOM     18  C   UNL     1       2.206   9.610   0.028  0.00  0.00    +0.326 C 
BRANCH  18  19
ATOM     19  O   UNL     1       3.547  10.105   0.017  0.00  0.00    -0.482 OA
BRANCH  19  23
ATOM     20  C   UNL     1       4.032  14.206   0.030  0.00  0.00    -0.017 A 
ATOM     21  C   UNL     1       2.752  13.653   0.040  0.00  0.00    +0.012 A 
ATOM     22  C   UNL     1       2.593  12.284   0.030  0.00  0.00    +0.047 A 
ATOM     23  C   UNL     1       3.707  11.454   0.021  0.00  0.00    +0.135 A 
ATOM     24  C   UNL     1       4.983  12.001   0.011  0.00  0.00    +0.060 A 
ATOM     25  C   UNL     1       5.148  13.371   0.015  0.00  0.00    +0.027 A 
ATOM     26 BR   UNL     1       6.497  10.867  -0.009  0.00  0.00    -0.046 Br
BRANCH  20  30
ATOM     27  C   UNL     1       4.530  18.428   0.045  0.00  0.00    +0.000 A 
ATOM     28  C   UNL     1       3.258  17.885   0.054  0.00  0.00    +0.001 A 
ATOM     29  C   UNL     1       3.091  16.515   0.050  0.00  0.00    +0.008 A 
ATOM     30  C   UNL     1       4.206  15.679   0.035  0.00  0.00    -0.018 A 
ATOM     31  C   UNL     1       5.485  16.233   0.031  0.00  0.00    +0.008 A 
ATOM     32  C   UNL     1       5.640  17.604   0.031  0.00  0.00    +0.001 A 
ENDBRANCH  20  30
ENDBRANCH  19  23
ENDBRANCH  18  19
ENDBRANCH   1  18
TORSDOF 7
