REMARK  Name = ZINC36029682
REMARK  12 active torsions:
REMARK  status: ('A' for Active; 'I' for Inactive)
REMARK    1  A    between atoms: C_1  and  C_2
REMARK    2  A    between atoms: C_2  and  C_3
REMARK    3  A    between atoms: C_2  and  C_4
REMARK    4  A    between atoms: C_4  and  C_5
REMARK    5  A    between atoms: N_9  and  C_26
REMARK    6  A    between atoms: C_17  and  C_19
REMARK    7  A    between atoms: C_26  and  C_27
REMARK    8  A    between atoms: C_27  and  C_28
REMARK    9  A    between atoms: C_31  and  O_36
REMARK   10  A    between atoms: C_32  and  O_34
REMARK   11  A    between atoms: O_34  and  C_35
REMARK   12  A    between atoms: O_36  and  C_37
REMARK                            x       y       z     vdW  Elec       q    Type
REMARK                         _______ _______ _______ _____ _____    ______ ____
ROOT
ATOM      1  C   UNL     1      -1.893  -0.256  -0.326  0.00  0.00    +0.019 C 
ATOM      2  C   UNL     1      -3.147  -1.049  -0.620  0.00  0.00    +0.200 C 
ATOM      3  O   UNL     1      -3.368  -2.186  -0.258  0.00  0.00    -0.277 OA
ATOM      4  N   UNL     1      -3.979  -0.280  -1.352  0.00  0.00    -0.313 N 
ATOM      5  C   UNL     1      -3.355   1.025  -1.591  0.00  0.00    +0.006 C 
ATOM      6  N   UNL     1      -2.260   1.154  -0.604  0.00  0.00    +0.401 N 
ATOM      7  C   UNL     1      -4.373   2.144  -1.383  0.00  0.00    +0.025 C 
ATOM      8  C   UNL     1      -5.521   1.980  -2.386  0.00  0.00    +0.108 C 
ATOM      9  N   UNL     1      -4.957   1.908  -3.741  0.00  0.00    -0.298 N 
ATOM     10  C   UNL     1      -3.915   0.912  -4.022  0.00  0.00    +0.108 C 
ATOM     11  C   UNL     1      -2.781   1.085  -3.005  0.00  0.00    +0.025 C 
ATOM     12  C   UNL     1      -5.389   2.741  -4.708  0.00  0.00    +0.247 C 
ATOM     13  O   UNL     1      -6.178   3.627  -4.441  0.00  0.00    -0.270 OA
ATOM     14  H   UNL     1      -2.589   1.609   0.235  0.00  0.00    -0.082 HD
ATOM     15  H   UNL     1      -1.478   1.655  -1.000  0.00  0.00    -0.082 HD
ENDROOT
BRANCH  12  16
ATOM     16  C   UNL     1      -4.903   2.578  -6.094  0.00  0.00    +0.037 A 
ATOM     17  C   UNL     1      -4.784   1.302  -6.649  0.00  0.00    +0.016 A 
ATOM     18  C   UNL     1      -4.330   1.156  -7.942  0.00  0.00    +0.039 A 
ATOM     19  C   UNL     1      -3.992   2.273  -8.692  0.00  0.00    +0.123 A 
ATOM     20  C   UNL     1      -4.109   3.542  -8.146  0.00  0.00    +0.039 A 
ATOM     21  C   UNL     1      -4.568   3.700  -6.855  0.00  0.00    +0.016 A 
ATOM     22  F   UNL     1      -3.547   2.124  -9.959  0.00  0.00    -0.205 F 
ENDBRANCH  12  16
BRANCH   1  23
ATOM     23  C   UNL     1      -1.488  -0.422   1.140  0.00  0.00    -0.004 C 
BRANCH  23  25
ATOM     24  C   UNL     1       0.107   0.333   2.909  0.00  0.00    +0.007 C 
ATOM     25  C   UNL     1      -0.226   0.398   1.417  0.00  0.00    -0.018 C 
ATOM     26  C   UNL     1       0.940  -0.173   0.609  0.00  0.00    +0.007 C 
ENDBRANCH  23  25
ENDBRANCH   1  23
BRANCH   4  27
ATOM     27  C   UNL     1      -5.302  -0.685  -1.834  0.00  0.00    +0.110 C 
BRANCH  27  28
ATOM     28  C   UNL     1      -6.350  -0.380  -0.763  0.00  0.00    +0.054 C 
BRANCH  28  29
ATOM     29  C   UNL     1      -7.703  -0.844  -1.238  0.00  0.00    -0.042 A 
ATOM     30  C   UNL     1      -8.514   0.015  -1.955  0.00  0.00    +0.007 A 
ATOM     31  C   UNL     1      -9.756  -0.406  -2.393  0.00  0.00    +0.049 A 
ATOM     32  C   UNL     1     -10.190  -1.692  -2.113  0.00  0.00    +0.161 A 
ATOM     33  C   UNL     1      -9.374  -2.557  -1.391  0.00  0.00    +0.162 A 
ATOM     34  C   UNL     1      -8.128  -2.130  -0.960  0.00  0.00    +0.053 A 
BRANCH  33  35
ATOM     35  O   UNL     1      -9.795  -3.820  -1.114  0.00  0.00    -0.491 OA
ATOM     36  C   UNL     1      -8.905  -4.652  -0.369  0.00  0.00    +0.277 C 
ENDBRANCH  33  35
BRANCH  32  37
ATOM     37  O   UNL     1     -11.412  -2.107  -2.543  0.00  0.00    -0.491 OA
ATOM     38  C   UNL     1     -12.196  -1.165  -3.278  0.00  0.00    +0.277 C 
ENDBRANCH  32  37
ENDBRANCH  28  29
ENDBRANCH  27  28
ENDBRANCH   4  27
TORSDOF 8
