REMARK  Name = ZINC35022853
REMARK  8 active torsions:
REMARK  status: ('A' for Active; 'I' for Inactive)
REMARK    1  A    between atoms: C_6  and  C_7
REMARK    2  A    between atoms: N_9  and  C_10
REMARK    3  A    between atoms: C_10  and  C_12
REMARK    4  A    between atoms: C_10  and  N_16
REMARK    5  A    between atoms: N_16  and  C_17
REMARK    6  A    between atoms: C_17  and  N_19
REMARK    7  A    between atoms: N_19  and  C_20
REMARK    8  A    between atoms: C_23  and  N_26
REMARK                            x       y       z     vdW  Elec       q    Type
REMARK                         _______ _______ _______ _____ _____    ______ ____
ROOT
ATOM      1  C   UNL     1      -3.118  -3.405  -0.213  0.00  0.00    +0.211 C 
ENDROOT
BRANCH   1   4
ATOM      2  C   UNL     1      -2.384  -1.168  -0.842  0.00  0.00    +0.246 C 
ATOM      3  O   UNL     1      -3.539  -0.797  -0.755  0.00  0.00    -0.270 OA
ATOM      4  N   UNL     1      -2.069  -2.454  -0.591  0.00  0.00    -0.290 N 
ATOM      5  H   UNL     1      -1.148  -2.750  -0.661  0.00  0.00    +0.151 HD
BRANCH   2  11
ATOM      6  C   UNL     1      -1.650   1.124  -1.484  0.00  0.00    +0.014 A 
ATOM      7  C   UNL     1      -0.658   2.014  -1.840  0.00  0.00    +0.021 A 
ATOM      8  C   UNL     1       0.656   1.588  -1.938  0.00  0.00    +0.041 A 
ATOM      9  C   UNL     1       0.983   0.267  -1.681  0.00  0.00    +0.021 A 
ATOM     10  C   UNL     1       0.000  -0.632  -1.325  0.00  0.00    +0.014 A 
ATOM     11  C   UNL     1      -1.327  -0.209  -1.224  0.00  0.00    +0.037 A 
ATOM     12 CL   UNL     1       1.899   2.715  -2.386  0.00  0.00    -0.084 Cl
ENDBRANCH   2  11
ENDBRANCH   1   4
BRANCH   1  13
ATOM     13  C   UNL     1      -2.934  -4.705  -0.998  0.00  0.00    +0.225 C 
ATOM     14 CL   UNL     1      -1.318  -5.411  -0.620  0.00  0.00    -0.080 Cl
ATOM     15 CL   UNL     1      -4.224  -5.875  -0.532  0.00  0.00    -0.080 Cl
ATOM     16 CL   UNL     1      -3.042  -4.363  -2.764  0.00  0.00    -0.080 Cl
ENDBRANCH   1  13
BRANCH   1  17
ATOM     17  N   UNL     1      -3.030  -3.683   1.222  0.00  0.00    -0.305 N 
ATOM     18  H   UNL     1      -2.326  -4.257   1.563  0.00  0.00    +0.150 HD
BRANCH  17  19
ATOM     19  C   UNL     1      -3.927  -3.142   2.070  0.00  0.00    +0.136 C 
ATOM     20  S   UNL     1      -5.169  -2.128   1.469  0.00  0.00    -0.019 S 
BRANCH  19  21
ATOM     21  N   UNL     1      -3.846  -3.398   3.390  0.00  0.00    -0.297 N 
ATOM     22  H   UNL     1      -3.181  -4.020   3.724  0.00  0.00    +0.154 HD
BRANCH  21  23
ATOM     23  C   UNL     1      -4.722  -2.767   4.280  0.00  0.00    +0.033 A 
ATOM     24  C   UNL     1      -6.078  -2.694   3.989  0.00  0.00    +0.025 A 
ATOM     25  C   UNL     1      -6.939  -2.070   4.869  0.00  0.00    +0.034 A 
ATOM     26  C   UNL     1      -6.453  -1.517   6.040  0.00  0.00    +0.126 A 
ATOM     27  C   UNL     1      -5.104  -1.587   6.333  0.00  0.00    +0.034 A 
ATOM     28  C   UNL     1      -4.238  -2.216   5.460  0.00  0.00    +0.025 A 
BRANCH  26  29
ATOM     29  N   UNL     1      -7.380  -0.848   6.981  0.00  0.00    +0.056 N 
ATOM     30  O   UNL     1      -8.560  -0.786   6.726  0.00  0.00    -0.126 OA
ATOM     31  O   UNL     1      -6.956  -0.365   8.005  0.00  0.00    -0.126 OA
ENDBRANCH  26  29
ENDBRANCH  21  23
ENDBRANCH  19  21
ENDBRANCH  17  19
ENDBRANCH   1  17
TORSDOF 8
