REMARK  Name = ZINC36271397
REMARK  5 active torsions:
REMARK  status: ('A' for Active; 'I' for Inactive)
REMARK    1  A    between atoms: C_1  and  C_2
REMARK    2  A    between atoms: N_7  and  C_9
REMARK    3  A    between atoms: C_9  and  C_10
REMARK    4  A    between atoms: C_11  and  C_20
REMARK    5  A    between atoms: C_16  and  N_19
REMARK                            x       y       z     vdW  Elec       q    Type
REMARK                         _______ _______ _______ _____ _____    ______ ____
ROOT
ATOM      1  C   UNL     1       1.506  -3.994   2.110  0.00  0.00    +0.035 A 
ATOM      2  C   UNL     1       0.862  -4.876   2.925  0.00  0.00    +0.091 A 
ATOM      3  N   UNL     1       1.466  -6.069   2.815  0.00  0.00    -0.228 NA
ATOM      4  C   UNL     1       2.471  -5.969   1.955  0.00  0.00    +0.138 A 
ATOM      5  N   UNL     1       2.515  -4.679   1.494  0.00  0.00    -0.303 N 
ATOM      6  C   UNL     1       3.462  -4.301   0.583  0.00  0.00    +0.115 A 
ATOM      7  C   UNL     1       4.369  -5.196   0.121  0.00  0.00    +0.041 A 
ATOM      8  C   UNL     1       4.343  -6.530   0.576  0.00  0.00    +0.028 A 
ATOM      9  C   UNL     1       3.410  -6.911   1.488  0.00  0.00    +0.048 A 
ENDROOT
BRANCH   2  10
ATOM     10  C   UNL     1      -0.306  -4.569   3.788  0.00  0.00    +0.004 A 
ATOM     11  C   UNL     1      -1.378  -5.458   3.852  0.00  0.00    +0.014 A 
ATOM     12  C   UNL     1      -2.465  -5.175   4.655  0.00  0.00    +0.048 A 
ATOM     13  C   UNL     1      -2.493  -4.007   5.398  0.00  0.00    +0.142 A 
ATOM     14  C   UNL     1      -1.423  -3.114   5.337  0.00  0.00    +0.076 A 
ATOM     15  C   UNL     1      -0.330  -3.396   4.539  0.00  0.00    +0.037 A 
ATOM     16  N   UNL     1      -1.470  -1.935   6.095  0.00  0.00    -0.280 N 
ATOM     17  C   UNL     1      -2.375  -1.834   7.093  0.00  0.00    +0.255 C 
ATOM     18  O   UNL     1      -2.454  -0.812   7.743  0.00  0.00    -0.272 OA
ATOM     19  C   UNL     1      -3.287  -2.995   7.396  0.00  0.00    +0.325 C 
ATOM     20  O   UNL     1      -3.559  -3.719   6.193  0.00  0.00    -0.481 OA
ATOM     21  H   UNL     1      -0.862  -1.203   5.907  0.00  0.00    +0.155 HD
ENDBRANCH   2  10
BRANCH   7  22
ATOM     22  N   UNL     1       5.334  -4.795  -0.813  0.00  0.00    -0.357 N 
ATOM     23  H   UNL     1       5.353  -3.877  -1.127  0.00  0.00    +0.142 HD
ATOM     24  H   UNL     1       5.983  -5.435  -1.145  0.00  0.00    +0.142 HD
ENDBRANCH   7  22
BRANCH   1  25
ATOM     25  C   UNL     1       1.166  -2.538   1.920  0.00  0.00    -0.022 C 
BRANCH  25  31
ATOM     26  C   UNL     1      -0.938   0.701  -1.089  0.00  0.00    +0.005 C 
ATOM     27  C   UNL     1      -0.704  -0.788  -0.824  0.00  0.00    -0.031 C 
ATOM     28  C   UNL     1      -2.052  -1.499  -0.674  0.00  0.00    -0.001 C 
ATOM     29  C   UNL     1      -1.806  -2.971  -0.331  0.00  0.00    -0.018 C 
ATOM     30  C   UNL     1      -0.959  -3.059   0.940  0.00  0.00    -0.078 C 
ATOM     31  N   UNL     1       0.326  -2.384   0.724  0.00  0.00    +0.384 N 
ATOM     32  C   UNL     1       0.103  -0.957   0.465  0.00  0.00    -0.075 C 
ATOM     33  H   UNL     1       0.794  -2.799  -0.068  0.00  0.00    -0.081 HD
ENDBRANCH  25  31
ENDBRANCH   1  25
TORSDOF 4
