REMARK  Name = ZINC08738839
REMARK  6 active torsions:
REMARK  status: ('A' for Active; 'I' for Inactive)
REMARK    1  A    between atoms: C_1  and  C_2
REMARK    2  A    between atoms: C_5  and  N_9
REMARK    3  A    between atoms: C_7  and  C_8
REMARK    4  A    between atoms: C_13  and  C_14
REMARK    5  A    between atoms: C_17  and  C_19
REMARK    6  A    between atoms: C_26  and  O_30
REMARK                            x       y       z     vdW  Elec       q    Type
REMARK                         _______ _______ _______ _____ _____    ______ ____
ROOT
ATOM      1  N   UNL     1       6.260   0.548   0.162  0.00  0.00    -0.188 N 
ATOM      2  C   UNL     1       5.719   1.714   0.578  0.00  0.00    +0.264 C 
ATOM      3  O   UNL     1       4.565   1.768   0.961  0.00  0.00    -0.269 OA
ATOM      4  C   UNL     1       6.566   2.917   0.547  0.00  0.00    +0.100 C 
ATOM      5  C   UNL     1       6.075   4.159   0.956  0.00  0.00    +0.064 C 
ATOM      6  C   UNL     1       7.905   2.766   0.092  0.00  0.00    +0.218 C 
ATOM      7  N   UNL     1       8.326   1.570  -0.285  0.00  0.00    -0.127 NA
ATOM      8  C   UNL     1       7.537   0.500  -0.252  0.00  0.00    +0.340 C 
ATOM      9  O   UNL     1       7.992  -0.571  -0.615  0.00  0.00    -0.250 OA
ENDROOT
BRANCH   1  14
ATOM     10  C   UNL     1       3.129  -4.184   0.195  0.00  0.00    +0.044 C 
ATOM     11  C   UNL     1       3.960  -2.927   0.187  0.00  0.00    -0.047 A 
ATOM     12  C   UNL     1       3.985  -2.124  -0.939  0.00  0.00    +0.005 A 
ATOM     13  C   UNL     1       4.747  -0.972  -0.950  0.00  0.00    +0.024 A 
ATOM     14  C   UNL     1       5.487  -0.620   0.171  0.00  0.00    +0.046 A 
ATOM     15  C   UNL     1       5.463  -1.431   1.297  0.00  0.00    +0.027 A 
ATOM     16  C   UNL     1       4.696  -2.579   1.304  0.00  0.00    -0.046 A 
ATOM     17  C   UNL     1       4.665  -3.457   2.529  0.00  0.00    +0.044 C 
ENDBRANCH   1  14
BRANCH   5  18
ATOM     18  C   UNL     1       4.711   4.319   1.221  0.00  0.00    +0.129 A 
ATOM     19  C   UNL     1       4.162   5.097   2.236  0.00  0.00    +0.050 A 
ATOM     20  C   UNL     1       2.781   4.971   2.136  0.00  0.00    +0.050 A 
ATOM     21  C   UNL     1       2.526   4.127   1.072  0.00  0.00    +0.136 A 
ATOM     22  O   UNL     1       3.698   3.742   0.539  0.00  0.00    -0.455 OA
BRANCH  21  23
ATOM     23  C   UNL     1       1.191   3.712   0.604  0.00  0.00    +0.017 A 
ATOM     24  C   UNL     1       1.067   2.850  -0.490  0.00  0.00    +0.014 A 
ATOM     25  C   UNL     1      -0.183   2.466  -0.923  0.00  0.00    +0.039 A 
ATOM     26  C   UNL     1      -1.318   2.937  -0.280  0.00  0.00    +0.123 A 
ATOM     27  C   UNL     1      -1.202   3.788   0.809  0.00  0.00    +0.039 A 
ATOM     28  C   UNL     1       0.043   4.180   1.251  0.00  0.00    +0.014 A 
ATOM     29  F   UNL     1      -2.542   2.562  -0.712  0.00  0.00    -0.205 F 
ENDBRANCH  21  23
ENDBRANCH   5  18
BRANCH   6  30
ATOM     30  O   UNL     1       8.735   3.830   0.044  0.00  0.00    -0.493 OA
ATOM     31  H   UNL     1       9.623   3.622  -0.279  0.00  0.00    +0.294 HD
ENDBRANCH   6  30
TORSDOF 4
