REMARK  Name = ZINC03665898
REMARK  5 active torsions:
REMARK  status: ('A' for Active; 'I' for Inactive)
REMARK    1  A    between atoms: C_7  and  C_20
REMARK    2  A    between atoms: C_7  and  O_33
REMARK    3  A    between atoms: N_8  and  C_12
REMARK    4  A    between atoms: N_22  and  C_23
REMARK    5  A    between atoms: C_23  and  C_24
REMARK                            x       y       z     vdW  Elec       q    Type
REMARK                         _______ _______ _______ _____ _____    ______ ____
ROOT
ATOM      1  C   UNL     1       0.282   1.405   1.093  0.00  0.00    +0.001 A 
ATOM      2  C   UNL     1       1.299   2.099   0.463  0.00  0.00    +0.002 A 
ATOM      3  C   UNL     1       2.353   1.421  -0.116  0.00  0.00    +0.024 A 
ATOM      4  C   UNL     1       2.394   0.034  -0.065  0.00  0.00    +0.043 A 
ATOM      5  C   UNL     1       1.367  -0.657   0.572  0.00  0.00    +0.033 A 
ATOM      6  C   UNL     1       0.318   0.022   1.147  0.00  0.00    +0.010 A 
ATOM      7  C   UNL     1       1.442  -2.166   0.609  0.00  0.00    +0.247 C 
ATOM      8  N   UNL     1       2.609  -2.791  -0.038  0.00  0.00    -0.214 N 
ATOM      9  C   UNL     1       3.534  -2.007  -0.620  0.00  0.00    +0.314 C 
ATOM     10  O   UNL     1       4.492  -2.537  -1.150  0.00  0.00    -0.252 OA
ATOM     11  N   UNL     1       3.450  -0.671  -0.643  0.00  0.00    -0.269 N 
ATOM     12  H   UNL     1       4.155  -0.170  -1.082  0.00  0.00    +0.156 HD
ENDROOT
BRANCH   8  13
ATOM     13  C   UNL     1       2.752  -4.183  -0.046  0.00  0.00    +0.043 A 
ATOM     14  C   UNL     1       2.133  -4.941  -1.032  0.00  0.00    +0.025 A 
ATOM     15  C   UNL     1       2.276  -6.314  -1.039  0.00  0.00    +0.023 A 
ATOM     16  C   UNL     1       3.036  -6.937  -0.064  0.00  0.00    +0.059 A 
ATOM     17  C   UNL     1       3.654  -6.185   0.921  0.00  0.00    +0.061 A 
ATOM     18  C   UNL     1       3.519  -4.809   0.928  0.00  0.00    +0.045 A 
ATOM     19 CL   UNL     1       4.606  -6.969   2.142  0.00  0.00    -0.082 Cl
ATOM     20 CL   UNL     1       3.212  -8.664  -0.074  0.00  0.00    -0.082 Cl
ENDBRANCH   8  13
BRANCH   7  21
ATOM     21  C   UNL     1       1.425  -2.596   2.053  0.00  0.00    +0.269 C 
ATOM     22  O   UNL     1       0.540  -3.318   2.461  0.00  0.00    -0.270 OA
ATOM     23  N   UNL     1       2.394  -2.179   2.892  0.00  0.00    -0.307 N 
ATOM     24  H   UNL     1       3.103  -1.602   2.566  0.00  0.00    +0.149 HD
BRANCH  23  25
ATOM     25  C   UNL     1       2.378  -2.598   4.296  0.00  0.00    +0.139 C 
BRANCH  25  26
ATOM     26  C   UNL     1       3.561  -1.999   5.012  0.00  0.00    -0.027 A 
ATOM     27  C   UNL     1       4.761  -2.686   5.056  0.00  0.00    +0.009 A 
ATOM     28  C   UNL     1       5.849  -2.141   5.712  0.00  0.00    +0.050 A 
ATOM     29  C   UNL     1       5.740  -0.904   6.327  0.00  0.00    +0.166 A 
ATOM     30  C   UNL     1       4.532  -0.213   6.283  0.00  0.00    +0.167 A 
ATOM     31  C   UNL     1       3.447  -0.763   5.620  0.00  0.00    +0.054 A 
ATOM     32  O   UNL     1       4.679   0.966   6.955  0.00  0.00    -0.453 OA
ATOM     33  C   UNL     1       5.863   0.805   7.758  0.00  0.00    +0.466 C 
ATOM     34  O   UNL     1       6.644  -0.159   7.027  0.00  0.00    -0.453 OA
ENDBRANCH  25  26
ENDBRANCH  23  25
ENDBRANCH   7  21
BRANCH   7  35
ATOM     35  O   UNL     1       0.264  -2.681  -0.013  0.00  0.00    -0.360 OA
ATOM     36  H   UNL     1      -0.559  -2.412   0.418  0.00  0.00    +0.213 HD
ENDBRANCH   7  35
TORSDOF 5
