REMARK  Name = ZINC05912287
REMARK  4 active torsions:
REMARK  status: ('A' for Active; 'I' for Inactive)
REMARK    1  A    between atoms: C_1  and  C_2
REMARK    2  A    between atoms: C_15  and  C_17
REMARK    3  A    between atoms: C_17  and  S_18
REMARK    4  A    between atoms: S_18  and  C_19
REMARK                            x       y       z     vdW  Elec       q    Type
REMARK                         _______ _______ _______ _____ _____    ______ ____
ROOT
ATOM      1  C   UNL     1      -2.248   2.394  -7.620  0.00  0.00    +0.008 C 
ATOM      2  C   UNL     1      -1.955   1.908  -6.200  0.00  0.00    -0.009 C 
ATOM      3  C   UNL     1      -2.157   3.061  -5.212  0.00  0.00    +0.010 C 
ATOM      4  C   UNL     1      -2.108   2.519  -3.779  0.00  0.00    +0.054 C 
ATOM      5  C   UNL     1      -0.868   1.669  -3.627  0.00  0.00    +0.031 A 
ATOM      6  C   UNL     1      -0.160   1.183  -4.667  0.00  0.00    -0.018 A 
ATOM      7  C   UNL     1       0.947   0.424  -4.116  0.00  0.00    +0.004 A 
ATOM      8  C   UNL     1       1.990  -0.291  -4.710  0.00  0.00    +0.010 A 
ATOM      9  C   UNL     1       2.888  -0.907  -3.857  0.00  0.00    +0.001 A 
ATOM     10  C   UNL     1       2.765  -0.823  -2.480  0.00  0.00    +0.002 A 
ATOM     11  C   UNL     1       1.739  -0.118  -1.872  0.00  0.00    +0.027 A 
ATOM     12  C   UNL     1       0.824   0.515  -2.707  0.00  0.00    +0.057 A 
ATOM     13  N   UNL     1      -0.288   1.272  -2.443  0.00  0.00    -0.283 N 
ATOM     14  C   UNL     1      -0.742   1.585  -1.213  0.00  0.00    +0.242 C 
ATOM     15  O   UNL     1      -1.735   2.268  -1.089  0.00  0.00    -0.271 OA
ATOM     16  C   UNL     1      -0.505   1.418  -6.116  0.00  0.00    +0.040 C 
ENDROOT
BRANCH  14  17
ATOM     17  C   UNL     1      -0.013   1.086   0.008  0.00  0.00    +0.176 C 
BRANCH  17  18
ATOM     18  S   UNL     1      -0.860   1.669   1.497  0.00  0.00    -0.077 S 
BRANCH  18  19
ATOM     19  C   UNL     1       0.174   0.961   2.735  0.00  0.00    +0.184 A 
ATOM     20  N   UNL     1       0.012   1.080   4.071  0.00  0.00    -0.254 N 
ATOM     21  H   UNL     1      -0.689   1.568   4.530  0.00  0.00    +0.191 HD
ATOM     22  N   UNL     1       1.060   0.354   4.662  0.00  0.00    -0.160 NA
ATOM     23  C   UNL     1       1.778  -0.140   3.690  0.00  0.00    +0.245 A 
ATOM     24  N   UNL     1       1.245   0.225   2.523  0.00  0.00    -0.209 NA
ENDBRANCH  18  19
ENDBRANCH  17  18
ENDBRANCH  14  17
TORSDOF 3
