REMARK  Name = ZINC20727533
REMARK  8 active torsions:
REMARK  status: ('A' for Active; 'I' for Inactive)
REMARK    1  A    between atoms: C_1  and  C_2
REMARK    2  A    between atoms: C_2  and  C_3
REMARK    3  A    between atoms: C_2  and  C_4
REMARK    4  A    between atoms: C_4  and  C_6
REMARK    5  A    between atoms: C_4  and  N_10
REMARK    6  A    between atoms: C_6  and  O_8
REMARK    7  A    between atoms: O_8  and  C_9
REMARK    8  A    between atoms: C_22  and  C_24
REMARK                            x       y       z     vdW  Elec       q    Type
REMARK                         _______ _______ _______ _____ _____    ______ ____
ROOT
ATOM      1  N   UNL     1      -1.243  -2.033   2.047  0.00  0.00    -0.286 N 
ATOM      2  C   UNL     1      -1.271  -2.815   0.950  0.00  0.00    +0.304 C 
ATOM      3  O   UNL     1      -1.431  -2.316  -0.147  0.00  0.00    -0.253 OA
ATOM      4  N   UNL     1      -1.122  -4.149   1.069  0.00  0.00    -0.273 N 
ATOM      5  C   UNL     1      -1.033  -5.007  -0.122  0.00  0.00    +0.116 C 
ATOM      6  C   UNL     1       0.353  -5.662  -0.168  0.00  0.00    +0.076 C 
ATOM      7  C   UNL     1       0.691  -6.186   1.205  0.00  0.00    +0.066 A 
ATOM      8  C   UNL     1       0.076  -5.795   2.342  0.00  0.00    +0.064 A 
ATOM      9  N   UNL     1       0.652  -6.478   3.368  0.00  0.00    -0.346 N 
ATOM     10  H   UNL     1       0.424  -6.409   4.308  0.00  0.00    +0.167 HD
ATOM     11  C   UNL     1       1.604  -7.273   2.826  0.00  0.00    +0.197 A 
ATOM     12  N   UNL     1       1.619  -7.091   1.532  0.00  0.00    -0.240 NA
ATOM     13  C   UNL     1      -1.038  -4.785   2.396  0.00  0.00    +0.159 C 
ATOM     14  H   UNL     1      -1.180  -2.435   2.928  0.00  0.00    +0.151 HD
ENDROOT
BRANCH  13  15
ATOM     15  C   UNL     1      -2.337  -5.477   2.717  0.00  0.00    +0.017 A 
ATOM     16  C   UNL     1      -2.431  -6.853   2.616  0.00  0.00    +0.011 A 
ATOM     17  C   UNL     1      -3.622  -7.489   2.910  0.00  0.00    +0.042 A 
ATOM     18  C   UNL     1      -4.724  -6.751   3.305  0.00  0.00    +0.161 A 
ATOM     19  C   UNL     1      -4.632  -5.372   3.407  0.00  0.00    +0.194 A 
ATOM     20  C   UNL     1      -3.435  -4.735   3.117  0.00  0.00    +0.167 A 
ATOM     21  F   UNL     1      -3.342  -3.391   3.221  0.00  0.00    -0.202 F 
ATOM     22  F   UNL     1      -5.707  -4.649   3.792  0.00  0.00    -0.199 F 
ATOM     23  F   UNL     1      -5.888  -7.374   3.592  0.00  0.00    -0.202 F 
ENDBRANCH  13  15
BRANCH   1  24
ATOM     24  C   UNL     1      -1.306  -0.576   1.911  0.00  0.00    +0.186 C 
BRANCH  24  26
ATOM     25  C   UNL     1      -2.834   1.386   1.671  0.00  0.00    +0.009 C 
ATOM     26  C   UNL     1      -2.768  -0.136   1.814  0.00  0.00    +0.014 C 
ATOM     27  C   UNL     1      -3.418  -0.791   0.594  0.00  0.00    +0.009 C 
ENDBRANCH  24  26
BRANCH  24  28
ATOM     28  C   UNL     1      -0.665   0.070   3.112  0.00  0.00    +0.328 C 
ATOM     29  O   UNL     1      -0.203  -0.617   3.992  0.00  0.00    -0.249 OA
BRANCH  28  30
ATOM     30  O   UNL     1      -0.608   1.408   3.204  0.00  0.00    -0.467 OA
ATOM     31  C   UNL     1       0.014   1.952   4.371  0.00  0.00    +0.280 C 
ENDBRANCH  28  30
ENDBRANCH  24  28
ENDBRANCH   1  24
TORSDOF 5
