REMARK  Name = ZINC22019610
REMARK  8 active torsions:
REMARK  status: ('A' for Active; 'I' for Inactive)
REMARK    1  A    between atoms: C_7  and  C_11
REMARK    2  A    between atoms: C_11  and  C_12
REMARK    3  A    between atoms: C_12  and  N_13
REMARK    4  A    between atoms: C_14  and  C_16
REMARK    5  A    between atoms: C_16  and  S_17
REMARK    6  A    between atoms: S_17  and  C_18
REMARK    7  A    between atoms: N_28  and  C_29
REMARK    8  A    between atoms: C_32  and  C_35
REMARK                            x       y       z     vdW  Elec       q    Type
REMARK                         _______ _______ _______ _____ _____    ______ ____
ROOT
ATOM      1  C   UNL     1      -1.016  -2.041  -0.499  0.00  0.00    +0.177 A 
ATOM      2  N   UNL     1      -1.029  -0.731  -0.523  0.00  0.00    -0.223 NA
ATOM      3  C   UNL     1       0.015  -0.004  -0.062  0.00  0.00    +0.079 A 
ATOM      4  C   UNL     1       0.004   1.393  -0.087  0.00  0.00    +0.028 A 
ATOM      5  C   UNL     1       1.080   2.087   0.389  0.00  0.00    +0.002 A 
ATOM      6  C   UNL     1       2.189   1.425   0.900  0.00  0.00    +0.001 A 
ATOM      7  C   UNL     1       2.230   0.058   0.937  0.00  0.00    +0.015 A 
ATOM      8  C   UNL     1       1.146  -0.675   0.458  0.00  0.00    +0.065 A 
ATOM      9  C   UNL     1       1.135  -2.144   0.473  0.00  0.00    +0.267 A 
ATOM     10  O   UNL     1       2.079  -2.778   0.909  0.00  0.00    -0.267 OA
ATOM     11  N   UNL     1       0.037  -2.767  -0.014  0.00  0.00    -0.255 N 
ENDROOT
BRANCH  11  12
ATOM     12  C   UNL     1      -0.022  -4.164  -0.021  0.00  0.00    +0.052 A 
ATOM     13  C   UNL     1       0.442  -4.872  -1.125  0.00  0.00    +0.027 A 
ATOM     14  C   UNL     1       0.390  -6.248  -1.133  0.00  0.00    +0.021 A 
ATOM     15  C   UNL     1      -0.140  -6.932  -0.036  0.00  0.00    +0.052 A 
ATOM     16  C   UNL     1      -0.610  -6.217   1.068  0.00  0.00    +0.021 A 
ATOM     17  C   UNL     1      -0.550  -4.841   1.072  0.00  0.00    +0.027 A 
BRANCH  15  18
ATOM     18  C   UNL     1      -0.201  -8.363  -0.044  0.00  0.00    +0.099 C 
ATOM     19  N   UNL     1      -0.249  -9.498  -0.051  0.00  0.00    -0.191 NA
ENDBRANCH  15  18
ENDBRANCH  11  12
BRANCH   1  20
ATOM     20  S   UNL     1      -2.419  -2.907  -1.121  0.00  0.00    -0.078 S 
BRANCH  20  21
ATOM     21  C   UNL     1      -3.459  -1.509  -1.610  0.00  0.00    +0.173 C 
BRANCH  21  23
ATOM     22  N   UNL     1      -5.689  -1.157  -2.622  0.00  0.00    -0.314 N 
ATOM     23  C   UNL     1      -4.753  -2.024  -2.188  0.00  0.00    +0.223 C 
ATOM     24  O   UNL     1      -4.952  -3.218  -2.261  0.00  0.00    -0.275 OA
ATOM     25  H   UNL     1      -5.509  -0.074  -2.556  0.00  0.00    +0.149 HD
BRANCH  22  26
ATOM     26  C   UNL     1      -6.946  -1.657  -3.184  0.00  0.00    +0.109 C 
BRANCH  26  27
ATOM     27  C   UNL     1      -7.826  -0.476  -3.597  0.00  0.00    +0.056 C 
BRANCH  27  34
ATOM     28  C   UNL     1     -11.889  -1.809  -1.677  0.00  0.00    +0.001 A 
ATOM     29  C   UNL     1     -12.823  -2.220  -2.618  0.00  0.00    +0.002 A 
ATOM     30  C   UNL     1     -12.518  -2.210  -3.961  0.00  0.00    +0.026 A 
ATOM     31  C   UNL     1     -11.261  -1.785  -4.382  0.00  0.00    +0.047 A 
ATOM     32  C   UNL     1     -10.319  -1.370  -3.424  0.00  0.00    +0.003 A 
ATOM     33  C   UNL     1     -10.649  -1.388  -2.067  0.00  0.00    +0.010 A 
ATOM     34  C   UNL     1      -9.119  -0.991  -4.175  0.00  0.00    -0.021 A 
ATOM     35  C   UNL     1      -9.393  -1.183  -5.475  0.00  0.00    +0.087 A 
ATOM     36  N   UNL     1     -10.666  -1.662  -5.617  0.00  0.00    -0.360 N 
ATOM     37  H   UNL     1     -11.223  -1.938  -6.525  0.00  0.00    +0.165 HD
ENDBRANCH  27  34
ENDBRANCH  26  27
ENDBRANCH  22  26
ENDBRANCH  21  23
ENDBRANCH  20  21
ENDBRANCH   1  20
TORSDOF 8
