REMARK  Name = ZINC11603411
REMARK  8 active torsions:
REMARK  status: ('A' for Active; 'I' for Inactive)
REMARK    1  A    between atoms: C_1  and  C_2
REMARK    2  A    between atoms: C_7  and  C_9
REMARK    3  A    between atoms: C_7  and  C_30
REMARK    4  A    between atoms: C_7  and  N_65
REMARK    5  A    between atoms: C_9  and  N_10
REMARK    6  A    between atoms: C_11  and  C_13
REMARK    7  A    between atoms: C_13  and  C_14
REMARK    8  A    between atoms: C_14  and  C_15
REMARK                            x       y       z     vdW  Elec       q    Type
REMARK                         _______ _______ _______ _____ _____    ______ ____
ROOT
ATOM      1  N   UNL     1      -2.545   3.705  -1.497  0.00  0.00    -0.317 N 
ATOM      2  C   UNL     1      -2.971   4.175  -2.686  0.00  0.00    +0.213 C 
ATOM      3  O   UNL     1      -2.417   3.828  -3.708  0.00  0.00    -0.276 OA
ATOM      4  H   UNL     1      -2.988   3.982  -0.679  0.00  0.00    +0.149 HD
ENDROOT
BRANCH   1   5
ATOM      5  C   UNL     1      -1.414   2.776  -1.439  0.00  0.00    +0.094 C 
BRANCH   5   6
ATOM      6  C   UNL     1      -1.210   2.310   0.004  0.00  0.00    -0.013 C 
BRANCH   6  13
ATOM      7  C   UNL     1      -5.637  -0.652   2.078  0.00  0.00    +0.007 C 
ATOM      8  C   UNL     1      -4.252  -0.262   1.559  0.00  0.00    -0.018 C 
ATOM      9  C   UNL     1      -3.659   0.831   2.453  0.00  0.00    -0.015 C 
ATOM     10  C   UNL     1      -2.301   1.260   1.893  0.00  0.00    -0.078 C 
ATOM     11  C   UNL     1      -2.994   0.714  -0.364  0.00  0.00    -0.078 C 
ATOM     12  C   UNL     1      -4.373   0.269   0.128  0.00  0.00    -0.015 C 
ATOM     13  N   UNL     1      -2.490   1.784   0.524  0.00  0.00    +0.386 N 
ATOM     14  H   UNL     1      -3.177   2.546   0.550  0.00  0.00    -0.081 HD
ENDBRANCH   6  13
BRANCH   6  15
ATOM     15  C   UNL     1      -0.784   3.478   0.855  0.00  0.00    -0.022 A 
ATOM     16  C   UNL     1       0.459   3.820   1.274  0.00  0.00    +0.009 A 
ATOM     17  C   UNL     1       0.617   4.952   2.052  0.00  0.00    +0.008 A 
ATOM     18  C   UNL     1      -0.476   5.687   2.372  0.00  0.00    +0.045 A 
ATOM     19  S   UNL     1      -1.783   4.777   1.564  0.00  0.00    -0.103 S 
ENDBRANCH   6  15
ENDBRANCH   5   6
ENDBRANCH   1   5
BRANCH   2  20
ATOM     20  C   UNL     1      -4.135   5.130  -2.746  0.00  0.00    +0.103 C 
BRANCH  20  21
ATOM     21  C   UNL     1      -4.412   5.506  -4.203  0.00  0.00    +0.083 C 
BRANCH  21  22
ATOM     22  C   UNL     1      -5.575   6.462  -4.263  0.00  0.00    +0.111 A 
ATOM     23  N   UNL     1      -5.994   6.927  -5.468  0.00  0.00    -0.310 N 
ATOM     24  H   UNL     1      -5.538   6.638  -6.274  0.00  0.00    +0.170 HD
ATOM     25  C   UNL     1      -7.029   7.782  -5.567  0.00  0.00    +0.260 A 
ATOM     26  O   UNL     1      -7.394   8.191  -6.656  0.00  0.00    -0.267 OA
ATOM     27  C   UNL     1      -7.697   8.203  -4.370  0.00  0.00    +0.075 A 
ATOM     28  C   UNL     1      -8.831   9.116  -4.236  0.00  0.00    -0.023 A 
ATOM     29  C   UNL     1      -9.281   9.354  -2.986  0.00  0.00    -0.004 A 
ATOM     30  S   UNL     1      -8.233   8.389  -1.929  0.00  0.00    -0.073 S 
ATOM     31  C   UNL     1      -7.193   7.668  -3.174  0.00  0.00    +0.116 A 
ATOM     32  N   UNL     1      -6.166   6.823  -3.156  0.00  0.00    -0.227 NA
ATOM     33  C   UNL     1     -10.418  10.242  -2.584  0.00  0.00    +0.043 C 
ATOM     34  C   UNL     1     -10.775  11.141  -3.777  0.00  0.00    +0.005 C 
ATOM     35  C   UNL     1     -10.880  10.272  -5.033  0.00  0.00    +0.005 C 
ATOM     36  C   UNL     1      -9.492   9.779  -5.441  0.00  0.00    +0.037 C 
ENDBRANCH  21  22
ENDBRANCH  20  21
ENDBRANCH   2  20
TORSDOF 7
