REMARK  Name = ZINC38658982
REMARK  15 active torsions:
REMARK  status: ('A' for Active; 'I' for Inactive)
REMARK    1  A    between atoms: C_1  and  C_2
REMARK    2  A    between atoms: C_2  and  C_3
REMARK    3  A    between atoms: C_6  and  O_9
REMARK    4  A    between atoms: O_9  and  C_10
REMARK    5  A    between atoms: C_10  and  C_12
REMARK    6  A    between atoms: C_10  and  C_13
REMARK    7  A    between atoms: C_13  and  O_15
REMARK    8  A    between atoms: O_15  and  C_16
REMARK    9  A    between atoms: C_23  and  N_39
REMARK   10  A    between atoms: C_24  and  C_37
REMARK   11  A    between atoms: C_25  and  C_27
REMARK   12  A    between atoms: C_31  and  O_35
REMARK   13  A    between atoms: C_32  and  O_33
REMARK   14  A    between atoms: O_33  and  C_34
REMARK   15  A    between atoms: O_35  and  C_36
REMARK                            x       y       z     vdW  Elec       q    Type
REMARK                         _______ _______ _______ _____ _____    ______ ____
ROOT
ATOM      1  C   UNL     1       6.613  -1.368  -7.283  0.00  0.00    +0.135 A 
ATOM      2  C   UNL     1       5.504  -1.084  -8.068  0.00  0.00    +0.047 A 
ATOM      3  C   UNL     1       5.654  -0.875  -9.425  0.00  0.00    +0.012 A 
ATOM      4  C   UNL     1       6.907  -0.948 -10.007  0.00  0.00    +0.008 A 
ATOM      5  C   UNL     1       8.018  -1.231  -9.227  0.00  0.00    +0.138 A 
ATOM      6  C   UNL     1       7.870  -1.435  -7.862  0.00  0.00    +0.093 A 
ATOM      7  O   UNL     1       9.254  -1.306  -9.780  0.00  0.00    -0.441 OA
ATOM      8  C   UNL     1       9.387  -1.492 -11.103  0.00  0.00    +0.199 C 
ATOM      9  C   UNL     1       8.378  -1.231 -11.968  0.00  0.00    +0.098 C 
ATOM     10  C   UNL     1       7.050  -0.717 -11.488  0.00  0.00    +0.102 C 
ENDROOT
BRANCH  10  11
ATOM     11  C   UNL     1       6.953   0.759 -11.774  0.00  0.00    +0.011 A 
ATOM     12  C   UNL     1       7.776   1.649 -11.108  0.00  0.00    +0.008 A 
ATOM     13  C   UNL     1       7.690   3.003 -11.368  0.00  0.00    +0.004 A 
ATOM     14  C   UNL     1       6.780   3.475 -12.296  0.00  0.00    +0.049 A 
ATOM     15  C   UNL     1       5.952   2.590 -12.967  0.00  0.00    +0.162 A 
ATOM     16  C   UNL     1       6.043   1.225 -12.710  0.00  0.00    +0.166 A 
BRANCH  16  17
ATOM     17  O   UNL     1       5.237   0.351 -13.370  0.00  0.00    -0.491 OA
ATOM     18  C   UNL     1       3.959   0.084 -12.790  0.00  0.00    +0.277 C 
ENDBRANCH  16  17
BRANCH  15  19
ATOM     19  O   UNL     1       5.056   3.053 -13.880  0.00  0.00    -0.491 OA
ATOM     20  C   UNL     1       5.022   4.465 -14.098  0.00  0.00    +0.277 C 
ENDBRANCH  15  19
ENDBRANCH  10  11
BRANCH   8  21
ATOM     21  N   UNL     1      10.581  -1.959 -11.594  0.00  0.00    -0.328 N 
ATOM     22  H   UNL     1      11.313  -2.150 -10.987  0.00  0.00    +0.145 HD
ATOM     23  H   UNL     1      10.692  -2.098 -12.547  0.00  0.00    +0.145 HD
ENDBRANCH   8  21
BRANCH   9  24
ATOM     24  C   UNL     1       8.581  -1.450 -13.369  0.00  0.00    +0.101 C 
ATOM     25  N   UNL     1       8.742  -1.623 -14.480  0.00  0.00    -0.191 NA
ENDBRANCH   9  24
BRANCH   1  26
ATOM     26  O   UNL     1       6.466  -1.574  -5.947  0.00  0.00    -0.423 OA
BRANCH  26  27
ATOM     27  C   UNL     1       5.836  -2.690  -5.547  0.00  0.00    +0.353 C 
ATOM     28  O   UNL     1       5.503  -3.520  -6.359  0.00  0.00    -0.246 OA
BRANCH  27  29
ATOM     29  C   UNL     1       5.546  -2.908  -4.084  0.00  0.00    +0.279 C 
ATOM     30  C   UNL     1       6.860  -2.923  -3.300  0.00  0.00    +0.064 C 
BRANCH  29  31
ATOM     31  O   UNL     1       4.874  -4.157  -3.913  0.00  0.00    -0.478 OA
BRANCH  31  35
ATOM     32  C   UNL     1       2.292  -4.472  -0.711  0.00  0.00    -0.047 A 
ATOM     33  C   UNL     1       3.060  -3.333  -0.869  0.00  0.00    +0.007 A 
ATOM     34  C   UNL     1       3.925  -3.225  -1.941  0.00  0.00    +0.046 A 
ATOM     35  C   UNL     1       4.024  -4.261  -2.858  0.00  0.00    +0.122 A 
ATOM     36  C   UNL     1       3.253  -5.403  -2.697  0.00  0.00    +0.046 A 
ATOM     37  C   UNL     1       2.393  -5.508  -1.621  0.00  0.00    +0.007 A 
BRANCH  32  39
ATOM     38  C   UNL     1       2.081  -5.217   1.645  0.00  0.00    +0.009 C 
ATOM     39  C   UNL     1       1.349  -4.587   0.458  0.00  0.00    +0.032 C 
ENDBRANCH  32  39
ENDBRANCH  31  35
ENDBRANCH  29  31
ENDBRANCH  27  29
ENDBRANCH  26  27
ENDBRANCH   1  26
TORSDOF 11
