REMARK  Name = ZINC39326733
REMARK  7 active torsions:
REMARK  status: ('A' for Active; 'I' for Inactive)
REMARK    1  A    between atoms: C_1  and  C_2
REMARK    2  A    between atoms: C_2  and  O_3
REMARK    3  A    between atoms: O_3  and  C_4
REMARK    4  A    between atoms: C_9  and  C_10
REMARK    5  A    between atoms: C_20  and  C_28
REMARK    6  A    between atoms: C_22  and  C_26
REMARK    7  A    between atoms: C_23  and  N_25
REMARK                            x       y       z     vdW  Elec       q    Type
REMARK                         _______ _______ _______ _____ _____    ______ ____
ROOT
ATOM      1  C   UNL     1       1.172  -1.689  -0.795  0.00  0.00    +0.403 C 
ATOM      2  O   UNL     1       0.824  -2.424   0.108  0.00  0.00    -0.226 OA
ATOM      3  N   UNL     1       1.599  -2.210  -1.962  0.00  0.00    -0.259 N 
ATOM      4  C   UNL     1       2.034  -1.341  -3.072  0.00  0.00    +0.150 C 
ATOM      5  C   UNL     1       3.451  -1.756  -3.403  0.00  0.00    +0.013 C 
ATOM      6  C   UNL     1       4.376  -0.841  -3.741  0.00  0.00    +0.016 C 
ATOM      7  C   UNL     1       3.793  -3.192  -3.344  0.00  0.00    +0.136 C 
ATOM      8  C   UNL     1       2.972  -4.070  -2.772  0.00  0.00    +0.003 C 
ATOM      9  C   UNL     1       1.655  -3.658  -2.170  0.00  0.00    +0.147 C 
ATOM     10  C   UNL     1       3.345  -5.533  -2.704  0.00  0.00    +0.095 C 
ATOM     11  C   UNL     1       4.412  -5.850  -3.713  0.00  0.00    +0.098 C 
ATOM     12  C   UNL     1       5.166  -4.859  -4.251  0.00  0.00    +0.199 C 
ATOM     13  O   UNL     1       4.975  -3.579  -3.893  0.00  0.00    -0.441 OA
ENDROOT
BRANCH   6  14
ATOM     14  C   UNL     1       3.980   0.562  -3.956  0.00  0.00    -0.025 A 
ATOM     15  C   UNL     1       4.866   1.597  -3.643  0.00  0.00    +0.009 A 
ATOM     16  C   UNL     1       4.489   2.907  -3.847  0.00  0.00    +0.020 A 
ATOM     17  C   UNL     1       3.236   3.199  -4.360  0.00  0.00    +0.041 A 
ATOM     18  C   UNL     1       2.353   2.178  -4.672  0.00  0.00    +0.020 A 
ATOM     19  C   UNL     1       2.719   0.863  -4.478  0.00  0.00    +0.009 A 
ATOM     20 CL   UNL     1       2.770   4.852  -4.613  0.00  0.00    -0.084 Cl
ENDBRANCH   6  14
BRANCH  10  21
ATOM     21  C   UNL     1       3.860  -5.853  -1.324  0.00  0.00    -0.035 A 
ATOM     22  C   UNL     1       4.970  -5.195  -0.831  0.00  0.00    +0.006 A 
ATOM     23  C   UNL     1       5.442  -5.488   0.434  0.00  0.00    +0.020 A 
ATOM     24  C   UNL     1       4.803  -6.441   1.208  0.00  0.00    +0.041 A 
ATOM     25  C   UNL     1       3.692  -7.100   0.713  0.00  0.00    +0.020 A 
ATOM     26  C   UNL     1       3.217  -6.801  -0.550  0.00  0.00    +0.006 A 
ATOM     27 CL   UNL     1       5.396  -6.810   2.797  0.00  0.00    -0.084 Cl
ENDBRANCH  10  21
BRANCH  12  28
ATOM     28  N   UNL     1       6.135  -5.167  -5.174  0.00  0.00    -0.328 N 
ATOM     29  H   UNL     1       6.277  -6.090  -5.437  0.00  0.00    +0.145 HD
ATOM     30  H   UNL     1       6.677  -4.463  -5.562  0.00  0.00    +0.145 HD
ENDBRANCH  12  28
BRANCH  11  31
ATOM     31  C   UNL     1       4.635  -7.207  -4.109  0.00  0.00    +0.101 C 
ATOM     32  N   UNL     1       4.812  -8.285  -4.424  0.00  0.00    -0.191 NA
ENDBRANCH  11  31
BRANCH   1  33
ATOM     33  O   UNL     1       1.130  -0.353  -0.629  0.00  0.00    -0.451 OA
BRANCH  33  35
ATOM     34  C   UNL     1       0.689   1.659   0.634  0.00  0.00    +0.048 C 
ATOM     35  C   UNL     1       0.666   0.130   0.633  0.00  0.00    +0.230 C 
ENDBRANCH  33  35
ENDBRANCH   1  33
TORSDOF 6
