REMARK  Name = ZINC15668945
REMARK  3 active torsions:
REMARK  status: ('A' for Active; 'I' for Inactive)
REMARK    1  A    between atoms: C_1  and  C_2
REMARK    2  A    between atoms: C_7  and  C_8
REMARK    3  A    between atoms: C_8  and  N_9
REMARK                            x       y       z     vdW  Elec       q    Type
REMARK                         _______ _______ _______ _____ _____    ______ ____
ROOT
ATOM      1  N   UNL     1      -1.338   0.477   2.823  0.00  0.00    -0.308 N 
ATOM      2  C   UNL     1      -1.587   1.190   3.993  0.00  0.00    +0.237 A 
ATOM      3  N   UNL     1      -2.768   1.623   4.383  0.00  0.00    -0.125 NA
ATOM      4  N   UNL     1      -2.579   2.287   5.601  0.00  0.00    -0.158 N 
ATOM      5  C   UNL     1      -3.418   2.928   6.457  0.00  0.00    +0.279 A 
ATOM      6  O   UNL     1      -4.740   3.013   6.184  0.00  0.00    -0.265 OA
ATOM      7  C   UNL     1      -2.909   3.489   7.604  0.00  0.00    +0.040 A 
ATOM      8  C   UNL     1      -1.550   3.386   7.861  0.00  0.00    +0.054 A 
ATOM      9  N   UNL     1      -0.762   2.759   7.001  0.00  0.00    -0.215 NA
ATOM     10  C   UNL     1      -1.244   2.209   5.884  0.00  0.00    +0.258 A 
ATOM     11  N   UNL     1      -0.669   1.535   4.894  0.00  0.00    -0.176 NA
ATOM     12  C   UNL     1      -0.920   3.961   9.103  0.00  0.00    +0.056 C 
ATOM     13  C   UNL     1      -1.845   4.993   9.744  0.00  0.00    +0.006 C 
ATOM     14  C   UNL     1      -3.233   4.365   9.913  0.00  0.00    +0.005 C 
ATOM     15  C   UNL     1      -3.860   4.197   8.530  0.00  0.00    +0.042 C 
ATOM     16  H   UNL     1      -2.067   0.266   2.219  0.00  0.00    +0.149 HD
ENDROOT
BRANCH   1  17
ATOM     17  C   UNL     1       0.025   0.045   2.504  0.00  0.00    +0.140 C 
BRANCH  17  24
ATOM     18  C   UNL     1      -0.018   1.503   0.010  0.00  0.00    +0.044 C 
ATOM     19  C   UNL     1       0.002  -0.004   0.002  0.00  0.00    -0.046 A 
ATOM     20  C   UNL     1       0.006  -0.689  -1.199  0.00  0.00    +0.003 A 
ATOM     21  C   UNL     1       0.025  -2.071  -1.207  0.00  0.00    +0.000 A 
ATOM     22  C   UNL     1       0.040  -2.768  -0.013  0.00  0.00    +0.000 A 
ATOM     23  C   UNL     1       0.037  -2.084   1.188  0.00  0.00    +0.005 A 
ATOM     24  C   UNL     1       0.023  -0.702   1.195  0.00  0.00    -0.027 A 
ENDBRANCH  17  24
ENDBRANCH   1  17
TORSDOF 2
