REMARK  Name = ZINC12736784
REMARK  5 active torsions:
REMARK  status: ('A' for Active; 'I' for Inactive)
REMARK    1  A    between atoms: C_3  and  S_18
REMARK    2  A    between atoms: C_4  and  S_10
REMARK    3  A    between atoms: C_6  and  N_7
REMARK    4  A    between atoms: S_10  and  N_13
REMARK    5  A    between atoms: S_18  and  C_19
REMARK                            x       y       z     vdW  Elec       q    Type
REMARK                         _______ _______ _______ _____ _____    ______ ____
ROOT
ATOM      1  C   UNL     1      -1.313   3.375   0.136  0.00  0.00    +0.034 A 
ATOM      2  C   UNL     1      -2.526   4.035   0.125  0.00  0.00    +0.019 A 
ATOM      3  C   UNL     1      -3.709   3.310   0.055  0.00  0.00    +0.042 A 
ATOM      4  C   UNL     1      -3.667   1.922  -0.009  0.00  0.00    +0.121 A 
ATOM      5  C   UNL     1      -2.450   1.269  -0.004  0.00  0.00    +0.062 A 
ATOM      6  C   UNL     1      -1.274   1.994   0.066  0.00  0.00    +0.128 A 
ENDROOT
BRANCH   6   7
ATOM      7  N   UNL     1       0.028   1.290   0.071  0.00  0.00    +0.056 N 
ATOM      8  O   UNL     1       0.063   0.074   0.014  0.00  0.00    -0.126 OA
ATOM      9  O   UNL     1       1.064   1.928   0.127  0.00  0.00    -0.126 OA
ENDBRANCH   6   7
BRANCH   4  10
ATOM     10  S   UNL     1      -5.164   0.998  -0.098  0.00  0.00    +0.062 S 
ATOM     11  O   UNL     1      -5.950   1.594  -1.120  0.00  0.00    -0.153 OA
ATOM     12  O   UNL     1      -4.793  -0.374  -0.124  0.00  0.00    -0.153 OA
BRANCH  10  13
ATOM     13  N   UNL     1      -5.975   1.241   1.325  0.00  0.00    -0.177 NA
ATOM     14  C   UNL     1      -5.844   0.419   2.537  0.00  0.00    +0.109 C 
ATOM     15  C   UNL     1      -6.803   1.006   3.594  0.00  0.00    +0.018 C 
ATOM     16  C   UNL     1      -7.841   1.772   2.732  0.00  0.00    +0.018 C 
ATOM     17  C   UNL     1      -6.952   2.314   1.585  0.00  0.00    +0.109 C 
ENDBRANCH  10  13
ENDBRANCH   4  10
BRANCH   3  18
ATOM     18  S   UNL     1      -5.259   4.147   0.049  0.00  0.00    -0.050 S 
BRANCH  18  19
ATOM     19  C   UNL     1      -5.047   5.174  -1.367  0.00  0.00    +0.172 A 
ATOM     20  N   UNL     1      -5.926   6.135  -1.780  0.00  0.00    -0.333 N 
ATOM     21  H   UNL     1      -6.792   6.375  -1.340  0.00  0.00    +0.168 HD
ATOM     22  C   UNL     1      -5.395   6.714  -2.922  0.00  0.00    +0.070 A 
ATOM     23  C   UNL     1      -5.820   7.723  -3.773  0.00  0.00    +0.069 A 
ATOM     24  C   UNL     1      -5.046   8.076  -4.861  0.00  0.00    +0.160 A 
ATOM     25  C   UNL     1      -3.842   7.425  -5.109  0.00  0.00    +0.161 A 
ATOM     26  C   UNL     1      -3.408   6.420  -4.272  0.00  0.00    +0.071 A 
ATOM     27  C   UNL     1      -4.181   6.053  -3.167  0.00  0.00    +0.093 A 
ATOM     28  N   UNL     1      -4.024   5.126  -2.186  0.00  0.00    -0.222 NA
ATOM     29  F   UNL     1      -3.095   7.779  -6.177  0.00  0.00    -0.202 F 
ATOM     30  F   UNL     1      -5.461   9.059  -5.690  0.00  0.00    -0.202 F 
ENDBRANCH  18  19
ENDBRANCH   3  18
TORSDOF 5
