REMARK  Name = ZINC39452444
REMARK  5 active torsions:
REMARK  status: ('A' for Active; 'I' for Inactive)
REMARK    1  A    between atoms: C_1  and  O_2
REMARK    2  A    between atoms: O_2  and  N_3
REMARK    3  A    between atoms: C_17  and  O_18
REMARK    4  A    between atoms: C_20  and  C_25
REMARK    5  A    between atoms: C_25  and  C_26
REMARK                            x       y       z     vdW  Elec       q    Type
REMARK                         _______ _______ _______ _____ _____    ______ ____
ROOT
ATOM      1  N   UNL     1       0.646  -0.565  -1.127  0.00  0.00    -0.139 N 
ATOM      2  C   UNL     1      -0.108  -0.837  -2.264  0.00  0.00    +0.149 A 
ATOM      3  C   UNL     1       0.476  -1.379  -3.391  0.00  0.00    +0.085 A 
ATOM      4  C   UNL     1       1.918  -1.685  -3.396  0.00  0.00    +0.100 A 
ATOM      5  C   UNL     1       2.663  -1.398  -2.222  0.00  0.00    +0.070 A 
ATOM      6  C   UNL     1       1.966  -0.812  -1.066  0.00  0.00    +0.293 A 
ATOM      7  O   UNL     1       2.586  -0.553  -0.051  0.00  0.00    -0.264 OA
ATOM      8  C   UNL     1       4.024  -1.663  -2.174  0.00  0.00    +0.029 A 
ATOM      9  C   UNL     1       4.622  -2.217  -3.314  0.00  0.00    +0.043 A 
ATOM     10  C   UNL     1       3.791  -2.490  -4.490  0.00  0.00    +0.075 A 
ATOM     11  N   UNL     1       2.489  -2.208  -4.465  0.00  0.00    -0.244 NA
ATOM     12  C   UNL     1       4.398  -3.047  -5.629  0.00  0.00    +0.028 A 
ATOM     13  C   UNL     1       5.732  -3.320  -5.621  0.00  0.00    +0.006 A 
ATOM     14  C   UNL     1       6.528  -3.064  -4.511  0.00  0.00    +0.046 A 
ATOM     15  C   UNL     1       5.998  -2.520  -3.361  0.00  0.00    +0.126 A 
ATOM     16  N   UNL     1      -0.290  -1.628  -4.513  0.00  0.00    -0.337 N 
ATOM     17  C   UNL     1      -1.499  -0.818  -4.726  0.00  0.00    +0.082 C 
ATOM     18  C   UNL     1      -2.350  -0.885  -3.452  0.00  0.00    +0.104 C 
ATOM     19  C   UNL     1      -1.492  -0.548  -2.261  0.00  0.00    +0.186 C 
ATOM     20  O   UNL     1      -1.995  -0.024  -1.287  0.00  0.00    -0.290 OA
ATOM     21  H   UNL     1      -0.036  -2.319  -5.146  0.00  0.00    +0.146 HD
ENDROOT
BRANCH   1  23
ATOM     22  C   UNL     1      -0.017   1.425   0.010  0.00  0.00    +0.311 C 
ATOM     23  O   UNL     1       0.002  -0.004   0.002  0.00  0.00    -0.411 OA
ENDBRANCH   1  23
BRANCH  15  24
ATOM     24  O   UNL     1       6.792  -2.278  -2.287  0.00  0.00    -0.506 OA
ATOM     25  H   UNL     1       6.853  -3.019  -1.668  0.00  0.00    +0.292 HD
ENDBRANCH  15  24
BRANCH  17  26
ATOM     26  C   UNL     1      -1.105   0.633  -5.009  0.00  0.00    +0.057 C 
BRANCH  26  27
ATOM     27  C   UNL     1      -0.349   0.703  -6.311  0.00  0.00    -0.046 A 
ATOM     28  C   UNL     1       1.026   0.565  -6.319  0.00  0.00    +0.004 A 
ATOM     29  C   UNL     1       1.720   0.630  -7.513  0.00  0.00    +0.000 A 
ATOM     30  C   UNL     1       1.039   0.831  -8.698  0.00  0.00    +0.000 A 
ATOM     31  C   UNL     1      -0.337   0.967  -8.690  0.00  0.00    +0.000 A 
ATOM     32  C   UNL     1      -1.031   0.899  -7.497  0.00  0.00    +0.004 A 
ENDBRANCH  26  27
ENDBRANCH  17  26
TORSDOF 4
