REMARK  Name = ZINC31168310
REMARK  7 active torsions:
REMARK  status: ('A' for Active; 'I' for Inactive)
REMARK    1  A    between atoms: CB_1  and  CA_2
REMARK    2  A    between atoms: N_14  and  C_40
REMARK    3  A    between atoms: CA_15  and  CB_33
REMARK    4  A    between atoms: N_19  and  C_32
REMARK    5  A    between atoms: CA_20  and  CB_25
REMARK    6  A    between atoms: CB_25  and  CG_26
REMARK    7  A    between atoms: CB_33  and  CG_34
REMARK                            x       y       z     vdW  Elec       q    Type
REMARK                         _______ _______ _______ _____ _____    ______ ____
ROOT
ATOM      1  CB  ALA A   5       8.736   8.073  -0.366  0.00  0.00    +0.038 C 
ATOM      2  CA  ALA A   5       7.561   7.100  -0.489  0.00  0.00    +0.156 C 
ATOM      3  C   ALA A   5       6.632   7.567  -1.583  0.00  0.00    +0.233 C 
ATOM      4  O   ALA A   5       6.857   7.284  -2.740  0.00  0.00    -0.274 OA
ATOM      5  N   GLY A   1       5.533   8.308  -1.239  0.00  0.00    -0.305 N 
ATOM      6  CA  GLY A   1       4.647   8.666  -2.377  0.00  0.00    +0.200 C 
ATOM      7  C   GLY A   1       3.684   7.525  -2.603  0.00  0.00    +0.231 C 
ATOM      8  O   GLY A   1       2.794   7.316  -1.806  0.00  0.00    -0.274 OA
ATOM      9  N   GLY A   2       3.831   6.748  -3.712  0.00  0.00    -0.305 N 
ATOM     10  CA  GLY A   2       2.893   5.607  -3.841  0.00  0.00    +0.200 C 
ATOM     11  C   GLY A   2       3.526   4.403  -3.198  0.00  0.00    +0.233 C 
ATOM     12  O   GLY A   2       4.457   3.863  -3.776  0.00  0.00    -0.274 OA
ATOM     13  N   PHE A   3       3.110   3.890  -2.030  0.00  0.00    -0.291 N 
ATOM     14  CA  PHE A   3       3.962   2.929  -1.308  0.00  0.00    +0.166 C 
ATOM     15  C   PHE A   3       5.363   3.475  -1.224  0.00  0.00    +0.237 C 
ATOM     16  O   PHE A   3       5.550   4.650  -1.486  0.00  0.00    -0.274 OA
ATOM     17  N   PHE A   4       6.402   2.656  -0.877  0.00  0.00    -0.291 N 
ATOM     18  CA  PHE A   4       7.723   3.321  -0.725  0.00  0.00    +0.166 C 
ATOM     19  C   PHE A   4       7.536   4.704  -0.160  0.00  0.00    +0.234 C 
ATOM     20  O   PHE A   4       6.941   4.874   0.881  0.00  0.00    -0.274 OA
ATOM     21  N   ALA A   5       8.066   5.759  -0.844  0.00  0.00    -0.303 N 
ATOM     22  C   ACE A   0       6.258   1.207  -0.668  0.00  0.00    +0.133 C 
ATOM     23  C   ACE A   0       1.808   4.240  -1.451  0.00  0.00    +0.133 C 
ATOM     24  H   GLY A   1       5.280   8.638  -0.221  0.00  0.00    +0.149 HD
ATOM     25  H   GLY A   2       4.590   6.927  -4.487  0.00  0.00    +0.149 HD
ATOM     26  H   ALA A   5       8.833   5.649  -1.626  0.00  0.00    +0.149 HD
ENDROOT
BRANCH  18  27
ATOM     27  CB  PHE A   4       8.602   2.497   0.222  0.00  0.00    +0.067 C 
BRANCH  27  28
ATOM     28  CG  PHE A   4       9.965   3.132   0.321  0.00  0.00    -0.045 A 
ATOM     29  CD2 PHE A   4      10.932   2.844  -0.625  0.00  0.00    +0.004 A 
ATOM     30  CE2 PHE A   4      12.181   3.429  -0.537  0.00  0.00    +0.000 A 
ATOM     31  CZ  PHE A   4      12.467   4.295   0.502  0.00  0.00    +0.000 A 
ATOM     32  CE1 PHE A   4      11.502   4.579   1.450  0.00  0.00    +0.000 A 
ATOM     33  CD1 PHE A   4      10.251   3.997   1.360  0.00  0.00    +0.004 A 
ENDBRANCH  27  28
ENDBRANCH  18  27
BRANCH  14  34
ATOM     34  CB  PHE A   3       3.392   2.744   0.103  0.00  0.00    +0.067 C 
BRANCH  34  35
ATOM     35  CG  PHE A   3       4.203   1.711   0.841  0.00  0.00    -0.045 A 
ATOM     36  CD2 PHE A   3       3.960   0.365   0.636  0.00  0.00    +0.004 A 
ATOM     37  CE2 PHE A   3       4.704  -0.583   1.313  0.00  0.00    +0.000 A 
ATOM     38  CZ  PHE A   3       5.691  -0.185   2.196  0.00  0.00    +0.000 A 
ATOM     39  CE1 PHE A   3       5.933   1.160   2.402  0.00  0.00    +0.000 A 
ATOM     40  CD1 PHE A   3       5.189   2.108   1.724  0.00  0.00    +0.004 A 
ENDBRANCH  34  35
ENDBRANCH  14  34
TORSDOF 4
