REMARK  Name = ZINC39695883
REMARK  7 active torsions:
REMARK  status: ('A' for Active; 'I' for Inactive)
REMARK    1  A    between atoms: C_1  and  C_2
REMARK    2  A    between atoms: C_2  and  C_3
REMARK    3  A    between atoms: C_6  and  C_9
REMARK    4  A    between atoms: C_9  and  C_11
REMARK    5  A    between atoms: C_9  and  N_12
REMARK    6  A    between atoms: C_13  and  C_15
REMARK    7  A    between atoms: C_26  and  C_28
REMARK                            x       y       z     vdW  Elec       q    Type
REMARK                         _______ _______ _______ _____ _____    ______ ____
ROOT
ATOM      1  C   UNL     1      -8.226  -0.253  -1.413  0.00  0.00    +0.100 C 
ATOM      2  C   UNL     1      -7.923   1.216  -1.785  0.00  0.00    +0.121 C 
ATOM      3  N   UNL     1      -9.244   1.798  -2.117  0.00  0.00    -0.296 N 
ATOM      4  C   UNL     1     -10.168   1.208  -1.120  0.00  0.00    +0.115 C 
ATOM      5  C   UNL     1      -9.700  -0.253  -0.976  0.00  0.00    -0.004 C 
ATOM      6  C   UNL     1     -10.521  -1.162  -1.887  0.00  0.00    -0.010 C 
ATOM      7  C   UNL     1     -11.972  -1.190  -1.399  0.00  0.00    -0.082 C 
ATOM      8  N   UNL     1     -12.015  -1.682  -0.016  0.00  0.00    +0.379 N 
ATOM      9  C   UNL     1     -11.302  -0.753   0.868  0.00  0.00    -0.082 C 
ATOM     10  C   UNL     1      -9.822  -0.706   0.476  0.00  0.00    -0.010 C 
ATOM     11  C   UNL     1      -9.539   2.668  -3.104  0.00  0.00    +0.247 C 
ATOM     12  O   UNL     1      -8.688   2.978  -3.915  0.00  0.00    -0.270 OA
ATOM     13  H   UNL     1     -12.976  -1.757   0.282  0.00  0.00    -0.086 HD
ATOM     14  H   UNL     1     -11.579  -2.590   0.030  0.00  0.00    -0.086 HD
ENDROOT
BRANCH  11  15
ATOM     15  C   UNL     1     -10.896   3.244  -3.200  0.00  0.00    +0.038 A 
ATOM     16  C   UNL     1     -11.726   3.272  -2.078  0.00  0.00    +0.014 A 
ATOM     17  C   UNL     1     -12.992   3.812  -2.172  0.00  0.00    +0.022 A 
ATOM     18  C   UNL     1     -13.441   4.325  -3.378  0.00  0.00    +0.059 A 
ATOM     19  C   UNL     1     -12.622   4.300  -4.496  0.00  0.00    +0.060 A 
ATOM     20  C   UNL     1     -11.351   3.769  -4.411  0.00  0.00    +0.034 A 
ATOM     21 CL   UNL     1     -13.193   4.946  -6.003  0.00  0.00    -0.082 Cl
ATOM     22 CL   UNL     1     -15.036   5.001  -3.489  0.00  0.00    -0.082 Cl
ENDBRANCH  11  15
BRANCH   1  24
ATOM     23  N   UNL     1      -7.000  -1.998  -0.159  0.00  0.00    -0.308 N 
ATOM     24  C   UNL     1      -7.342  -0.700  -0.276  0.00  0.00    +0.219 C 
ATOM     25  O   UNL     1      -6.939   0.109   0.532  0.00  0.00    -0.275 OA
ATOM     26  H   UNL     1      -7.322  -2.645  -0.806  0.00  0.00    +0.149 HD
BRANCH  23  27
ATOM     27  C   UNL     1      -6.141  -2.432   0.946  0.00  0.00    +0.100 C 
ATOM     28  C   UNL     1      -6.999  -2.698   2.184  0.00  0.00    +0.033 C 
BRANCH  27  32
ATOM     29  C   UNL     1      -4.096  -6.014  -0.163  0.00  0.00    -0.048 A 
ATOM     30  C   UNL     1      -3.433  -5.032   0.548  0.00  0.00    +0.004 A 
ATOM     31  C   UNL     1      -4.094  -3.872   0.907  0.00  0.00    +0.006 A 
ATOM     32  C   UNL     1      -5.419  -3.696   0.554  0.00  0.00    -0.027 A 
ATOM     33  C   UNL     1      -6.082  -4.678  -0.158  0.00  0.00    +0.006 A 
ATOM     34  C   UNL     1      -5.419  -5.835  -0.520  0.00  0.00    +0.004 A 
BRANCH  29  36
ATOM     35  C   UNL     1      -2.713  -7.087  -1.920  0.00  0.00    +0.009 C 
ATOM     36  C   UNL     1      -3.374  -7.279  -0.553  0.00  0.00    +0.032 C 
ENDBRANCH  29  36
ENDBRANCH  27  32
ENDBRANCH  23  27
ENDBRANCH   1  24
TORSDOF 5
