REMARK  Name = ZINC08948311
REMARK  9 active torsions:
REMARK  status: ('A' for Active; 'I' for Inactive)
REMARK    1  A    between atoms: C_1  and  C_2
REMARK    2  A    between atoms: C_2  and  C_18
REMARK    3  A    between atoms: N_5  and  C_9
REMARK    4  A    between atoms: C_9  and  C_10
REMARK    5  A    between atoms: N_12  and  C_13
REMARK    6  A    between atoms: C_21  and  C_24
REMARK    7  A    between atoms: C_24  and  C_25
REMARK    8  A    between atoms: C_24  and  C_26
REMARK    9  A    between atoms: C_24  and  C_27
REMARK                            x       y       z     vdW  Elec       q    Type
REMARK                         _______ _______ _______ _____ _____    ______ ____
ROOT
ATOM      1  C   UNL     1       2.038   1.925   1.252  0.00  0.00    +0.047 C 
ATOM      2  C   UNL     1       1.181   2.140   0.002  0.00  0.00    +0.135 C 
ATOM      3  C   UNL     1      -0.014   1.208   0.009  0.00  0.00    +0.251 C 
ATOM      4  O   UNL     1       0.002  -0.004   0.002  0.00  0.00    -0.272 OA
ATOM      5  N   UNL     1      -1.099   2.007   0.017  0.00  0.00    -0.215 N 
ATOM      6  C   UNL     1      -0.759   3.301   0.026  0.00  0.00    +0.310 C 
ATOM      7  O   UNL     1      -1.564   4.212   0.038  0.00  0.00    -0.252 OA
ATOM      8  N   UNL     1       0.574   3.482   0.015  0.00  0.00    -0.281 N 
ATOM      9  H   UNL     1       1.044   4.331   0.015  0.00  0.00    +0.152 HD
ENDROOT
BRANCH   2  10
ATOM     10  C   UNL     1       2.002   1.941  -1.246  0.00  0.00    -0.015 A 
ATOM     11  C   UNL     1       2.047   0.700  -1.852  0.00  0.00    +0.006 A 
ATOM     12  C   UNL     1       2.797   0.518  -2.999  0.00  0.00    +0.004 A 
ATOM     13  C   UNL     1       3.508   1.576  -3.535  0.00  0.00    -0.042 A 
ATOM     14  C   UNL     1       3.466   2.816  -2.926  0.00  0.00    +0.004 A 
ATOM     15  C   UNL     1       2.714   2.998  -1.781  0.00  0.00    +0.006 A 
BRANCH  13  16
ATOM     16  C   UNL     1       4.329   1.376  -4.783  0.00  0.00    -0.013 C 
ATOM     17  C   UNL     1       5.796   1.691  -4.484  0.00  0.00    +0.015 C 
ATOM     18  C   UNL     1       4.204  -0.075  -5.250  0.00  0.00    +0.015 C 
ATOM     19  C   UNL     1       3.821   2.311  -5.882  0.00  0.00    +0.015 C 
ENDBRANCH  13  16
ENDBRANCH   2  10
BRANCH   5  20
ATOM     20  C   UNL     1      -2.481   1.520   0.020  0.00  0.00    +0.213 C 
BRANCH  20  21
ATOM     21  C   UNL     1      -2.949   1.345   1.442  0.00  0.00    +0.231 C 
ATOM     22  O   UNL     1      -2.202   1.602   2.362  0.00  0.00    -0.274 OA
ATOM     23  N   UNL     1      -4.197   0.902   1.690  0.00  0.00    -0.311 N 
ATOM     24  H   UNL     1      -4.795   0.697   0.954  0.00  0.00    +0.149 HD
BRANCH  23  25
ATOM     25  C   UNL     1      -4.653   0.732   3.072  0.00  0.00    +0.073 C 
ATOM     26  C   UNL     1      -4.270  -0.672   3.586  0.00  0.00    +0.022 C 
ATOM     27  C   UNL     1      -5.471  -1.093   4.468  0.00  0.00    +0.002 C 
ATOM     28  C   UNL     1      -6.685  -0.532   3.686  0.00  0.00    +0.002 C 
ATOM     29  C   UNL     1      -6.188   0.821   3.137  0.00  0.00    +0.022 C 
ENDBRANCH  23  25
ENDBRANCH  20  21
ENDBRANCH   5  20
TORSDOF 5
