REMARK  Name = ZINC07604767
REMARK  5 active torsions:
REMARK  status: ('A' for Active; 'I' for Inactive)
REMARK    1  A    between atoms: C_4  and  C_22
REMARK    2  A    between atoms: C_5  and  C_7
REMARK    3  A    between atoms: C_7  and  S_8
REMARK    4  A    between atoms: S_8  and  C_9
REMARK    5  A    between atoms: C_11  and  C_15
REMARK                            x       y       z     vdW  Elec       q    Type
REMARK                         _______ _______ _______ _____ _____    ______ ____
ROOT
ATOM      1  C   UNL     1       1.267  -4.555   1.506  0.00  0.00    +0.185 A 
ATOM      2  N   UNL     1       1.264  -5.216   0.370  0.00  0.00    -0.201 NA
ATOM      3  C   UNL     1       1.283  -6.534   0.615  0.00  0.00    +0.182 A 
ATOM      4  N   UNL     1       1.298  -6.725   1.915  0.00  0.00    -0.152 NA
ATOM      5  H   UNL     1       1.306  -5.262   3.465  0.00  0.00    +0.191 HD
ATOM      6  N   UNL     1       1.294  -5.455   2.514  0.00  0.00    -0.253 N 
ENDROOT
BRANCH   3   7
ATOM      7  C   UNL     1       1.286  -7.603  -0.414  0.00  0.00    +0.021 A 
ATOM      8  C   UNL     1       1.274  -7.271  -1.768  0.00  0.00    +0.013 A 
ATOM      9  C   UNL     1       1.277  -8.269  -2.721  0.00  0.00    +0.021 A 
ATOM     10  C   UNL     1       1.291  -9.598  -2.334  0.00  0.00    +0.041 A 
ATOM     11  C   UNL     1       1.302  -9.933  -0.991  0.00  0.00    +0.021 A 
ATOM     12  C   UNL     1       1.306  -8.943  -0.031  0.00  0.00    +0.013 A 
ATOM     13 CL   UNL     1       1.294 -10.849  -3.538  0.00  0.00    -0.084 Cl
ENDBRANCH   3   7
BRANCH   1  14
ATOM     14  S   UNL     1       1.248  -2.802   1.685  0.00  0.00    -0.082 S 
BRANCH  14  15
ATOM     15  C   UNL     1       1.223  -2.188  -0.022  0.00  0.00    +0.113 C 
BRANCH  15  20
ATOM     16  C   UNL     1      -0.017   1.379   0.010  0.00  0.00    +0.000 A 
ATOM     17  C   UNL     1       1.168   2.094   0.002  0.00  0.00    +0.001 A 
ATOM     18  C   UNL     1       2.377   1.430  -0.013  0.00  0.00    +0.019 A 
ATOM     19  C   UNL     1       2.404   0.034  -0.021  0.00  0.00    +0.056 A 
ATOM     20  C   UNL     1       1.204  -0.681  -0.013  0.00  0.00    -0.020 A 
ATOM     21  C   UNL     1       0.002  -0.004   0.002  0.00  0.00    +0.006 A 
BRANCH  19  22
ATOM     22  C   UNL     1       3.655  -0.662  -0.038  0.00  0.00    +0.099 C 
ATOM     23  N   UNL     1       4.648  -1.214  -0.051  0.00  0.00    -0.191 NA
ENDBRANCH  19  22
ENDBRANCH  15  20
ENDBRANCH  14  15
ENDBRANCH   1  14
TORSDOF 5
