REMARK  Name = ZINC42944027
REMARK  11 active torsions:
REMARK  status: ('A' for Active; 'I' for Inactive)
REMARK    1  A    between atoms: C_1  and  C_2
REMARK    2  A    between atoms: C_4  and  C_27
REMARK    3  A    between atoms: C_6  and  N_8
REMARK    4  A    between atoms: C_9  and  C_11
REMARK    5  A    between atoms: C_11  and  C_13
REMARK    6  A    between atoms: C_11  and  S_16
REMARK    7  A    between atoms: C_13  and  C_14
REMARK    8  A    between atoms: C_13  and  C_15
REMARK    9  A    between atoms: S_16  and  C_17
REMARK   10  A    between atoms: C_20  and  C_23
REMARK   11  A    between atoms: N_21  and  N_22
REMARK                            x       y       z     vdW  Elec       q    Type
REMARK                         _______ _______ _______ _____ _____    ______ ____
ROOT
ATOM      1  C   UNL     1       0.268  -2.900   4.853  0.00  0.00    +0.143 C 
ENDROOT
BRANCH   1   3
ATOM      2  N   UNL     1       0.132  -2.261   2.467  0.00  0.00    -0.285 N 
ATOM      3  C   UNL     1       0.229  -1.871   3.753  0.00  0.00    +0.231 C 
ATOM      4  O   UNL     1       0.285  -0.690   4.026  0.00  0.00    -0.274 OA
ATOM      5  H   UNL     1       0.018  -3.200   2.253  0.00  0.00    +0.155 HD
BRANCH   2  11
ATOM      6  C   UNL     1       1.533  -1.034  -2.083  0.00  0.00    +0.044 C 
ATOM      7  C   UNL     1       0.868  -0.690  -0.775  0.00  0.00    -0.048 A 
ATOM      8  C   UNL     1       0.319   0.565  -0.588  0.00  0.00    +0.006 A 
ATOM      9  C   UNL     1      -0.292   0.884   0.611  0.00  0.00    -0.048 A 
ATOM     10  C   UNL     1      -0.356  -0.051   1.625  0.00  0.00    +0.026 A 
ATOM     11  C   UNL     1       0.194  -1.312   1.441  0.00  0.00    +0.034 A 
ATOM     12  C   UNL     1       0.803  -1.631   0.234  0.00  0.00    +0.026 A 
ATOM     13  C   UNL     1      -0.889   2.254   0.810  0.00  0.00    +0.044 C 
ENDBRANCH   2  11
ENDBRANCH   1   3
BRANCH   1  14
ATOM     14  C   UNL     1       1.706  -3.387   5.045  0.00  0.00    +0.005 C 
ATOM     15  C   UNL     1       1.743  -4.443   6.151  0.00  0.00    +0.009 C 
ATOM     16  C   UNL     1       2.216  -3.998   3.739  0.00  0.00    +0.009 C 
ENDBRANCH   1  14
BRANCH   1  17
ATOM     17  S   UNL     1      -0.331  -2.160   6.397  0.00  0.00    -0.071 S 
BRANCH  17  18
ATOM     18  C   UNL     1      -2.026  -1.807   6.070  0.00  0.00    +0.209 A 
ATOM     19  N   UNL     1      -2.697  -2.132   4.989  0.00  0.00    -0.121 NA
ATOM     20  N   UNL     1      -3.910  -1.718   5.087  0.00  0.00    -0.123 NA
ATOM     21  C   UNL     1      -4.085  -1.110   6.227  0.00  0.00    +0.255 A 
ATOM     22  N   UNL     1      -2.893  -1.151   6.896  0.00  0.00    -0.220 N 
BRANCH  21  23
ATOM     23  C   UNL     1      -5.364  -0.485   6.718  0.00  0.00    +0.454 C 
ATOM     24  F   UNL     1      -6.434  -0.936   5.938  0.00  0.00    -0.163 F 
ATOM     25  F   UNL     1      -5.577  -0.845   8.053  0.00  0.00    -0.163 F 
ATOM     26  F   UNL     1      -5.271   0.908   6.620  0.00  0.00    -0.163 F 
ENDBRANCH  21  23
BRANCH  22  27
ATOM     27  N   UNL     1      -2.624  -0.637   8.133  0.00  0.00    -0.295 N 
ATOM     28  H   UNL     1      -2.307   0.318   8.067  0.00  0.00    +0.163 HD
ATOM     29  H   UNL     1      -3.429  -0.710   8.738  0.00  0.00    +0.163 HD
ENDBRANCH  22  27
ENDBRANCH  17  18
ENDBRANCH   1  17
TORSDOF 7
