REMARK  Name = ZINC39675178
REMARK  13 active torsions:
REMARK  status: ('A' for Active; 'I' for Inactive)
REMARK    1  A    between atoms: C_1  and  C_2
REMARK    2  A    between atoms: C_2  and  C_4
REMARK    3  A    between atoms: C_2  and  N_14
REMARK    4  A    between atoms: C_4  and  C_5
REMARK    5  A    between atoms: C_5  and  C_6
REMARK    6  A    between atoms: C_9  and  O_12
REMARK    7  A    between atoms: O_12  and  C_13
REMARK    8  A    between atoms: C_15  and  C_17
REMARK    9  A    between atoms: C_28  and  C_30
REMARK   10  A    between atoms: C_32  and  O_38
REMARK   11  A    between atoms: C_34  and  O_36
REMARK   12  A    between atoms: O_36  and  C_37
REMARK   13  A    between atoms: O_38  and  C_39
REMARK                            x       y       z     vdW  Elec       q    Type
REMARK                         _______ _______ _______ _____ _____    ______ ____
ROOT
ATOM      1  C   UNL     1       0.375  -1.526   3.260  0.00  0.00    +0.100 C 
ATOM      2  C   UNL     1       1.079  -2.901   3.231  0.00  0.00    +0.121 C 
ATOM      3  N   UNL     1       0.902  -3.441   4.600  0.00  0.00    -0.296 N 
ATOM      4  C   UNL     1      -0.479  -3.052   4.974  0.00  0.00    +0.115 C 
ATOM      5  C   UNL     1      -0.647  -1.629   4.404  0.00  0.00    -0.004 C 
ATOM      6  C   UNL     1      -2.063  -1.441   3.866  0.00  0.00    -0.010 C 
ATOM      7  C   UNL     1      -3.057  -1.489   5.030  0.00  0.00    -0.082 C 
ATOM      8  N   UNL     1      -2.734  -0.432   5.996  0.00  0.00    +0.379 N 
ATOM      9  C   UNL     1      -1.408  -0.674   6.578  0.00  0.00    -0.082 C 
ATOM     10  C   UNL     1      -0.344  -0.590   5.479  0.00  0.00    -0.010 C 
ATOM     11  C   UNL     1       1.794  -4.129   5.338  0.00  0.00    +0.247 C 
ATOM     12  O   UNL     1       2.932  -4.276   4.936  0.00  0.00    -0.270 OA
ATOM     13  H   UNL     1      -2.737   0.462   5.529  0.00  0.00    -0.086 HD
ATOM     14  H   UNL     1      -3.426  -0.427   6.731  0.00  0.00    -0.086 HD
ENDROOT
BRANCH  11  15
ATOM     15  C   UNL     1       1.390  -4.706   6.639  0.00  0.00    +0.044 A 
ATOM     16  C   UNL     1       0.043  -4.946   6.909  0.00  0.00    +0.059 A 
ATOM     17  C   UNL     1      -0.331  -5.486   8.128  0.00  0.00    +0.124 A 
ATOM     18  C   UNL     1       0.631  -5.789   9.080  0.00  0.00    +0.091 A 
ATOM     19  C   UNL     1       1.973  -5.552   8.815  0.00  0.00    +0.124 A 
ATOM     20  C   UNL     1       2.356  -5.017   7.596  0.00  0.00    +0.059 A 
BRANCH  19  21
ATOM     21  O   UNL     1       2.912  -5.851   9.751  0.00  0.00    -0.495 OA
ATOM     22  C   UNL     1       2.447  -6.405  10.983  0.00  0.00    +0.277 C 
ENDBRANCH  19  21
BRANCH  17  23
ATOM     23  O   UNL     1      -1.644  -5.720   8.393  0.00  0.00    -0.495 OA
ATOM     24  C   UNL     1      -1.959  -6.279   9.669  0.00  0.00    +0.277 C 
ENDBRANCH  17  23
ENDBRANCH  11  15
BRANCH   1  26
ATOM     25  N   UNL     1      -0.498  -0.004   1.516  0.00  0.00    -0.312 N 
ATOM     26  C   UNL     1      -0.326  -1.268   1.951  0.00  0.00    +0.218 C 
ATOM     27  O   UNL     1      -0.736  -2.198   1.289  0.00  0.00    -0.275 OA
ATOM     28  H   UNL     1      -0.171   0.740   2.045  0.00  0.00    +0.149 HD
BRANCH  25  30
ATOM     29  C   UNL     1      -2.692   0.275   0.473  0.00  0.00    +0.028 C 
ATOM     30  C   UNL     1      -1.180   0.246   0.244  0.00  0.00    +0.070 C 
BRANCH  30  31
ATOM     31  C   UNL     1      -0.724   1.592  -0.323  0.00  0.00    +0.026 C 
BRANCH  31  32
ATOM     32  C   UNL     1       0.765   1.522  -0.668  0.00  0.00    +0.037 C 
BRANCH  32  33
ATOM     33  C   UNL     1       1.214   2.848  -1.226  0.00  0.00    -0.047 A 
ATOM     34  C   UNL     1       1.140   3.085  -2.587  0.00  0.00    +0.007 A 
ATOM     35  C   UNL     1       1.552   4.300  -3.101  0.00  0.00    +0.046 A 
ATOM     36  C   UNL     1       2.039   5.282  -2.251  0.00  0.00    +0.120 A 
ATOM     37  C   UNL     1       2.111   5.042  -0.886  0.00  0.00    +0.046 A 
ATOM     38  C   UNL     1       1.694   3.828  -0.377  0.00  0.00    +0.007 A 
BRANCH  36  39
ATOM     39  O   UNL     1       2.445   6.477  -2.754  0.00  0.00    -0.495 OA
ATOM     40  C   UNL     1       2.934   7.442  -1.821  0.00  0.00    +0.277 C 
ENDBRANCH  36  39
ENDBRANCH  32  33
ENDBRANCH  31  32
ENDBRANCH  30  31
ENDBRANCH  25  30
ENDBRANCH   1  26
TORSDOF 9
