REMARK  Name = ZINC17303939
REMARK  9 active torsions:
REMARK  status: ('A' for Active; 'I' for Inactive)
REMARK    1  A    between atoms: C_1  and  C_2
REMARK    2  A    between atoms: C_5  and  S_8
REMARK    3  A    between atoms: S_8  and  N_11
REMARK    4  A    between atoms: N_11  and  C_12
REMARK    5  A    between atoms: C_12  and  C_13
REMARK    6  A    between atoms: C_12  and  C_16
REMARK    7  A    between atoms: C_13  and  C_14
REMARK    8  A    between atoms: C_13  and  C_15
REMARK    9  A    between atoms: C_16  and  N_18
REMARK                            x       y       z     vdW  Elec       q    Type
REMARK                         _______ _______ _______ _____ _____    ______ ____
ROOT
ATOM      1  C   UNL     1       2.516  -4.718   1.117  0.00  0.00    +0.167 C 
ENDROOT
BRANCH   1   2
ATOM      2  C   UNL     1       2.554  -5.913   2.072  0.00  0.00    +0.010 C 
ATOM      3  C   UNL     1       3.227  -7.099   1.378  0.00  0.00    +0.009 C 
ATOM      4  C   UNL     1       3.347  -5.539   3.325  0.00  0.00    +0.009 C 
ENDBRANCH   1   2
BRANCH   1   5
ATOM      5  N   UNL     1       1.658  -5.035  -0.028  0.00  0.00    -0.178 NA
ATOM      6  H   UNL     1       2.022  -5.513  -0.789  0.00  0.00    +0.149 HD
BRANCH   5   7
ATOM      7  S   UNL     1       0.067  -4.577  -0.022  0.00  0.00    +0.059 S 
ATOM      8  O   UNL     1      -0.470  -4.989   1.228  0.00  0.00    -0.153 OA
ATOM      9  O   UNL     1      -0.482  -4.998  -1.263  0.00  0.00    -0.153 OA
BRANCH   7  14
ATOM     10  C   UNL     1      -0.055   1.456  -0.044  0.00  0.00    +0.044 C 
ATOM     11  C   UNL     1      -0.024  -0.051  -0.039  0.00  0.00    -0.050 A 
ATOM     12  C   UNL     1      -0.015  -0.747  -1.233  0.00  0.00    +0.005 A 
ATOM     13  C   UNL     1       0.013  -2.129  -1.228  0.00  0.00    +0.029 A 
ATOM     14  C   UNL     1       0.032  -2.815  -0.028  0.00  0.00    +0.105 A 
ATOM     15  C   UNL     1       0.024  -2.119   1.166  0.00  0.00    +0.029 A 
ATOM     16  C   UNL     1       0.000  -0.737   1.161  0.00  0.00    +0.005 A 
ENDBRANCH   7  14
ENDBRANCH   5   7
ENDBRANCH   1   5
BRANCH   1  17
ATOM     17  C   UNL     1       3.911  -4.419   0.631  0.00  0.00    +0.258 C 
ATOM     18  O   UNL     1       4.164  -4.465  -0.557  0.00  0.00    -0.272 OA
BRANCH  17  19
ATOM     19  N   UNL     1       4.864  -4.103   1.502  0.00  0.00    -0.145 NA
ATOM     20  C   UNL     1       6.118  -3.941   1.086  0.00  0.00    +0.198 A 
ATOM     21  N   UNL     1       6.525  -3.956  -0.210  0.00  0.00    -0.326 N 
ATOM     22  H   UNL     1       5.954  -4.086  -0.984  0.00  0.00    +0.169 HD
ATOM     23  C   UNL     1       7.901  -3.752  -0.237  0.00  0.00    +0.065 A 
ATOM     24  C   UNL     1       8.826  -3.673  -1.268  0.00  0.00    +0.028 A 
ATOM     25  C   UNL     1      10.159  -3.457  -0.980  0.00  0.00    +0.002 A 
ATOM     26  C   UNL     1      10.577  -3.318   0.332  0.00  0.00    +0.002 A 
ATOM     27  C   UNL     1       9.664  -3.395   1.365  0.00  0.00    +0.028 A 
ATOM     28  C   UNL     1       8.322  -3.612   1.087  0.00  0.00    +0.065 A 
ATOM     29  N   UNL     1       7.192  -3.728   1.890  0.00  0.00    -0.326 N 
ATOM     30  H   UNL     1       7.175  -3.670   2.858  0.00  0.00    +0.169 HD
ENDBRANCH  17  19
ENDBRANCH   1  17
TORSDOF 6
