REMARK  Name = ZINC66571915
REMARK  6 active torsions:
REMARK  status: ('A' for Active; 'I' for Inactive)
REMARK    1  A    between atoms: C_1  and  C_2
REMARK    2  A    between atoms: N_11  and  C_15
REMARK    3  A    between atoms: C_15  and  C_16
REMARK    4  A    between atoms: N_18  and  N_19
REMARK    5  A    between atoms: C_20  and  C_22
REMARK    6  A    between atoms: C_22  and  C_23
REMARK                            x       y       z     vdW  Elec       q    Type
REMARK                         _______ _______ _______ _____ _____    ______ ____
ROOT
ATOM      1  C   UNL     1       0.904   1.505   4.347  0.00  0.00    +0.215 C 
ENDROOT
BRANCH   1  11
ATOM      2  C   UNL     1      -0.019   1.526   0.010  0.00  0.00    +0.010 C 
ATOM      3  C   UNL     1       0.002  -0.004   0.002  0.00  0.00    +0.018 C 
ATOM      4  C   UNL     1      -1.434  -0.533   0.012  0.00  0.00    +0.006 C 
ATOM      5  C   UNL     1      -1.413  -2.063   0.024  0.00  0.00    +0.000 C 
ATOM      6  C   UNL     1      -0.690  -2.554   1.280  0.00  0.00    +0.003 C 
ATOM      7  C   UNL     1       0.749  -2.033   1.276  0.00  0.00    +0.035 C 
ATOM      8  C   UNL     1       0.741  -0.509   1.237  0.00  0.00    +0.115 C 
ATOM      9  C   UNL     1       0.111   0.049   2.493  0.00  0.00    +0.247 C 
ATOM     10  O   UNL     1      -1.023  -0.123   2.884  0.00  0.00    -0.273 OA
ATOM     11  N   UNL     1       1.078   0.778   3.087  0.00  0.00    -0.215 N 
ATOM     12  C   UNL     1       2.217   0.755   2.383  0.00  0.00    +0.310 C 
ATOM     13  O   UNL     1       3.230   1.337   2.717  0.00  0.00    -0.252 OA
ATOM     14  N   UNL     1       2.113   0.013   1.264  0.00  0.00    -0.285 N 
ATOM     15  H   UNL     1       2.808  -0.145   0.606  0.00  0.00    +0.151 HD
ENDBRANCH   1  11
BRANCH   1  16
ATOM     16  C   UNL     1       1.267   0.606   5.501  0.00  0.00    +0.247 C 
ATOM     17  O   UNL     1       1.635  -0.530   5.291  0.00  0.00    -0.273 OA
ATOM     18  N   UNL     1       1.182   1.065   6.765  0.00  0.00    -0.233 N 
ATOM     19  H   UNL     1       0.888   1.974   6.933  0.00  0.00    +0.173 HD
BRANCH  18  20
ATOM     20  N   UNL     1       1.519   0.229   7.838  0.00  0.00    -0.234 N 
ATOM     21  C   UNL     1       1.435   0.688   9.102  0.00  0.00    +0.229 C 
ATOM     22  O   UNL     1       1.067   1.825   9.311  0.00  0.00    -0.274 OA
ATOM     23  H   UNL     1       1.813  -0.680   7.670  0.00  0.00    +0.173 HD
BRANCH  21  24
ATOM     24  C   UNL     1       1.797  -0.211  10.256  0.00  0.00    +0.101 C 
BRANCH  24  25
ATOM     25  C   UNL     1       1.615   0.549  11.571  0.00  0.00    -0.002 C 
ATOM     26  C   UNL     1       2.612   1.708  11.633  0.00  0.00    +0.004 C 
ATOM     27  C   UNL     1       2.430   2.468  12.948  0.00  0.00    +0.000 C 
ATOM     28  C   UNL     1       2.677   1.520  14.123  0.00  0.00    +0.000 C 
ATOM     29  C   UNL     1       1.681   0.360  14.062  0.00  0.00    +0.000 C 
ATOM     30  C   UNL     1       1.863  -0.399  12.746  0.00  0.00    +0.004 C 
ENDBRANCH  24  25
ENDBRANCH  21  24
ENDBRANCH  18  20
ENDBRANCH   1  16
TORSDOF 5
