REMARK  Name = ZINC12601512
REMARK  9 active torsions:
REMARK  status: ('A' for Active; 'I' for Inactive)
REMARK    1  A    between atoms: C_1  and  C_2
REMARK    2  A    between atoms: C_2  and  C_4
REMARK    3  A    between atoms: C_2  and  N_18
REMARK    4  A    between atoms: C_4  and  C_6
REMARK    5  A    between atoms: C_4  and  N_12
REMARK    6  A    between atoms: C_19  and  C_21
REMARK    7  A    between atoms: C_21  and  N_22
REMARK    8  A    between atoms: N_25  and  S_28
REMARK    9  A    between atoms: S_28  and  C_31
REMARK                            x       y       z     vdW  Elec       q    Type
REMARK                         _______ _______ _______ _____ _____    ______ ____
ROOT
ATOM      1  N   UNL     1      -0.556   3.675  -8.110  0.00  0.00    -0.312 N 
ATOM      2  C   UNL     1      -1.030   3.528  -6.856  0.00  0.00    +0.197 C 
ATOM      3  O   UNL     1      -1.284   4.505  -6.186  0.00  0.00    -0.278 OA
ATOM      4  H   UNL     1      -0.325   2.788  -8.718  0.00  0.00    +0.149 HD
ENDROOT
BRANCH   1   6
ATOM      5  C   UNL     1      -1.661   5.532  -9.254  0.00  0.00    +0.030 C 
ATOM      6  C   UNL     1      -0.348   5.016  -8.661  0.00  0.00    +0.091 C 
BRANCH   6   7
ATOM      7  C   UNL     1       0.718   4.957  -9.757  0.00  0.00    +0.107 C 
BRANCH   7   8
ATOM      8  C   UNL     1       0.235   4.078 -10.882  0.00  0.00    -0.028 A 
ATOM      9  C   UNL     1       0.328   2.703 -10.773  0.00  0.00    +0.005 A 
ATOM     10  C   UNL     1      -0.119   1.897 -11.803  0.00  0.00    +0.000 A 
ATOM     11  C   UNL     1      -0.651   2.465 -12.945  0.00  0.00    +0.000 A 
ATOM     12  C   UNL     1      -0.740   3.840 -13.056  0.00  0.00    +0.000 A 
ATOM     13  C   UNL     1      -0.296   4.647 -12.024  0.00  0.00    +0.005 A 
ENDBRANCH   7   8
BRANCH   7  14
ATOM     14  N   UNL     1       1.960   4.404  -9.202  0.00  0.00    -0.289 NA
ATOM     15  C   UNL     1       2.425   5.199  -8.056  0.00  0.00    +0.113 C 
ATOM     16  C   UNL     1       3.686   4.555  -7.473  0.00  0.00    +0.175 C 
ATOM     17  O   UNL     1       4.678   4.449  -8.497  0.00  0.00    -0.377 OA
ATOM     18  C   UNL     1       4.259   3.681  -9.628  0.00  0.00    +0.175 C 
ATOM     19  C   UNL     1       3.005   4.316 -10.233  0.00  0.00    +0.113 C 
ENDBRANCH   7  14
ENDBRANCH   6   7
ENDBRANCH   1   6
BRANCH   2  20
ATOM     20  C   UNL     1      -1.243   2.148  -6.289  0.00  0.00    +0.019 C 
BRANCH  20  21
ATOM     21  N   UNL     1      -1.761   2.257  -4.919  0.00  0.00    +0.387 N 
ATOM     22  C   UNL     1      -2.204   0.949  -4.418  0.00  0.00    -0.061 C 
ATOM     23  C   UNL     1      -2.901   1.133  -3.065  0.00  0.00    +0.091 C 
ATOM     24  N   UNL     1      -1.995   1.868  -2.169  0.00  0.00    -0.180 NA
ATOM     25  C   UNL     1      -1.406   3.125  -2.654  0.00  0.00    +0.091 C 
ATOM     26  C   UNL     1      -0.764   2.860  -4.025  0.00  0.00    -0.061 C 
ATOM     27  H   UNL     1      -2.638   2.921  -4.939  0.00  0.00    -0.081 HD
BRANCH  24  28
ATOM     28  S   UNL     1      -1.653   1.298  -0.653  0.00  0.00    +0.067 S 
ATOM     29  O   UNL     1      -2.736   0.458  -0.280  0.00  0.00    -0.152 OA
ATOM     30  O   UNL     1      -1.257   2.421   0.123  0.00  0.00    -0.152 OA
BRANCH  28  31
ATOM     31  C   UNL     1      -0.236   0.259  -0.794  0.00  0.00    +0.143 A 
ATOM     32  C   UNL     1       1.076   0.587  -0.697  0.00  0.00    +0.036 A 
ATOM     33  C   UNL     1       2.027  -0.404  -0.849  0.00  0.00    +0.010 A 
ATOM     34  C   UNL     1       1.620  -1.674  -1.091  0.00  0.00    +0.047 A 
ATOM     35  S   UNL     1      -0.156  -1.496  -1.109  0.00  0.00    -0.077 S 
ENDBRANCH  28  31
ENDBRANCH  24  28
ENDBRANCH  20  21
ENDBRANCH   2  20
TORSDOF 8
