REMARK  Name = ZINC63494704
REMARK  8 active torsions:
REMARK  status: ('A' for Active; 'I' for Inactive)
REMARK    1  A    between atoms: C_4  and  C_7
REMARK    2  A    between atoms: C_7  and  N_8
REMARK    3  A    between atoms: C_13  and  C_24
REMARK    4  A    between atoms: C_24  and  C_25
REMARK    5  A    between atoms: C_25  and  C_26
REMARK    6  A    between atoms: N_28  and  C_29
REMARK    7  A    between atoms: C_29  and  C_30
REMARK    8  A    between atoms: C_30  and  C_31
REMARK                            x       y       z     vdW  Elec       q    Type
REMARK                         _______ _______ _______ _____ _____    ______ ____
ROOT
ATOM      1  N   UNL     1       4.152  -0.952   1.338  0.00  0.00    -0.254 N 
ATOM      2  C   UNL     1       4.985   0.038   2.019  0.00  0.00    +0.311 C 
ATOM      3  N   UNL     1       5.906   0.714   1.112  0.00  0.00    -0.147 NA
ATOM      4  N   UNL     1       7.075   0.626   1.499  0.00  0.00    -0.166 NA
ATOM      5  C   UNL     1       7.180  -0.157   2.738  0.00  0.00    +0.217 C 
ATOM      6  N   UNL     1       5.827  -0.675   3.005  0.00  0.00    -0.267 N 
ATOM      7  C   UNL     1       5.328  -1.640   3.850  0.00  0.00    +0.047 A 
ATOM      8  C   UNL     1       5.815  -1.906   5.112  0.00  0.00    +0.024 A 
ATOM      9  C   UNL     1       5.220  -2.890   5.881  0.00  0.00    +0.002 A 
ATOM     10  C   UNL     1       4.141  -3.609   5.391  0.00  0.00    +0.001 A 
ATOM     11  C   UNL     1       3.647  -3.362   4.127  0.00  0.00    +0.015 A 
ATOM     12  C   UNL     1       4.237  -2.380   3.338  0.00  0.00    +0.058 A 
ATOM     13  C   UNL     1       3.780  -2.090   1.967  0.00  0.00    +0.251 C 
ATOM     14  O   UNL     1       3.061  -2.885   1.393  0.00  0.00    -0.270 OA
ENDROOT
BRANCH   1  15
ATOM     15  C   UNL     1       3.711  -0.707  -0.038  0.00  0.00    +0.147 C 
BRANCH  15  19
ATOM     16  C   UNL     1      -0.017   1.378   0.010  0.00  0.00    +0.000 A 
ATOM     17  C   UNL     1       1.171   2.086   0.002  0.00  0.00    +0.000 A 
ATOM     18  C   UNL     1       2.377   1.411  -0.013  0.00  0.00    +0.005 A 
ATOM     19  C   UNL     1       2.396   0.029  -0.020  0.00  0.00    -0.030 A 
ATOM     20  C   UNL     1       1.208  -0.679  -0.012  0.00  0.00    +0.005 A 
ATOM     21  C   UNL     1       0.002  -0.004   0.002  0.00  0.00    +0.000 A 
ENDBRANCH  15  19
ENDBRANCH   1  15
BRANCH   5  22
ATOM     22  C   UNL     1       8.172  -1.307   2.554  0.00  0.00    +0.058 C 
BRANCH  22  23
ATOM     23  C   UNL     1       9.580  -0.740   2.360  0.00  0.00    +0.099 C 
BRANCH  23  24
ATOM     24  C   UNL     1      10.557  -1.873   2.178  0.00  0.00    +0.213 C 
ATOM     25  O   UNL     1      10.166  -3.021   2.202  0.00  0.00    -0.276 OA
ATOM     26  N   UNL     1      11.865  -1.611   1.990  0.00  0.00    -0.315 N 
ATOM     27  H   UNL     1      12.178  -0.693   1.970  0.00  0.00    +0.149 HD
BRANCH  26  28
ATOM     28  C   UNL     1      12.815  -2.713   1.814  0.00  0.00    +0.108 C 
BRANCH  28  29
ATOM     29  C   UNL     1      14.223  -2.146   1.619  0.00  0.00    +0.052 C 
BRANCH  29  30
ATOM     30  C   UNL     1      15.200  -3.279   1.438  0.00  0.00    -0.040 C 
ATOM     31  C   UNL     1      15.642  -3.793   0.267  0.00  0.00    -0.001 A 
ATOM     32  C   UNL     1      15.355  -3.463  -1.134  0.00  0.00    +0.010 A 
ATOM     33  C   UNL     1      15.964  -4.172  -2.112  0.00  0.00    +0.001 A 
ATOM     34  C   UNL     1      16.860  -5.210  -1.822  0.00  0.00    +0.002 A 
ATOM     35  C   UNL     1      17.173  -5.571  -0.559  0.00  0.00    +0.026 A 
ATOM     36  C   UNL     1      16.591  -4.893   0.547  0.00  0.00    +0.043 A 
ATOM     37  N   UNL     1      16.732  -5.053   1.841  0.00  0.00    -0.380 N 
ATOM     38  C   UNL     1      15.890  -4.068   2.528  0.00  0.00    +0.144 C 
ATOM     39  H   UNL     1      17.300  -5.711   2.271  0.00  0.00    +0.160 HD
ENDBRANCH  29  30
ENDBRANCH  28  29
ENDBRANCH  26  28
ENDBRANCH  23  24
ENDBRANCH  22  23
ENDBRANCH   5  22
TORSDOF 8
