REMARK  Name = ZINC66704009
REMARK  10 active torsions:
REMARK  status: ('A' for Active; 'I' for Inactive)
REMARK    1  A    between atoms: C_1  and  C_2
REMARK    2  A    between atoms: C_7  and  N_9
REMARK    3  A    between atoms: C_15  and  C_18
REMARK    4  A    between atoms: C_15  and  N_19
REMARK    5  A    between atoms: N_19  and  C_20
REMARK    6  A    between atoms: C_21  and  O_23
REMARK    7  A    between atoms: O_23  and  C_24
REMARK    8  A    between atoms: C_24  and  C_25
REMARK    9  A    between atoms: C_24  and  C_26
REMARK   10  A    between atoms: C_24  and  C_27
REMARK                            x       y       z     vdW  Elec       q    Type
REMARK                         _______ _______ _______ _____ _____    ______ ____
ROOT
ATOM      1  N   UNL     1       3.776  -0.412   2.514  0.00  0.00    -0.296 N 
ATOM      2  C   UNL     1       2.931   0.638   2.543  0.00  0.00    +0.302 C 
ATOM      3  O   UNL     1       2.037   0.721   1.723  0.00  0.00    -0.253 OA
ATOM      4  N   UNL     1       3.076   1.594   3.481  0.00  0.00    -0.286 N 
ATOM      5  C   UNL     1       2.089   2.675   3.607  0.00  0.00    +0.111 C 
ATOM      6  C   UNL     1       2.820   4.020   3.548  0.00  0.00    +0.045 C 
ATOM      7  C   UNL     1       3.920   4.046   4.612  0.00  0.00    +0.040 C 
ATOM      8  C   UNL     1       4.932   2.933   4.329  0.00  0.00    +0.045 C 
ATOM      9  C   UNL     1       4.221   1.573   4.401  0.00  0.00    +0.111 C 
ATOM     10  C   UNL     1       4.630   5.401   4.579  0.00  0.00    +0.032 C 
ATOM     11  H   UNL     1       4.532  -0.443   3.121  0.00  0.00    +0.151 HD
ENDROOT
BRANCH   1  17
ATOM     12  C   UNL     1       4.860  -2.542   3.446  0.00  0.00    +0.009 C 
ATOM     13  C   UNL     1       4.193  -2.801   2.094  0.00  0.00    +0.006 C 
ATOM     14  C   UNL     1       5.250  -3.228   1.056  0.00  0.00    +0.005 C 
ATOM     15  C   UNL     1       4.781  -2.561  -0.261  0.00  0.00    +0.002 C 
ATOM     16  C   UNL     1       4.247  -1.190   0.222  0.00  0.00    +0.022 C 
ATOM     17  C   UNL     1       3.553  -1.505   1.565  0.00  0.00    +0.077 C 
ENDBRANCH   1  17
BRANCH   7  18
ATOM     18  N   UNL     1       3.324   3.839   5.935  0.00  0.00    -0.265 N 
ATOM     19  C   UNL     1       1.868   3.843   6.091  0.00  0.00    +0.136 C 
ATOM     20  C   UNL     1       4.117   3.645   7.008  0.00  0.00    +0.404 C 
ATOM     21  O   UNL     1       5.325   3.642   6.878  0.00  0.00    -0.226 OA
BRANCH  20  22
ATOM     22  O   UNL     1       3.569   3.456   8.223  0.00  0.00    -0.445 OA
BRANCH  22  23
ATOM     23  C   UNL     1       4.469   3.256   9.315  0.00  0.00    +0.107 C 
ATOM     24  C   UNL     1       5.375   4.481   9.459  0.00  0.00    +0.055 C 
ATOM     25  C   UNL     1       3.669   3.060  10.605  0.00  0.00    +0.055 C 
ATOM     26  C   UNL     1       5.325   2.016   9.052  0.00  0.00    +0.055 C 
ENDBRANCH  22  23
ENDBRANCH  20  22
ENDBRANCH   7  18
TORSDOF 4
