REMARK  Name = ZINC12498831
REMARK  9 active torsions:
REMARK  status: ('A' for Active; 'I' for Inactive)
REMARK    1  A    between atoms: C_1  and  C_2
REMARK    2  A    between atoms: C_2  and  N_3
REMARK    3  A    between atoms: N_3  and  C_4
REMARK    4  A    between atoms: N_3  and  C_6
REMARK    5  A    between atoms: C_4  and  C_5
REMARK    6  A    between atoms: C_9  and  C_12
REMARK    7  A    between atoms: N_14  and  N_15
REMARK    8  A    between atoms: C_16  and  C_17
REMARK    9  A    between atoms: C_16  and  C_18
REMARK                            x       y       z     vdW  Elec       q    Type
REMARK                         _______ _______ _______ _____ _____    ______ ____
ROOT
ATOM      1  N   UNL     1      -3.675  -2.055   0.019  0.00  0.00    -0.184 NA
ATOM      2  C   UNL     1      -3.683  -0.757   0.028  0.00  0.00    +0.063 C 
ATOM      3  C   UNL     1      -4.993  -0.012   0.045  0.00  0.00    +0.068 C 
ENDROOT
BRANCH   2   4
ATOM      4  C   UNL     1      -2.412  -0.012   0.023  0.00  0.00    -0.001 A 
ATOM      5  C   UNL     1      -2.419   1.385   0.032  0.00  0.00    +0.011 A 
ATOM      6  C   UNL     1      -1.226   2.075   0.031  0.00  0.00    +0.017 A 
ATOM      7  C   UNL     1      -0.017   1.390   0.010  0.00  0.00    +0.034 A 
ATOM      8  C   UNL     1       0.002  -0.004   0.002  0.00  0.00    +0.046 A 
ATOM      9  C   UNL     1      -1.197  -0.702   0.007  0.00  0.00    +0.034 A 
ATOM     10  N   UNL     1       1.194  -0.724  -0.007  0.00  0.00    -0.313 N 
ATOM     11  C   UNL     1       2.417  -0.239  -0.464  0.00  0.00    +0.045 A 
ATOM     12  C   UNL     1       3.384  -1.148  -0.882  0.00  0.00    +0.024 A 
ATOM     13  C   UNL     1       4.611  -0.702  -1.335  0.00  0.00    +0.002 A 
ATOM     14  C   UNL     1       4.887   0.652  -1.376  0.00  0.00    +0.001 A 
ATOM     15  C   UNL     1       3.933   1.564  -0.965  0.00  0.00    +0.017 A 
ATOM     16  C   UNL     1       2.697   1.123  -0.511  0.00  0.00    +0.034 A 
ATOM     17  S   UNL     1       1.492   2.301   0.000  0.00  0.00    -0.086 S 
ATOM     18  H   UNL     1       1.171  -1.633   0.330  0.00  0.00    +0.152 HD
ENDBRANCH   2   4
BRANCH   1  21
ATOM     19  C   UNL     1      -4.876  -4.111   0.015  0.00  0.00    +0.263 C 
ATOM     20  O   UNL     1      -3.819  -4.713   0.001  0.00  0.00    -0.268 OA
ATOM     21  N   UNL     1      -4.884  -2.764   0.025  0.00  0.00    -0.203 N 
ATOM     22  H   UNL     1      -5.727  -2.284   0.035  0.00  0.00    +0.178 HD
BRANCH  19  26
ATOM     23  C   UNL     1      -8.539  -6.257   0.031  0.00  0.00    +0.030 A 
ATOM     24  C   UNL     1      -7.330  -6.947   0.016  0.00  0.00    +0.024 A 
ATOM     25  C   UNL     1      -6.141  -6.255   0.011  0.00  0.00    +0.015 A 
ATOM     26  C   UNL     1      -6.148  -4.857   0.021  0.00  0.00    +0.038 A 
ATOM     27  C   UNL     1      -7.364  -4.167   0.042  0.00  0.00    +0.015 A 
ATOM     28  C   UNL     1      -8.550  -4.865   0.041  0.00  0.00    +0.024 A 
BRANCH  23  29
ATOM     29  N   UNL     1      -9.739  -6.960   0.037  0.00  0.00    -0.330 N 
BRANCH  29  31
ATOM     30  C   UNL     1     -11.468  -5.973  -1.384  0.00  0.00    +0.024 C 
ATOM     31  C   UNL     1     -11.013  -6.236   0.053  0.00  0.00    +0.102 C 
ENDBRANCH  29  31
BRANCH  29  32
ATOM     32  C   UNL     1      -9.730  -8.425   0.026  0.00  0.00    +0.102 C 
ATOM     33  C   UNL     1      -9.714  -8.945   1.465  0.00  0.00    +0.024 C 
ENDBRANCH  29  32
ENDBRANCH  23  29
ENDBRANCH  19  26
ENDBRANCH   1  21
TORSDOF 6
