REMARK  Name = ZINC10394667
REMARK  4 active torsions:
REMARK  status: ('A' for Active; 'I' for Inactive)
REMARK    1  A    between atoms: C_6  and  C_7
REMARK    2  A    between atoms: C_7  and  O_9
REMARK    3  A    between atoms: O_9  and  C_10
REMARK    4  A    between atoms: C_10  and  C_11
REMARK                            x       y       z     vdW  Elec       q    Type
REMARK                         _______ _______ _______ _____ _____    ______ ____
ROOT
ATOM      1  C   UNL     1       4.993  -4.214  -0.095  0.00  0.00    +0.170 A 
ATOM      2  N   UNL     1       4.930  -4.864   1.054  0.00  0.00    -0.214 NA
ATOM      3  C   UNL     1       4.605  -6.144   1.123  0.00  0.00    +0.128 A 
ATOM      4  C   UNL     1       4.323  -6.851  -0.079  0.00  0.00    +0.051 A 
ATOM      5  C   UNL     1       3.948  -8.260  -0.243  0.00  0.00    -0.025 A 
ATOM      6  C   UNL     1       3.738  -8.688  -1.504  0.00  0.00    -0.004 A 
ATOM      7  S   UNL     1       4.015  -7.267  -2.531  0.00  0.00    -0.073 S 
ATOM      8  C   UNL     1       4.417  -6.095  -1.263  0.00  0.00    +0.114 A 
ATOM      9  N   UNL     1       4.744  -4.817  -1.241  0.00  0.00    -0.221 NA
ATOM     10  C   UNL     1       3.368 -10.067  -1.955  0.00  0.00    +0.043 C 
ATOM     11  C   UNL     1       2.189 -10.576  -1.116  0.00  0.00    +0.005 C 
ATOM     12  C   UNL     1       2.747 -11.290   0.111  0.00  0.00    +0.001 C 
ATOM     13  C   UNL     1       4.050 -10.627   0.553  0.00  0.00    +0.005 C 
ATOM     14  C   UNL     1       3.799  -9.182   0.964  0.00  0.00    +0.037 C 
ATOM     15  N   UNL     1       4.545  -6.788   2.346  0.00  0.00    -0.343 N 
ATOM     16  H   UNL     1       5.080  -6.468   3.089  0.00  0.00    +0.144 HD
ATOM     17  H   UNL     1       3.968  -7.559   2.460  0.00  0.00    +0.144 HD
ENDROOT
BRANCH   1  18
ATOM     18  C   UNL     1       5.365  -2.754  -0.096  0.00  0.00    +0.308 C 
BRANCH  18  19
ATOM     19  O   UNL     1       4.162  -1.948   0.014  0.00  0.00    -0.453 OA
BRANCH  19  20
ATOM     20  C   UNL     1       4.320  -0.610   0.027  0.00  0.00    +0.340 C 
ATOM     21  O   UNL     1       5.434  -0.130  -0.052  0.00  0.00    -0.245 OA
BRANCH  20  27
ATOM     22  C   UNL     1       1.862  -0.280   0.228  0.00  0.00    +0.019 A 
ATOM     23  C   UNL     1       0.764   0.546   0.329  0.00  0.00    +0.050 A 
ATOM     24  C   UNL     1       0.924   1.927   0.341  0.00  0.00    +0.162 A 
ATOM     25  C   UNL     1       2.199   2.482   0.254  0.00  0.00    +0.163 A 
ATOM     26  C   UNL     1       3.305   1.659   0.151  0.00  0.00    +0.064 A 
ATOM     27  C   UNL     1       3.143   0.271   0.137  0.00  0.00    +0.063 A 
ATOM     28  O   UNL     1       2.373   3.832   0.273  0.00  0.00    -0.485 OA
ATOM     29  C   UNL     1       1.218   4.634   0.002  0.00  0.00    +0.270 C 
ATOM     30  C   UNL     1       0.047   4.082   0.825  0.00  0.00    +0.270 C 
ATOM     31  O   UNL     1      -0.174   2.722   0.432  0.00  0.00    -0.485 OA
ENDBRANCH  20  27
ENDBRANCH  19  20
ENDBRANCH  18  19
ENDBRANCH   1  18
TORSDOF 4
