REMARK  Name = ZINC02302502
REMARK  8 active torsions:
REMARK  status: ('A' for Active; 'I' for Inactive)
REMARK    1  A    between atoms: C_1  and  C_2
REMARK    2  A    between atoms: C_13  and  N_15
REMARK    3  A    between atoms: N_15  and  C_16
REMARK    4  A    between atoms: C_16  and  C_17
REMARK    5  A    between atoms: C_17  and  C_18
REMARK    6  A    between atoms: C_18  and  O_19
REMARK    7  A    between atoms: C_21  and  C_24
REMARK    8  A    between atoms: C_21  and  C_25
REMARK                            x       y       z     vdW  Elec       q    Type
REMARK                         _______ _______ _______ _____ _____    ______ ____
ROOT
ATOM      1  C   UNL     1      -0.013   1.086   0.008  0.00  0.00    +0.088 C 
ATOM      2  C   UNL     1      -0.718   1.572   1.248  0.00  0.00    +0.129 A 
ATOM      3  N   UNL     1      -0.006   1.783   2.326  0.00  0.00    -0.231 NA
ATOM      4  C   UNL     1      -0.575   2.218   3.472  0.00  0.00    +0.093 A 
ATOM      5  C   UNL     1       0.081   2.502   4.763  0.00  0.00    +0.034 A 
ATOM      6  C   UNL     1       1.451   2.380   5.082  0.00  0.00    +0.020 A 
ATOM      7  C   UNL     1       1.880   2.693   6.357  0.00  0.00    +0.000 A 
ATOM      8  C   UNL     1       0.971   3.123   7.307  0.00  0.00    +0.051 A 
ATOM      9  N   UNL     1      -0.311   3.235   6.997  0.00  0.00    -0.244 NA
ATOM     10  C   UNL     1      -0.761   2.946   5.797  0.00  0.00    +0.111 A 
ATOM     11  S   UNL     1      -2.377   2.982   5.060  0.00  0.00    -0.064 S 
ATOM     12  C   UNL     1      -1.959   2.426   3.431  0.00  0.00    +0.080 A 
ATOM     13  C   UNL     1      -2.681   2.192   2.269  0.00  0.00    +0.137 A 
ATOM     14  N   UNL     1      -2.022   1.768   1.190  0.00  0.00    -0.217 NA
ATOM     15  C   UNL     1       1.409   3.480   8.705  0.00  0.00    +0.090 C 
ATOM     16  C   UNL     1       2.798   2.899   8.976  0.00  0.00    +0.070 C 
ATOM     17  O   UNL     1       3.657   3.249   7.884  0.00  0.00    -0.369 OA
ATOM     18  C   UNL     1       3.345   2.549   6.680  0.00  0.00    +0.197 C 
ATOM     19  C   UNL     1       3.355   3.484  10.275  0.00  0.00    +0.041 C 
ATOM     20  C   UNL     1       2.705   1.377   9.095  0.00  0.00    +0.041 C 
ENDROOT
BRANCH  13  21
ATOM     21  N   UNL     1      -4.051   2.399   2.229  0.00  0.00    -0.328 N 
ATOM     22  H   UNL     1      -4.517   2.712   3.021  0.00  0.00    +0.147 HD
BRANCH  21  23
ATOM     23  C   UNL     1      -4.795   2.146   0.993  0.00  0.00    +0.105 C 
BRANCH  23  24
ATOM     24  C   UNL     1      -6.277   2.450   1.218  0.00  0.00    +0.046 C 
BRANCH  24  25
ATOM     25  C   UNL     1      -7.054   2.186  -0.073  0.00  0.00    +0.157 C 
BRANCH  25  26
ATOM     26  O   UNL     1      -8.439   2.470   0.137  0.00  0.00    -0.395 OA
ATOM     27  H   UNL     1      -8.993   2.325  -0.642  0.00  0.00    +0.209 HD
ENDBRANCH  25  26
ENDBRANCH  24  25
ENDBRANCH  23  24
ENDBRANCH  21  23
ENDBRANCH  13  21
TORSDOF 5
