REMARK  Name = ZINC00420139
REMARK  5 active torsions:
REMARK  status: ('A' for Active; 'I' for Inactive)
REMARK    1  A    between atoms: C_1  and  C_2
REMARK    2  A    between atoms: C_12  and  C_14
REMARK    3  A    between atoms: C_14  and  S_15
REMARK    4  A    between atoms: S_15  and  C_16
REMARK    5  A    between atoms: C_20  and  N_22
REMARK                            x       y       z     vdW  Elec       q    Type
REMARK                         _______ _______ _______ _____ _____    ______ ____
ROOT
ATOM      1  C   UNL     1      -1.216   1.905   3.587  0.00  0.00    +0.173 C 
ENDROOT
BRANCH   1  12
ATOM      2  C   UNL     1       1.415   1.635  -0.003  0.00  0.00    +0.029 C 
ATOM      3  C   UNL     1      -0.013   1.086   0.008  0.00  0.00    +0.083 C 
ATOM      4  C   UNL     1      -0.797   1.615  -1.204  0.00  0.00    +0.059 C 
ATOM      5  C   UNL     1      -1.947   2.393  -0.603  0.00  0.00    -0.024 A 
ATOM      6  C   UNL     1      -2.979   3.090  -1.201  0.00  0.00    +0.005 A 
ATOM      7  C   UNL     1      -3.926   3.730  -0.423  0.00  0.00    +0.000 A 
ATOM      8  C   UNL     1      -3.837   3.672   0.956  0.00  0.00    +0.002 A 
ATOM      9  C   UNL     1      -2.809   2.977   1.556  0.00  0.00    +0.024 A 
ATOM     10  C   UNL     1      -1.849   2.327   0.777  0.00  0.00    +0.040 A 
ATOM     11  N   UNL     1      -0.738   1.578   1.182  0.00  0.00    -0.267 N 
ATOM     12  C   UNL     1      -0.387   1.343   2.462  0.00  0.00    +0.230 C 
ATOM     13  O   UNL     1       0.598   0.678   2.708  0.00  0.00    -0.274 OA
ENDBRANCH   1  12
BRANCH   1  14
ATOM     14  S   UNL     1      -0.492   1.419   5.173  0.00  0.00    -0.077 S 
BRANCH  14  15
ATOM     15  C   UNL     1      -1.629   2.189   6.277  0.00  0.00    +0.192 A 
ATOM     16  N   UNL     1      -2.644   2.880   5.780  0.00  0.00    -0.207 NA
ATOM     17  C   UNL     1      -3.525   3.471   6.584  0.00  0.00    +0.122 A 
ATOM     18  C   UNL     1      -3.363   3.363   7.962  0.00  0.00    +0.086 A 
ATOM     19  C   UNL     1      -2.282   2.634   8.447  0.00  0.00    +0.122 A 
ATOM     20  N   UNL     1      -1.444   2.066   7.584  0.00  0.00    -0.207 NA
ATOM     21  N   UNL     1      -4.587   4.188   6.056  0.00  0.00    -0.343 N 
ATOM     22  H   UNL     1      -5.223   4.619   6.648  0.00  0.00    +0.144 HD
ATOM     23  H   UNL     1      -4.694   4.259   5.094  0.00  0.00    +0.144 HD
BRANCH  19  24
ATOM     24  N   UNL     1      -2.081   2.499   9.812  0.00  0.00    -0.343 N 
ATOM     25  H   UNL     1      -1.325   1.989  10.144  0.00  0.00    +0.144 HD
ATOM     26  H   UNL     1      -2.696   2.916  10.437  0.00  0.00    +0.144 HD
ENDBRANCH  19  24
ENDBRANCH  14  15
ENDBRANCH   1  14
TORSDOF 4
