REMARK  Name = ZINC15079516
REMARK  6 active torsions:
REMARK  status: ('A' for Active; 'I' for Inactive)
REMARK    1  A    between atoms: C_1  and  C_2
REMARK    2  A    between atoms: C_3  and  C_7
REMARK    3  A    between atoms: N_9  and  C_10
REMARK    4  A    between atoms: C_13  and  C_26
REMARK    5  A    between atoms: C_13  and  C_27
REMARK    6  A    between atoms: N_19  and  C_20
REMARK                            x       y       z     vdW  Elec       q    Type
REMARK                         _______ _______ _______ _____ _____    ______ ____
ROOT
ATOM      1  C   UNL     1       0.034  -0.672  -4.964  0.00  0.00    +0.107 C 
ATOM      2  C   UNL     1       0.719  -1.634  -5.943  0.00  0.00    +0.034 C 
ATOM      3  C   UNL     1       0.409  -1.207  -7.380  0.00  0.00    -0.027 C 
ATOM      4  C   UNL     1      -1.067  -1.482  -7.690  0.00  0.00    +0.062 C 
ATOM      5  C   UNL     1      -1.903  -0.895  -6.580  0.00  0.00    +0.050 A 
ATOM      6  C   UNL     1      -1.413  -0.532  -5.367  0.00  0.00    +0.014 A 
ATOM      7  C   UNL     1      -2.468  -0.030  -4.608  0.00  0.00    +0.140 A 
ATOM      8  N   UNL     1      -3.557  -0.087  -5.335  0.00  0.00    -0.174 NA
ATOM      9  N   UNL     1      -3.223  -0.633  -6.586  0.00  0.00    -0.236 N 
ATOM     10  C   UNL     1       1.290  -2.000  -8.348  0.00  0.00    +0.011 C 
ATOM     11  C   UNL     1       0.694   0.288  -7.541  0.00  0.00    +0.011 C 
ENDROOT
BRANCH   9  12
ATOM     12  C   UNL     1      -4.107  -0.862  -7.650  0.00  0.00    +0.066 A 
ATOM     13  C   UNL     1      -4.021  -2.037  -8.384  0.00  0.00    +0.028 A 
ATOM     14  C   UNL     1      -4.893  -2.260  -9.432  0.00  0.00    +0.002 A 
ATOM     15  C   UNL     1      -5.851  -1.315  -9.749  0.00  0.00    +0.000 A 
ATOM     16  C   UNL     1      -5.939  -0.143  -9.019  0.00  0.00    +0.002 A 
ATOM     17  C   UNL     1      -5.073   0.083  -7.967  0.00  0.00    +0.028 A 
ENDBRANCH   9  12
BRANCH   1  20
ATOM     18  C   UNL     1       0.051  -0.378  -2.546  0.00  0.00    +0.282 C 
ATOM     19  O   UNL     1      -0.079   0.820  -2.720  0.00  0.00    -0.267 OA
ATOM     20  N   UNL     1       0.118  -1.209  -3.604  0.00  0.00    -0.302 N 
ATOM     21  H   UNL     1       0.222  -2.163  -3.465  0.00  0.00    +0.150 HD
BRANCH  18  24
ATOM     22  C   UNL     1      -0.073   1.291   0.101  0.00  0.00    +0.070 C 
ATOM     23  C   UNL     1       0.083  -0.203  -0.022  0.00  0.00    +0.089 A 
ATOM     24  C   UNL     1       0.135  -0.916  -1.183  0.00  0.00    +0.212 A 
ATOM     25  O   UNL     1       0.279  -2.216  -0.836  0.00  0.00    -0.438 OA
ATOM     26  C   UNL     1       0.312  -2.278   0.499  0.00  0.00    +0.309 A 
ATOM     27  N   UNL     1       0.200  -1.072   0.987  0.00  0.00    -0.221 NA
ENDBRANCH  18  24
ENDBRANCH   1  20
TORSDOF 3
