REMARK  Name = ZINC02380654
REMARK  7 active torsions:
REMARK  status: ('A' for Active; 'I' for Inactive)
REMARK    1  A    between atoms: C_1  and  C_2
REMARK    2  A    between atoms: C_10  and  C_20
REMARK    3  A    between atoms: C_16  and  S_18
REMARK    4  A    between atoms: S_18  and  C_19
REMARK    5  A    between atoms: C_23  and  O_26
REMARK    6  A    between atoms: O_26  and  C_27
REMARK    7  A    between atoms: C_28  and  C_31
REMARK                            x       y       z     vdW  Elec       q    Type
REMARK                         _______ _______ _______ _____ _____    ______ ____
ROOT
ATOM      1  C   UNL     1       0.032   1.423  -0.377  0.00  0.00    +0.044 C 
ATOM      2  C   UNL     1       0.039  -0.082  -0.293  0.00  0.00    -0.050 A 
ATOM      3  C   UNL     1       0.030  -0.838  -1.452  0.00  0.00    +0.007 A 
ATOM      4  C   UNL     1       0.037  -2.219  -1.391  0.00  0.00    +0.046 A 
ATOM      5  C   UNL     1       0.053  -2.854  -0.162  0.00  0.00    +0.131 A 
ATOM      6  C   UNL     1       0.060  -2.089   1.012  0.00  0.00    +0.040 A 
ATOM      7  C   UNL     1       0.060  -0.703   0.942  0.00  0.00    +0.017 A 
ATOM      8  C   UNL     1       0.072  -2.800   2.316  0.00  0.00    +0.058 C 
ATOM      9  C   UNL     1      -0.251  -4.110   2.312  0.00  0.00    +0.025 C 
ATOM     10  C   UNL     1      -0.235  -4.851   3.631  0.00  0.00    +0.159 C 
ATOM     11  N   UNL     1       0.135  -4.059   4.810  0.00  0.00    -0.209 N 
ATOM     12  C   UNL     1       0.435  -2.720   4.648  0.00  0.00    +0.216 C 
ATOM     13  N   UNL     1       0.396  -2.153   3.461  0.00  0.00    -0.326 N 
ATOM     14  N   UNL     1       0.737  -2.229   5.864  0.00  0.00    -0.192 NA
ATOM     15  C   UNL     1       0.646  -3.177   6.776  0.00  0.00    +0.174 C 
ATOM     16  N   UNL     1       0.272  -4.347   6.170  0.00  0.00    -0.239 N 
ATOM     17  C   UNL     1      -0.622  -4.802   1.033  0.00  0.00    +0.234 C 
ATOM     18  O   UNL     1       0.063  -4.208  -0.072  0.00  0.00    -0.479 OA
ATOM     19  H   UNL     1       0.614  -1.210   3.403  0.00  0.00    +0.169 HD
ATOM     20  H   UNL     1       0.130  -5.205   6.600  0.00  0.00    +0.172 HD
ENDROOT
BRANCH  17  21
ATOM     21  C   UNL     1      -2.108  -4.684   0.816  0.00  0.00    -0.000 A 
ATOM     22  C   UNL     1      -2.648  -3.494   0.364  0.00  0.00    +0.008 A 
ATOM     23  C   UNL     1      -4.011  -3.385   0.165  0.00  0.00    +0.003 A 
ATOM     24  C   UNL     1      -4.836  -4.465   0.416  0.00  0.00    +0.038 A 
ATOM     25  C   UNL     1      -4.297  -5.657   0.867  0.00  0.00    +0.124 A 
ATOM     26  C   UNL     1      -2.930  -5.768   1.062  0.00  0.00    +0.046 A 
ATOM     27  F   UNL     1      -5.102  -6.713   1.114  0.00  0.00    -0.205 F 
ENDBRANCH  17  21
BRANCH  10  28
ATOM     28  C   UNL     1       0.737  -5.997   3.514  0.00  0.00    -0.021 A 
ATOM     29  C   UNL     1       2.094  -5.767   3.654  0.00  0.00    +0.009 A 
ATOM     30  C   UNL     1       2.987  -6.816   3.547  0.00  0.00    +0.046 A 
ATOM     31  C   UNL     1       2.522  -8.099   3.301  0.00  0.00    +0.120 A 
ATOM     32  C   UNL     1       1.161  -8.327   3.162  0.00  0.00    +0.046 A 
ATOM     33  C   UNL     1       0.271  -7.276   3.275  0.00  0.00    +0.009 A 
BRANCH  31  34
ATOM     34  O   UNL     1       3.399  -9.132   3.195  0.00  0.00    -0.495 OA
ATOM     35  C   UNL     1       2.849 -10.426   2.941  0.00  0.00    +0.277 C 
ENDBRANCH  31  34
ENDBRANCH  10  28
BRANCH  15  36
ATOM     36  S   UNL     1       0.955  -2.971   8.498  0.00  0.00    -0.092 S 
ATOM     37  C   UNL     1       1.401  -1.219   8.658  0.00  0.00    +0.093 C 
ENDBRANCH  15  36
TORSDOF 4
