REMARK  Name = ZINC31056860
REMARK  7 active torsions:
REMARK  status: ('A' for Active; 'I' for Inactive)
REMARK    1  A    between atoms: C_4  and  S_7
REMARK    2  A    between atoms: S_7  and  C_8
REMARK    3  A    between atoms: C_13  and  N_14
REMARK    4  A    between atoms: C_15  and  C_17
REMARK    5  A    between atoms: N_22  and  C_24
REMARK    6  A    between atoms: C_24  and  C_25
REMARK    7  A    between atoms: C_27  and  C_30
REMARK                            x       y       z     vdW  Elec       q    Type
REMARK                         _______ _______ _______ _____ _____    ______ ____
ROOT
ATOM      1  C   UNL     1       0.476   7.709  -0.388  0.00  0.00    +0.059 C 
ATOM      2  C   UNL     1      -0.297   8.159   0.855  0.00  0.00    +0.009 C 
ATOM      3  C   UNL     1      -0.489   9.678   0.804  0.00  0.00    -0.018 C 
ATOM      4  C   UNL     1       0.879  10.357   0.713  0.00  0.00    -0.078 C 
ATOM      5  N   UNL     1       1.578   9.894  -0.492  0.00  0.00    +0.386 N 
ATOM      6  C   UNL     1       1.816   8.446  -0.444  0.00  0.00    -0.065 C 
ATOM      7  H   UNL     1       0.929  10.099  -1.356  0.00  0.00    -0.081 HD
ENDROOT
BRANCH   1   9
ATOM      8  N   UNL     1      -0.321   5.371  -0.259  0.00  0.00    -0.284 N 
ATOM      9  C   UNL     1       0.721   6.224  -0.317  0.00  0.00    +0.219 C 
ATOM     10  O   UNL     1       1.856   5.796  -0.312  0.00  0.00    -0.275 OA
ATOM     11  H   UNL     1      -1.349   5.752  -0.344  0.00  0.00    +0.155 HD
BRANCH   8  17
ATOM     12  C   UNL     1      -1.054   3.203   0.536  0.00  0.00    +0.034 A 
ATOM     13  C   UNL     1      -0.825   1.843   0.694  0.00  0.00    +0.017 A 
ATOM     14  C   UNL     1       0.354   1.283   0.241  0.00  0.00    +0.001 A 
ATOM     15  C   UNL     1       1.306   2.073  -0.380  0.00  0.00    +0.002 A 
ATOM     16  C   UNL     1       1.084   3.427  -0.546  0.00  0.00    +0.024 A 
ATOM     17  C   UNL     1      -0.094   3.998  -0.091  0.00  0.00    +0.047 A 
BRANCH  12  18
ATOM     18  S   UNL     1      -2.554   3.920   1.118  0.00  0.00    -0.088 S 
BRANCH  18  22
ATOM     19  C   UNL     1      -1.330   6.108   4.890  0.00  0.00    +0.000 A 
ATOM     20  C   UNL     1      -2.620   6.233   4.408  0.00  0.00    +0.001 A 
ATOM     21  C   UNL     1      -2.997   5.567   3.258  0.00  0.00    +0.015 A 
ATOM     22  C   UNL     1      -2.078   4.772   2.585  0.00  0.00    +0.013 A 
ATOM     23  C   UNL     1      -0.783   4.645   3.075  0.00  0.00    +0.015 A 
ATOM     24  C   UNL     1      -0.413   5.316   4.223  0.00  0.00    +0.001 A 
ENDBRANCH  18  22
ENDBRANCH  12  18
ENDBRANCH   8  17
ENDBRANCH   1   9
BRANCH   5  25
ATOM     25  C   UNL     1       2.836  10.628  -0.686  0.00  0.00    +0.022 C 
BRANCH  25  26
ATOM     26  C   UNL     1       2.593  12.102  -0.486  0.00  0.00    +0.211 A 
ATOM     27  N   UNL     1       2.681  12.758   0.644  0.00  0.00    -0.192 NA
ATOM     28  C   UNL     1       2.382  14.043   0.343  0.00  0.00    +0.209 A 
ATOM     29  N   UNL     1       2.125  14.088  -0.941  0.00  0.00    -0.056 NA
ATOM     30  O   UNL     1       2.242  12.983  -1.427  0.00  0.00    -0.340 OA
BRANCH  28  31
ATOM     31  C   UNL     1       2.348  15.180   1.286  0.00  0.00    +0.060 A 
ATOM     32  C   UNL     1       2.050  16.495   1.042  0.00  0.00    +0.019 A 
ATOM     33  C   UNL     1       2.082  17.386   2.090  0.00  0.00    +0.008 A 
ATOM     34  C   UNL     1       2.408  16.938   3.330  0.00  0.00    +0.046 A 
ATOM     35  S   UNL     1       2.676  15.197   3.040  0.00  0.00    -0.093 S 
ENDBRANCH  28  31
ENDBRANCH  25  26
ENDBRANCH   5  25
TORSDOF 7
