REMARK  Name = ZINC28052319
REMARK  6 active torsions:
REMARK  status: ('A' for Active; 'I' for Inactive)
REMARK    1  A    between atoms: C_1  and  C_2
REMARK    2  A    between atoms: C_5  and  C_8
REMARK    3  A    between atoms: C_11  and  C_32
REMARK    4  A    between atoms: C_21  and  C_24
REMARK    5  A    between atoms: C_27  and  O_30
REMARK    6  A    between atoms: O_30  and  C_31
REMARK                            x       y       z     vdW  Elec       q    Type
REMARK                         _______ _______ _______ _____ _____    ______ ____
ROOT
ATOM      1  C   UNL     1       1.058  -2.190  -0.638  0.00  0.00    +0.091 C 
ATOM      2  C   UNL     1      -0.259  -2.746  -0.201  0.00  0.00    +0.049 A 
ATOM      3  C   UNL     1      -0.808  -4.024  -0.269  0.00  0.00    +0.087 A 
ATOM      4  N   UNL     1      -1.998  -3.937   0.270  0.00  0.00    -0.081 NA
ATOM      5  O   UNL     1      -2.244  -2.808   0.648  0.00  0.00    -0.339 OA
ATOM      6  C   UNL     1      -1.229  -1.987   0.401  0.00  0.00    +0.226 A 
ATOM      7  N   UNL     1      -1.039  -0.641   0.636  0.00  0.00    -0.286 N 
ATOM      8  C   UNL     1       0.002  -0.004   0.002  0.00  0.00    +0.019 C 
ATOM      9  C   UNL     1       1.001  -0.676  -0.609  0.00  0.00    +0.024 C 
ATOM     10  C   UNL     1       2.048   0.010  -1.251  0.00  0.00    +0.162 C 
ATOM     11  O   UNL     1       2.916  -0.626  -1.816  0.00  0.00    -0.292 OA
ATOM     12  C   UNL     1       2.117   1.511  -1.255  0.00  0.00    +0.088 C 
ATOM     13  C   UNL     1       1.415   2.043  -0.001  0.00  0.00    +0.032 C 
ATOM     14  C   UNL     1      -0.018   1.508   0.010  0.00  0.00    +0.059 C 
ATOM     15  C   UNL     1      -0.163  -5.257  -0.846  0.00  0.00    +0.069 C 
ATOM     16  H   UNL     1      -1.712  -0.101   1.317  0.00  0.00    +0.155 HD
ENDROOT
BRANCH   1  21
ATOM     17  C   UNL     1       5.209  -4.029   2.937  0.00  0.00    +0.044 C 
ATOM     18  C   UNL     1       4.127  -3.549   2.005  0.00  0.00    -0.050 A 
ATOM     19  C   UNL     1       4.189  -3.855   0.658  0.00  0.00    +0.003 A 
ATOM     20  C   UNL     1       3.196  -3.416  -0.197  0.00  0.00    +0.005 A 
ATOM     21  C   UNL     1       2.141  -2.670   0.294  0.00  0.00    -0.035 A 
ATOM     22  C   UNL     1       2.081  -2.360   1.640  0.00  0.00    +0.005 A 
ATOM     23  C   UNL     1       3.071  -2.804   2.496  0.00  0.00    +0.003 A 
ENDBRANCH   1  21
BRANCH  13  24
ATOM     24  C   UNL     1       1.394   3.549  -0.029  0.00  0.00    -0.043 A 
ATOM     25  C   UNL     1       0.791   4.211  -1.083  0.00  0.00    +0.007 A 
ATOM     26  C   UNL     1       0.766   5.592  -1.109  0.00  0.00    +0.046 A 
ATOM     27  C   UNL     1       1.357   6.315  -0.083  0.00  0.00    +0.120 A 
ATOM     28  C   UNL     1       1.968   5.648   0.970  0.00  0.00    +0.046 A 
ATOM     29  C   UNL     1       1.984   4.267   0.994  0.00  0.00    +0.007 A 
BRANCH  27  30
ATOM     30  O   UNL     1       1.340   7.673  -0.109  0.00  0.00    -0.495 OA
ATOM     31  C   UNL     1       0.694   8.292  -1.224  0.00  0.00    +0.277 C 
ENDBRANCH  27  30
ENDBRANCH  13  24
TORSDOF 3
