REMARK  Name = ZINC39617917
REMARK  8 active torsions:
REMARK  status: ('A' for Active; 'I' for Inactive)
REMARK    1  A    between atoms: C_1  and  C_2
REMARK    2  A    between atoms: C_4  and  N_17
REMARK    3  A    between atoms: N_8  and  C_11
REMARK    4  A    between atoms: N_9  and  C_10
REMARK    5  A    between atoms: C_18  and  C_20
REMARK    6  A    between atoms: C_20  and  S_21
REMARK    7  A    between atoms: S_21  and  C_22
REMARK    8  A    between atoms: C_26  and  C_28
REMARK                            x       y       z     vdW  Elec       q    Type
REMARK                         _______ _______ _______ _____ _____    ______ ____
ROOT
ATOM      1  N   UNL     1      -1.992  -1.474  -0.540  0.00  0.00    -0.302 N 
ATOM      2  C   UNL     1      -3.271  -1.429  -0.963  0.00  0.00    +0.224 C 
ATOM      3  O   UNL     1      -3.926  -0.420  -0.807  0.00  0.00    -0.275 OA
ATOM      4  H   UNL     1      -1.469  -2.281  -0.665  0.00  0.00    +0.150 HD
ENDROOT
BRANCH   1   7
ATOM      5  C   UNL     1       0.695   1.111  -0.144  0.00  0.00    +0.028 C 
ATOM      6  C   UNL     1       0.146  -0.314  -0.051  0.00  0.00    +0.102 C 
ATOM      7  C   UNL     1      -1.394  -0.305   0.109  0.00  0.00    +0.179 C 
ATOM      8  C   UNL     1      -1.561  -0.373   1.616  0.00  0.00    +0.256 C 
ATOM      9  O   UNL     1      -2.579  -0.139   2.232  0.00  0.00    -0.272 OA
ATOM     10  N   UNL     1      -0.380  -0.739   2.148  0.00  0.00    -0.201 N 
ATOM     11  N   UNL     1       0.580  -0.968   1.206  0.00  0.00    -0.218 NA
ATOM     12  C   UNL     1       0.787  -2.408   1.005  0.00  0.00    +0.128 C 
BRANCH  10  13
ATOM     13  C   UNL     1      -0.160  -0.870   3.523  0.00  0.00    +0.053 A 
ATOM     14  C   UNL     1       0.964  -0.299   4.106  0.00  0.00    +0.025 A 
ATOM     15  C   UNL     1       1.179  -0.430   5.464  0.00  0.00    +0.002 A 
ATOM     16  C   UNL     1       0.277  -1.131   6.243  0.00  0.00    +0.000 A 
ATOM     17  C   UNL     1      -0.843  -1.702   5.667  0.00  0.00    +0.002 A 
ATOM     18  C   UNL     1      -1.067  -1.568   4.310  0.00  0.00    +0.025 A 
ENDBRANCH  10  13
ENDBRANCH   1   7
BRANCH   2  19
ATOM     19  C   UNL     1      -3.887  -2.631  -1.631  0.00  0.00    +0.173 C 
BRANCH  19  20
ATOM     20  S   UNL     1      -5.604  -2.260  -2.082  0.00  0.00    -0.079 S 
BRANCH  20  21
ATOM     21  C   UNL     1      -6.177  -3.743  -2.841  0.00  0.00    +0.167 A 
ATOM     22  N   UNL     1      -7.423  -3.943  -3.352  0.00  0.00    -0.339 N 
ATOM     23  H   UNL     1      -8.149  -3.300  -3.364  0.00  0.00    +0.167 HD
ATOM     24  C   UNL     1      -7.461  -5.224  -3.848  0.00  0.00    +0.113 A 
ATOM     25  C   UNL     1      -6.240  -5.769  -3.626  0.00  0.00    +0.090 A 
ATOM     26  N   UNL     1      -5.471  -4.835  -3.011  0.00  0.00    -0.222 NA
BRANCH  25  27
ATOM     27  C   UNL     1      -5.817  -7.143  -3.994  0.00  0.00    +0.002 A 
ATOM     28  C   UNL     1      -6.709  -8.001  -4.635  0.00  0.00    +0.011 A 
ATOM     29  C   UNL     1      -6.310  -9.277  -4.976  0.00  0.00    +0.016 A 
ATOM     30  C   UNL     1      -5.027  -9.706  -4.683  0.00  0.00    +0.018 A 
ATOM     31  C   UNL     1      -4.138  -8.857  -4.046  0.00  0.00    +0.016 A 
ATOM     32  C   UNL     1      -4.524  -7.577  -3.706  0.00  0.00    +0.011 A 
ATOM     33 BR   UNL     1      -4.488 -11.456  -5.153  0.00  0.00    -0.050 Br
ENDBRANCH  25  27
ENDBRANCH  20  21
ENDBRANCH  19  20
ENDBRANCH   2  19
TORSDOF 6
