REMARK  Name = ZINC20275228
REMARK  5 active torsions:
REMARK  status: ('A' for Active; 'I' for Inactive)
REMARK    1  A    between atoms: C_1  and  C_2
REMARK    2  A    between atoms: C_3  and  C_21
REMARK    3  A    between atoms: C_6  and  N_11
REMARK    4  A    between atoms: C_13  and  C_20
REMARK    5  A    between atoms: C_16  and  C_19
REMARK                            x       y       z     vdW  Elec       q    Type
REMARK                         _______ _______ _______ _____ _____    ______ ____
ROOT
ATOM      1  C   UNL     1      -1.371   4.772   0.041  0.00  0.00    +0.066 C 
ATOM      2  C   UNL     1      -0.550   3.509   0.026  0.00  0.00    +0.046 A 
ATOM      3  C   UNL     1       0.836   3.439   0.013  0.00  0.00    +0.156 A 
ATOM      4  N   UNL     1       1.159   2.094   0.002  0.00  0.00    -0.293 N 
ATOM      5  C   UNL     1       2.352   1.438  -0.013  0.00  0.00    +0.116 A 
ATOM      6  C   UNL     1       2.393   0.080  -0.020  0.00  0.00    +0.047 A 
ATOM      7  C   UNL     1       1.196  -0.659  -0.013  0.00  0.00    +0.028 A 
ATOM      8  C   UNL     1       0.002  -0.004   0.002  0.00  0.00    +0.047 A 
ATOM      9  C   UNL     1      -0.017   1.402   0.010  0.00  0.00    +0.116 A 
ATOM     10  N   UNL     1      -1.025   2.275   0.019  0.00  0.00    -0.343 N 
ATOM     11  H   UNL     1      -2.112   2.104   0.020  0.00  0.00    +0.167 HD
ENDROOT
BRANCH   6  12
ATOM     12  N   UNL     1       3.626  -0.583  -0.036  0.00  0.00    -0.328 N 
ATOM     13  C   UNL     1       4.444  -0.147  -1.176  0.00  0.00    +0.108 C 
ATOM     14  C   UNL     1       5.834  -0.781  -1.080  0.00  0.00    +0.003 C 
ATOM     15  C   UNL     1       5.695  -2.306  -1.081  0.00  0.00    +0.009 C 
ATOM     16  C   UNL     1       4.800  -2.730   0.087  0.00  0.00    +0.003 C 
ATOM     17  C   UNL     1       3.440  -2.040  -0.043  0.00  0.00    +0.108 C 
ATOM     18  C   UNL     1       5.456  -2.322   1.408  0.00  0.00    +0.009 C 
ATOM     19  C   UNL     1       6.678  -0.344  -2.279  0.00  0.00    +0.009 C 
ENDBRANCH   6  12
BRANCH   3  20
ATOM     20  C   UNL     1       1.740   4.528   0.009  0.00  0.00    +0.405 C 
ATOM     21  O   UNL     1       1.317   5.670   0.020  0.00  0.00    -0.239 OA
ATOM     22  O   UNL     1       3.070   4.301  -0.005  0.00  0.00    -0.239 OA
ENDBRANCH   3  20
TORSDOF 2
