REMARK  Name = ZINC00883157
REMARK  7 active torsions:
REMARK  status: ('A' for Active; 'I' for Inactive)
REMARK    1  A    between atoms: C_1  and  O_2
REMARK    2  A    between atoms: O_2  and  C_3
REMARK    3  A    between atoms: C_6  and  C_11
REMARK    4  A    between atoms: C_8  and  O_9
REMARK    5  A    between atoms: O_9  and  C_10
REMARK    6  A    between atoms: C_16  and  C_26
REMARK    7  A    between atoms: C_30  and  C_32
REMARK                            x       y       z     vdW  Elec       q    Type
REMARK                         _______ _______ _______ _____ _____    ______ ____
ROOT
ATOM      1  C   UNL     1       0.932  -4.773   2.852  0.00  0.00    +0.032 C 
ATOM      2  C   UNL     1       1.232  -4.425   1.395  0.00  0.00    +0.059 C 
ATOM      3  C   UNL     1       0.537  -3.128   1.018  0.00  0.00    +0.017 C 
ATOM      4  C   UNL     1      -0.642  -2.800   1.573  0.00  0.00    +0.036 C 
ATOM      5  C   UNL     1      -1.440  -1.551   1.285  0.00  0.00    +0.136 C 
ATOM      6  N   UNL     1      -0.983  -0.797   0.137  0.00  0.00    -0.331 N 
ATOM      7  C   UNL     1       0.274  -0.193   0.129  0.00  0.00    +0.049 A 
ATOM      8  C   UNL     1       0.414   1.185   0.134  0.00  0.00    +0.025 A 
ATOM      9  C   UNL     1       1.679   1.740   0.228  0.00  0.00    +0.002 A 
ATOM     10  C   UNL     1       2.794   0.927   0.316  0.00  0.00    +0.002 A 
ATOM     11  C   UNL     1       2.658  -0.451   0.294  0.00  0.00    +0.025 A 
ATOM     12  C   UNL     1       1.395  -1.006   0.183  0.00  0.00    +0.052 A 
ATOM     13  N   UNL     1       1.191  -2.378   0.094  0.00  0.00    -0.316 N 
ATOM     14  C   UNL     1      -1.238  -3.652   2.533  0.00  0.00    +0.163 C 
ATOM     15  O   UNL     1      -2.316  -3.343   3.002  0.00  0.00    -0.292 OA
ATOM     16  C   UNL     1      -0.588  -4.923   2.991  0.00  0.00    +0.088 C 
ATOM     17  H   UNL     1      -1.560  -0.710  -0.638  0.00  0.00    +0.147 HD
ATOM     18  H   UNL     1       1.542  -2.834  -0.687  0.00  0.00    +0.152 HD
ENDROOT
BRANCH   1  22
ATOM     19  C   UNL     1       2.851  -8.450   3.891  0.00  0.00    +0.161 A 
ATOM     20  C   UNL     1       1.944  -8.411   2.844  0.00  0.00    +0.049 A 
ATOM     21  C   UNL     1       1.325  -7.220   2.511  0.00  0.00    +0.008 A 
ATOM     22  C   UNL     1       1.609  -6.068   3.220  0.00  0.00    -0.040 A 
ATOM     23  C   UNL     1       2.517  -6.099   4.262  0.00  0.00    +0.053 A 
ATOM     24  C   UNL     1       3.137  -7.290   4.604  0.00  0.00    +0.162 A 
BRANCH  19  26
ATOM     25  C   UNL     1       3.120 -10.770   3.443  0.00  0.00    +0.277 C 
ATOM     26  O   UNL     1       3.461  -9.620   4.220  0.00  0.00    -0.491 OA
ENDBRANCH  19  26
BRANCH  24  27
ATOM     27  O   UNL     1       4.026  -7.324   5.633  0.00  0.00    -0.491 OA
ATOM     28  C   UNL     1       4.270  -6.096   6.320  0.00  0.00    +0.277 C 
ENDBRANCH  24  27
ENDBRANCH   1  22
BRANCH   5  29
ATOM     29  C   UNL     1      -1.384  -0.658   2.497  0.00  0.00    -0.022 A 
ATOM     30  C   UNL     1      -2.543  -0.355   3.187  0.00  0.00    +0.006 A 
ATOM     31  C   UNL     1      -2.492   0.464   4.299  0.00  0.00    +0.001 A 
ATOM     32  C   UNL     1      -1.281   0.981   4.721  0.00  0.00    +0.012 A 
ATOM     33  C   UNL     1      -0.122   0.678   4.031  0.00  0.00    +0.055 A 
ATOM     34  C   UNL     1      -0.173  -0.145   2.922  0.00  0.00    +0.018 A 
BRANCH  33  35
ATOM     35  C   UNL     1       1.198   1.241   4.492  0.00  0.00    +0.417 C 
ATOM     36  F   UNL     1       0.996   2.034   5.627  0.00  0.00    -0.166 F 
ATOM     37  F   UNL     1       2.069   0.192   4.805  0.00  0.00    -0.166 F 
ATOM     38  F   UNL     1       1.754   2.021   3.472  0.00  0.00    -0.166 F 
ENDBRANCH  33  35
ENDBRANCH   5  29
TORSDOF 5
