REMARK  Name = ZINC39438928
REMARK  4 active torsions:
REMARK  status: ('A' for Active; 'I' for Inactive)
REMARK    1  A    between atoms: C_1  and  C_2
REMARK    2  A    between atoms: C_5  and  C_16
REMARK    3  A    between atoms: C_6  and  C_15
REMARK    4  A    between atoms: N_21  and  C_22
REMARK                            x       y       z     vdW  Elec       q    Type
REMARK                         _______ _______ _______ _____ _____    ______ ____
ROOT
ATOM      1  C   UNL     1      -2.820  -1.954   1.526  0.00  0.00    +0.078 A 
ATOM      2  C   UNL     1      -3.990  -1.615   0.901  0.00  0.00    +0.076 A 
ATOM      3  S   UNL     1      -5.173  -2.502   1.906  0.00  0.00    -0.060 S 
ATOM      4  C   UNL     1      -4.004  -3.228   3.046  0.00  0.00    +0.163 A 
ATOM      5  N   UNL     1      -2.859  -2.760   2.585  0.00  0.00    -0.225 NA
ATOM      6  N   UNL     1      -4.238  -4.065   4.125  0.00  0.00    -0.294 N 
ATOM      7  H   UNL     1      -3.507  -4.317   4.711  0.00  0.00    +0.154 HD
ENDROOT
BRANCH   1  11
ATOM      8  C   UNL     1       0.306   1.187  -0.088  0.00  0.00    +0.032 C 
ATOM      9  C   UNL     1       0.075  -0.320  -0.216  0.00  0.00    +0.097 C 
ATOM     10  C   UNL     1      -1.384  -0.633  -0.012  0.00  0.00    +0.002 C 
ATOM     11  C   UNL     1      -1.530  -1.436   1.027  0.00  0.00    -0.004 C 
ATOM     12  C   UNL     1      -0.183  -1.744   1.628  0.00  0.00    +0.106 C 
ATOM     13  N   UNL     1       0.826  -1.030   0.828  0.00  0.00    -0.287 N 
ATOM     14  C   UNL     1       2.196  -1.028   1.018  0.00  0.00    +0.214 A 
ATOM     15  H   UNL     1       2.920   0.193  -0.505  0.00  0.00    +0.192 HD
ATOM     16  N   UNL     1       2.849  -1.674   1.960  0.00  0.00    -0.202 NA
ATOM     17  C   UNL     1       4.157  -1.442   1.840  0.00  0.00    +0.246 A 
ATOM     18  N   UNL     1       4.359  -0.648   0.824  0.00  0.00    -0.160 NA
ATOM     19  N   UNL     1       3.102  -0.367   0.266  0.00  0.00    -0.247 N 
ATOM     20  C   UNL     1       0.078  -3.251   1.574  0.00  0.00    +0.033 C 
ENDBRANCH   1  11
BRANCH   6  21
ATOM     21  C   UNL     1      -5.529  -4.547   4.370  0.00  0.00    +0.036 A 
ATOM     22  C   UNL     1      -6.346  -4.915   3.310  0.00  0.00    +0.027 A 
ATOM     23  C   UNL     1      -7.621  -5.390   3.552  0.00  0.00    +0.051 A 
ATOM     24  C   UNL     1      -8.088  -5.500   4.853  0.00  0.00    +0.162 A 
ATOM     25  C   UNL     1      -7.272  -5.134   5.917  0.00  0.00    +0.164 A 
ATOM     26  C   UNL     1      -5.991  -4.662   5.674  0.00  0.00    +0.072 A 
ATOM     27  O   UNL     1      -7.710  -5.243   7.201  0.00  0.00    -0.485 OA
ATOM     28  C   UNL     1      -9.124  -5.371   7.390  0.00  0.00    +0.270 C 
ATOM     29  C   UNL     1      -9.649  -6.417   6.397  0.00  0.00    +0.270 C 
ATOM     30  O   UNL     1      -9.350  -5.966   5.071  0.00  0.00    -0.485 OA
ENDBRANCH   6  21
TORSDOF 2
