REMARK  Name = ZINC04625787
REMARK  3 active torsions:
REMARK  status: ('A' for Active; 'I' for Inactive)
REMARK    1  A    between atoms: C_1  and  C_2
REMARK    2  A    between atoms: N_10  and  C_11
REMARK    3  A    between atoms: C_11  and  C_12
REMARK                            x       y       z     vdW  Elec       q    Type
REMARK                         _______ _______ _______ _____ _____    ______ ____
ROOT
ATOM      1  C   UNL     1      -2.799  -0.174   6.520  0.00  0.00    +0.067 C 
ATOM      2  C   UNL     1      -1.342  -0.505   6.326  0.00  0.00    +0.061 A 
ATOM      3  C   UNL     1      -0.575  -0.858   7.399  0.00  0.00    +0.103 A 
ATOM      4  C   UNL     1       0.783  -1.161   7.192  0.00  0.00    +0.267 A 
ATOM      5  O   UNL     1       1.498  -1.481   8.128  0.00  0.00    -0.267 OA
ATOM      6  N   UNL     1       1.279  -1.098   5.938  0.00  0.00    -0.294 N 
ATOM      7  H   UNL     1       2.240  -1.317   5.766  0.00  0.00    +0.172 HD
ATOM      8  C   UNL     1       0.467  -0.735   4.908  0.00  0.00    +0.196 A 
ATOM      9  N   UNL     1      -0.804  -0.452   5.109  0.00  0.00    -0.220 NA
ATOM     10  N   UNL     1       0.979  -0.667   3.640  0.00  0.00    -0.315 N 
ATOM     11 BR   UNL     1      -1.325  -0.938   9.133  0.00  0.00    -0.043 Br
ATOM     12  H   UNL     1       1.913  -0.874   3.482  0.00  0.00    +0.149 HD
ENDROOT
BRANCH  10  13
ATOM     13  C   UNL     1       0.115  -0.283   2.521  0.00  0.00    +0.108 C 
BRANCH  13  14
ATOM     14  C   UNL     1       0.928  -0.286   1.225  0.00  0.00    +0.010 C 
ATOM     15  C   UNL     1       1.946   0.877   1.221  0.00  0.00    +0.009 C 
ATOM     16  C   UNL     1       1.539   1.753  -0.003  0.00  0.00    -0.010 C 
ATOM     17  C   UNL     1       1.922   0.890  -1.244  0.00  0.00    +0.004 C 
ATOM     18  C   UNL     1       0.904  -0.273  -1.241  0.00  0.00    +0.004 C 
ATOM     19  C   UNL     1       0.002  -0.004   0.002  0.00  0.00    -0.006 C 
ATOM     20  C   UNL     1      -0.019   1.565   0.011  0.00  0.00    +0.007 C 
ENDBRANCH  13  14
ENDBRANCH  10  13
TORSDOF 2
