REMARK  Name = ZINC15947307
REMARK  7 active torsions:
REMARK  status: ('A' for Active; 'I' for Inactive)
REMARK    1  A    between atoms: C_1  and  C_2
REMARK    2  A    between atoms: C_2  and  N_3
REMARK    3  A    between atoms: C_11  and  O_31
REMARK    4  A    between atoms: C_13  and  C_16
REMARK    5  A    between atoms: C_18  and  C_23
REMARK    6  A    between atoms: C_21  and  O_22
REMARK    7  A    between atoms: C_23  and  C_24
REMARK                            x       y       z     vdW  Elec       q    Type
REMARK                         _______ _______ _______ _____ _____    ______ ____
ROOT
ATOM      1  N   UNL     1       0.713  -0.491   1.192  0.00  0.00    +0.383 N 
ATOM      2  C   UNL     1       0.840  -1.952   1.122  0.00  0.00    -0.074 C 
ATOM      3  C   UNL     1       1.836  -2.447   2.176  0.00  0.00    +0.018 C 
ATOM      4  C   UNL     1       1.420  -1.870   3.522  0.00  0.00    -0.027 A 
ATOM      5  C   UNL     1       0.567  -0.818   3.574  0.00  0.00    -0.021 A 
ATOM      6  S   UNL     1       0.364  -0.488   5.301  0.00  0.00    -0.080 S 
ATOM      7  C   UNL     1       1.352  -1.667   5.923  0.00  0.00    +0.080 A 
ATOM      8  C   UNL     1       1.862  -2.354   4.814  0.00  0.00    +0.067 A 
ATOM      9  C   UNL     1       2.780  -3.492   5.077  0.00  0.00    +0.220 C 
ATOM     10  N   UNL     1       3.250  -3.624   6.288  0.00  0.00    -0.223 NA
ATOM     11  C   UNL     1       2.987  -2.698   7.382  0.00  0.00    +0.227 C 
ATOM     12  N   UNL     1       1.695  -2.008   7.211  0.00  0.00    -0.313 N 
ATOM     13  C   UNL     1      -0.043  -0.117   2.402  0.00  0.00    -0.035 C 
ATOM     14  H   UNL     1       1.120  -1.805   7.965  0.00  0.00    +0.149 HD
ATOM     15  H   UNL     1       1.631  -0.075   1.228  0.00  0.00    -0.081 HD
ENDROOT
BRANCH  11  16
ATOM     16  C   UNL     1       4.089  -1.671   7.433  0.00  0.00    +0.036 A 
ATOM     17  C   UNL     1       5.335  -1.968   6.916  0.00  0.00    +0.015 A 
ATOM     18  C   UNL     1       6.346  -1.026   6.963  0.00  0.00    -0.042 A 
ATOM     19  C   UNL     1       6.113   0.215   7.525  0.00  0.00    +0.007 A 
ATOM     20  C   UNL     1       4.868   0.517   8.042  0.00  0.00    +0.046 A 
ATOM     21  C   UNL     1       3.850  -0.424   7.992  0.00  0.00    +0.124 A 
BRANCH  21  22
ATOM     22  O   UNL     1       2.623  -0.127   8.495  0.00  0.00    -0.506 OA
ATOM     23  H   UNL     1       2.518  -0.348   9.431  0.00  0.00    +0.292 HD
ENDBRANCH  21  22
BRANCH  18  24
ATOM     24  C   UNL     1       7.706  -1.354   6.400  0.00  0.00    +0.071 C 
BRANCH  24  25
ATOM     25  C   UNL     1       7.753  -0.965   4.945  0.00  0.00    -0.025 A 
ATOM     26  C   UNL     1       7.481  -1.906   3.969  0.00  0.00    +0.005 A 
ATOM     27  C   UNL     1       7.525  -1.550   2.634  0.00  0.00    +0.000 A 
ATOM     28  C   UNL     1       7.841  -0.253   2.274  0.00  0.00    +0.001 A 
ATOM     29  C   UNL     1       8.113   0.689   3.249  0.00  0.00    +0.020 A 
ATOM     30  C   UNL     1       8.064   0.334   4.585  0.00  0.00    +0.044 A 
ATOM     31 CL   UNL     1       8.399   1.517   5.811  0.00  0.00    -0.083 Cl
ENDBRANCH  24  25
ENDBRANCH  18  24
ENDBRANCH  11  16
BRANCH   1  33
ATOM     32  C   UNL     1      -0.019   1.526   0.010  0.00  0.00    -0.017 C 
ATOM     33  C   UNL     1       0.002  -0.004   0.002  0.00  0.00    -0.082 C 
ENDBRANCH   1  33
BRANCH   9  34
ATOM     34  O   UNL     1       3.117  -4.361   4.096  0.00  0.00    -0.492 OA
ATOM     35  H   UNL     1       3.720  -5.061   4.382  0.00  0.00    +0.294 HD
ENDBRANCH   9  34
TORSDOF 6
