REMARK  Name = ZINC37318297
REMARK  8 active torsions:
REMARK  status: ('A' for Active; 'I' for Inactive)
REMARK    1  A    between atoms: C_1  and  C_2
REMARK    2  A    between atoms: C_2  and  C_3
REMARK    3  A    between atoms: C_3  and  C_5
REMARK    4  A    between atoms: C_3  and  N_12
REMARK    5  A    between atoms: N_12  and  C_13
REMARK    6  A    between atoms: C_18  and  N_19
REMARK    7  A    between atoms: N_19  and  C_20
REMARK    8  A    between atoms: N_19  and  C_21
REMARK                            x       y       z     vdW  Elec       q    Type
REMARK                         _______ _______ _______ _____ _____    ______ ____
ROOT
ATOM      1  N   UNL     1       2.148  -0.104   1.172  0.00  0.00    -0.336 N 
ATOM      2  H   UNL     1       2.812  -0.712   0.811  0.00  0.00    +0.147 HD
ENDROOT
BRANCH   1   3
ATOM      3  C   UNL     1       2.533   1.164   1.625  0.00  0.00    +0.050 A 
ATOM      4  C   UNL     1       1.586   2.033   2.146  0.00  0.00    +0.040 A 
ATOM      5  C   UNL     1       1.969   3.285   2.593  0.00  0.00    +0.020 A 
ATOM      6  C   UNL     1       3.295   3.673   2.522  0.00  0.00    +0.017 A 
ATOM      7  C   UNL     1       4.245   2.812   2.004  0.00  0.00    +0.026 A 
ATOM      8  C   UNL     1       3.870   1.553   1.559  0.00  0.00    +0.050 A 
ATOM      9 BR   UNL     1       0.677   4.469   3.303  0.00  0.00    -0.050 Br
BRANCH   8  10
ATOM     10  N   UNL     1       4.832   0.677   1.040  0.00  0.00    -0.335 N 
ATOM     11  C   UNL     1       5.530  -0.255   1.929  0.00  0.00    +0.129 C 
ATOM     12  C   UNL     1       5.140   0.694  -0.393  0.00  0.00    +0.129 C 
ENDBRANCH   8  10
ENDBRANCH   1   3
BRANCH   1  13
ATOM     13  C   UNL     1       0.742  -0.511   1.242  0.00  0.00    +0.100 C 
BRANCH  13  14
ATOM     14  C   UNL     1       0.657  -2.014   1.298  0.00  0.00    -0.026 A 
ATOM     15  C   UNL     1       1.506  -2.784   0.525  0.00  0.00    +0.005 A 
ATOM     16  C   UNL     1       1.428  -4.163   0.576  0.00  0.00    +0.001 A 
ATOM     17  C   UNL     1       0.501  -4.774   1.400  0.00  0.00    +0.015 A 
ATOM     18  C   UNL     1      -0.348  -4.004   2.174  0.00  0.00    +0.018 A 
ATOM     19  C   UNL     1      -0.267  -2.623   2.126  0.00  0.00    +0.020 A 
ATOM     20 BR   UNL     1      -1.618  -4.838   3.301  0.00  0.00    -0.050 Br
ENDBRANCH  13  14
BRANCH  13  22
ATOM     21  C   UNL     1      -0.019   1.526   0.010  0.00  0.00    +0.006 C 
ATOM     22  C   UNL     1       0.002  -0.004   0.002  0.00  0.00    +0.023 C 
ENDBRANCH  13  22
ENDBRANCH   1  13
TORSDOF 5
