REMARK  Name = ZINC08620788
REMARK  8 active torsions:
REMARK  status: ('A' for Active; 'I' for Inactive)
REMARK    1  A    between atoms: C_1  and  C_2
REMARK    2  A    between atoms: C_2  and  C_3
REMARK    3  A    between atoms: C_2  and  C_4
REMARK    4  A    between atoms: C_4  and  C_6
REMARK    5  A    between atoms: C_4  and  O_12
REMARK    6  A    between atoms: O_12  and  C_13
REMARK    7  A    between atoms: C_13  and  C_15
REMARK    8  A    between atoms: C_28  and  C_29
REMARK                            x       y       z     vdW  Elec       q    Type
REMARK                         _______ _______ _______ _____ _____    ______ ____
ROOT
ATOM      1  C   UNL     1      -0.108   5.455  -0.256  0.00  0.00    +0.073 A 
ATOM      2  C   UNL     1      -0.134   3.993  -0.304  0.00  0.00    +0.015 A 
ATOM      3  C   UNL     1       1.041   3.236  -0.264  0.00  0.00    +0.011 A 
ATOM      4  C   UNL     1       0.968   1.875  -0.312  0.00  0.00    +0.001 A 
ATOM      5  C   UNL     1      -0.263   1.229  -0.402  0.00  0.00    +0.002 A 
ATOM      6  C   UNL     1      -1.426   1.936  -0.449  0.00  0.00    +0.028 A 
ATOM      7  C   UNL     1      -1.391   3.342  -0.395  0.00  0.00    +0.072 A 
ATOM      8  N   UNL     1      -2.511   4.059  -0.434  0.00  0.00    -0.247 NA
ATOM      9  C   UNL     1      -2.521   5.389  -0.392  0.00  0.00    +0.072 A 
ATOM     10  C   UNL     1      -1.324   6.121  -0.302  0.00  0.00    -0.007 A 
ATOM     11  C   UNL     1      -1.631   7.598  -0.272  0.00  0.00    +0.043 C 
ATOM     12  C   UNL     1      -3.159   7.721  -0.353  0.00  0.00    +0.042 C 
ATOM     13  C   UNL     1      -3.674   6.305  -0.427  0.00  0.00    -0.018 C 
ATOM     14  C   UNL     1      -4.971   5.940  -0.510  0.00  0.00    +0.052 C 
ENDROOT
BRANCH  14  15
ATOM     15  C   UNL     1      -6.019   6.961  -0.535  0.00  0.00    +0.128 A 
ATOM     16  C   UNL     1      -7.363   6.731  -0.623  0.00  0.00    +0.049 A 
ATOM     17  C   UNL     1      -7.990   7.989  -0.612  0.00  0.00    +0.042 A 
ATOM     18  C   UNL     1      -7.014   8.918  -0.529  0.00  0.00    +0.195 A 
ATOM     19  O   UNL     1      -5.826   8.295  -0.483  0.00  0.00    -0.464 OA
ENDBRANCH  14  15
BRANCH   1  20
ATOM     20  C   UNL     1       1.167   6.196  -0.162  0.00  0.00    +0.341 C 
ATOM     21  O   UNL     1       1.750   6.534  -1.173  0.00  0.00    -0.245 OA
BRANCH  20  22
ATOM     22  O   UNL     1       1.685   6.496   1.046  0.00  0.00    -0.448 OA
BRANCH  22  23
ATOM     23  C   UNL     1       2.940   7.225   1.062  0.00  0.00    +0.265 C 
BRANCH  23  24
ATOM     24  C   UNL     1       3.719   6.855   2.298  0.00  0.00    +0.261 C 
ATOM     25  O   UNL     1       4.864   7.232   2.428  0.00  0.00    -0.271 OA
ATOM     26  N   UNL     1       3.143   6.106   3.259  0.00  0.00    -0.237 N 
ATOM     27  C   UNL     1       3.800   5.867   4.412  0.00  0.00    +0.303 C 
ATOM     28  O   UNL     1       4.911   6.328   4.585  0.00  0.00    -0.253 OA
ATOM     29  N   UNL     1       3.224   5.118   5.372  0.00  0.00    -0.313 N 
ATOM     30  H   UNL     1       2.256   5.739   3.121  0.00  0.00    +0.159 HD
ATOM     31  H   UNL     1       2.337   4.750   5.234  0.00  0.00    +0.146 HD
ATOM     32  H   UNL     1       3.696   4.946   6.202  0.00  0.00    +0.146 HD
ENDBRANCH  23  24
BRANCH  23  34
ATOM     33  C   UNL     1       3.975   9.496   0.953  0.00  0.00    +0.011 C 
ATOM     34  C   UNL     1       2.657   8.728   1.068  0.00  0.00    +0.033 C 
ATOM     35  C   UNL     1       1.755   9.082  -0.116  0.00  0.00    +0.011 C 
ENDBRANCH  23  34
ENDBRANCH  22  23
ENDBRANCH  20  22
ENDBRANCH   1  20
TORSDOF 6
