REMARK  Name = ZINC36013965
REMARK  13 active torsions:
REMARK  status: ('A' for Active; 'I' for Inactive)
REMARK    1  A    between atoms: C_1  and  C_2
REMARK    2  A    between atoms: C_2  and  C_3
REMARK    3  A    between atoms: C_3  and  N_4
REMARK    4  A    between atoms: N_11  and  C_14
REMARK    5  A    between atoms: C_14  and  C_15
REMARK    6  A    between atoms: C_16  and  C_32
REMARK    7  A    between atoms: C_17  and  C_25
REMARK    8  A    between atoms: N_22  and  C_23
REMARK    9  A    between atoms: C_23  and  C_24
REMARK   10  A    between atoms: C_29  and  C_31
REMARK   11  A    between atoms: C_32  and  O_34
REMARK   12  A    between atoms: O_34  and  C_35
REMARK   13  A    between atoms: C_35  and  C_36
REMARK                            x       y       z     vdW  Elec       q    Type
REMARK                         _______ _______ _______ _____ _____    ______ ____
ROOT
ATOM      1  C   UNL     1      -5.265  -7.110   3.107  0.00  0.00    +0.010 C 
ATOM      2  C   UNL     1      -5.694  -8.336   3.476  0.00  0.00    +0.076 C 
ATOM      3  C   UNL     1      -7.169  -8.646   3.315  0.00  0.00    +0.143 C 
ATOM      4  N   UNL     1      -8.018  -7.576   2.764  0.00  0.00    -0.288 N 
ATOM      5  C   UNL     1      -7.442  -6.401   2.441  0.00  0.00    +0.307 C 
ATOM      6  O   UNL     1      -8.135  -5.512   1.986  0.00  0.00    -0.252 OA
ATOM      7  N   UNL     1      -6.133  -6.179   2.611  0.00  0.00    -0.261 N 
ATOM      8  H   UNL     1      -8.970  -7.714   2.637  0.00  0.00    +0.151 HD
ENDROOT
BRANCH   3   9
ATOM      9  C   UNL     1      -7.295  -9.848   2.415  0.00  0.00    -0.022 A 
ATOM     10  C   UNL     1      -7.186  -9.700   1.044  0.00  0.00    +0.006 A 
ATOM     11  C   UNL     1      -7.301 -10.803   0.219  0.00  0.00    +0.001 A 
ATOM     12  C   UNL     1      -7.526 -12.053   0.764  0.00  0.00    +0.003 A 
ATOM     13  C   UNL     1      -7.634 -12.201   2.134  0.00  0.00    -0.050 A 
ATOM     14  C   UNL     1      -7.514 -11.099   2.960  0.00  0.00    +0.009 A 
ATOM     15  C   UNL     1      -7.879 -13.565   2.728  0.00  0.00    +0.044 C 
ENDBRANCH   3   9
BRANCH   7  16
ATOM     16  C   UNL     1      -5.600  -4.867   2.236  0.00  0.00    +0.111 C 
ATOM     17  C   UNL     1      -5.278  -4.856   0.740  0.00  0.00    +0.025 C 
ENDBRANCH   7  16
BRANCH   2  18
ATOM     18  C   UNL     1      -4.797  -9.299   3.996  0.00  0.00    +0.339 C 
ATOM     19  O   UNL     1      -3.644  -8.991   4.233  0.00  0.00    -0.245 OA
BRANCH  18  20
ATOM     20  O   UNL     1      -5.221 -10.559   4.229  0.00  0.00    -0.462 OA
BRANCH  20  21
ATOM     21  C   UNL     1      -4.261 -11.479   4.754  0.00  0.00    +0.229 C 
ATOM     22  C   UNL     1      -4.920 -12.846   4.950  0.00  0.00    +0.048 C 
ENDBRANCH  20  21
ENDBRANCH  18  20
ENDBRANCH   2  18
BRANCH   1  23
ATOM     23  C   UNL     1      -3.806  -6.760   3.252  0.00  0.00    -0.026 C 
BRANCH  23  31
ATOM     24  N   UNL     1      -2.563  -7.781   8.393  0.00  0.00    -0.299 N 
ATOM     25  C   UNL     1      -1.941  -6.638   8.044  0.00  0.00    +0.302 C 
ATOM     26  O   UNL     1      -0.814  -6.412   8.442  0.00  0.00    -0.253 OA
ATOM     27  N   UNL     1      -2.568  -5.744   7.255  0.00  0.00    -0.287 N 
ATOM     28  C   UNL     1      -1.821  -4.558   6.788  0.00  0.00    +0.107 C 
ATOM     29  C   UNL     1      -2.129  -4.255   5.311  0.00  0.00    +0.000 C 
ATOM     30  C   UNL     1      -2.214  -5.553   4.538  0.00  0.00    -0.077 C 
ATOM     31  N   UNL     1      -3.607  -5.994   4.489  0.00  0.00    +0.384 N 
ATOM     32  C   UNL     1      -4.017  -6.793   5.579  0.00  0.00    -0.059 C 
ATOM     33  C   UNL     1      -3.949  -5.983   6.889  0.00  0.00    +0.091 C 
ATOM     34  H   UNL     1      -3.486  -7.929   8.136  0.00  0.00    +0.150 HD
ATOM     35  H   UNL     1      -4.198  -5.177   4.452  0.00  0.00    -0.081 HD
BRANCH  24  36
ATOM     36  C   UNL     1      -1.844  -8.801   9.160  0.00  0.00    +0.105 C 
BRANCH  36  38
ATOM     37  C   UNL     1      -2.019 -11.056  10.224  0.00  0.00    +0.005 C 
ATOM     38  C   UNL     1      -2.771  -9.990   9.423  0.00  0.00    +0.015 C 
ENDBRANCH  36  38
ENDBRANCH  24  36
ENDBRANCH  23  31
ENDBRANCH   1  23
TORSDOF 9
