REMARK  Name = ZINC35842540
REMARK  16 active torsions:
REMARK  status: ('A' for Active; 'I' for Inactive)
REMARK    1  A    between atoms: C_1  and  C_2
REMARK    2  A    between atoms: C_7  and  C_8
REMARK    3  A    between atoms: N_10  and  C_11
REMARK    4  A    between atoms: N_10  and  C_38
REMARK    5  A    between atoms: C_11  and  C_12
REMARK    6  A    between atoms: N_14  and  C_15
REMARK    7  A    between atoms: N_14  and  C_27
REMARK    8  A    between atoms: C_15  and  C_16
REMARK    9  A    between atoms: C_16  and  C_17
REMARK   10  A    between atoms: C_27  and  C_28
REMARK   11  A    between atoms: C_31  and  C_34
REMARK   12  A    between atoms: C_34  and  C_35
REMARK   13  A    between atoms: C_34  and  C_36
REMARK   14  A    between atoms: C_34  and  C_37
REMARK   15  A    between atoms: C_38  and  C_39
REMARK   16  A    between atoms: C_38  and  C_40
REMARK                            x       y       z     vdW  Elec       q    Type
REMARK                         _______ _______ _______ _____ _____    ______ ____
ROOT
ATOM      1  C   UNL     1      -1.159   0.382   5.330  0.00  0.00    +0.233 C 
ATOM      2  O   UNL     1      -2.029  -0.209   4.725  0.00  0.00    -0.274 OA
ATOM      3  N   UNL     1      -1.460   1.049   6.462  0.00  0.00    -0.296 N 
ENDROOT
BRANCH   1   4
ATOM      4  C   UNL     1       0.258   0.369   4.817  0.00  0.00    +0.204 C 
BRANCH   4   7
ATOM      5  C   UNL     1       0.135   0.183   2.390  0.00  0.00    +0.248 C 
ATOM      6  O   UNL     1      -0.016   1.387   2.333  0.00  0.00    -0.270 OA
ATOM      7  N   UNL     1       0.323  -0.417   3.583  0.00  0.00    -0.286 N 
BRANCH   5  14
ATOM      8  C   UNL     1      -2.153   0.333   0.626  0.00  0.00    +0.044 C 
ATOM      9  C   UNL     1      -0.986  -0.560   0.293  0.00  0.00    -0.038 A 
ATOM     10  C   UNL     1      -0.998  -1.312  -0.864  0.00  0.00    +0.004 A 
ATOM     11  C   UNL     1       0.072  -2.132  -1.170  0.00  0.00    +0.000 A 
ATOM     12  C   UNL     1       1.162  -2.205  -0.320  0.00  0.00    +0.001 A 
ATOM     13  C   UNL     1       1.187  -1.459   0.839  0.00  0.00    +0.013 A 
ATOM     14  C   UNL     1       0.112  -0.625   1.152  0.00  0.00    +0.040 A 
ENDBRANCH   5  14
BRANCH   7  15
ATOM     15  C   UNL     1       0.593  -1.856   3.644  0.00  0.00    +0.071 C 
ATOM     16  C   UNL     1       2.007  -2.087   4.180  0.00  0.00    +0.028 C 
ATOM     17  C   UNL     1      -0.421  -2.525   4.575  0.00  0.00    +0.028 C 
ENDBRANCH   7  15
ENDBRANCH   4   7
ENDBRANCH   1   4
BRANCH   3  18
ATOM     18  C   UNL     1      -0.409   1.762   7.193  0.00  0.00    +0.113 C 
BRANCH  18  19
ATOM     19  C   UNL     1      -0.313   3.198   6.676  0.00  0.00    +0.056 C 
BRANCH  19  20
ATOM     20  C   UNL     1       0.767   3.932   7.428  0.00  0.00    -0.021 A 
ATOM     21  C   UNL     1       0.601   4.705   8.512  0.00  0.00    +0.087 A 
ATOM     22  N   UNL     1       1.808   5.205   8.919  0.00  0.00    -0.360 N 
ATOM     23  H   UNL     1       1.941   5.790   9.681  0.00  0.00    +0.165 HD
ATOM     24  C   UNL     1       2.807   4.753   8.085  0.00  0.00    +0.047 A 
ATOM     25  C   UNL     1       2.199   3.931   7.118  0.00  0.00    +0.003 A 
ATOM     26  C   UNL     1       2.978   3.322   6.133  0.00  0.00    +0.010 A 
ATOM     27  C   UNL     1       4.329   3.526   6.114  0.00  0.00    +0.001 A 
ATOM     28  C   UNL     1       4.934   4.332   7.068  0.00  0.00    +0.002 A 
ATOM     29  C   UNL     1       4.183   4.950   8.044  0.00  0.00    +0.026 A 
ENDBRANCH  19  20
ENDBRANCH  18  19
ENDBRANCH   3  18
BRANCH   3  30
ATOM     30  C   UNL     1      -2.837   1.060   6.962  0.00  0.00    +0.143 C 
BRANCH  30  31
ATOM     31  C   UNL     1      -3.043  -0.106   7.893  0.00  0.00    -0.030 A 
ATOM     32  C   UNL     1      -3.474  -1.321   7.394  0.00  0.00    +0.005 A 
ATOM     33  C   UNL     1      -3.664  -2.391   8.248  0.00  0.00    +0.004 A 
ATOM     34  C   UNL     1      -3.422  -2.246   9.602  0.00  0.00    -0.042 A 
ATOM     35  C   UNL     1      -2.991  -1.032  10.101  0.00  0.00    +0.004 A 
ATOM     36  C   UNL     1      -2.797   0.037   9.246  0.00  0.00    +0.005 A 
BRANCH  34  37
ATOM     37  C   UNL     1      -3.630  -3.413  10.533  0.00  0.00    -0.013 C 
ATOM     38  C   UNL     1      -2.717  -4.567  10.116  0.00  0.00    +0.015 C 
ATOM     39  C   UNL     1      -3.294  -2.988  11.964  0.00  0.00    +0.015 C 
ATOM     40  C   UNL     1      -5.089  -3.866  10.465  0.00  0.00    +0.015 C 
ENDBRANCH  34  37
ENDBRANCH  30  31
ENDBRANCH   3  30
TORSDOF 10
