REMARK  Name = ZINC21240344
REMARK  6 active torsions:
REMARK  status: ('A' for Active; 'I' for Inactive)
REMARK    1  A    between atoms: C_1  and  C_2
REMARK    2  A    between atoms: C_2  and  C_3
REMARK    3  A    between atoms: C_2  and  O_4
REMARK    4  A    between atoms: O_4  and  C_5
REMARK    5  A    between atoms: C_8  and  C_11
REMARK    6  A    between atoms: C_16  and  C_26
REMARK                            x       y       z     vdW  Elec       q    Type
REMARK                         _______ _______ _______ _____ _____    ______ ____
ROOT
ATOM      1  C   UNL     1      -3.577   6.866   0.857  0.00  0.00    +0.032 C 
ATOM      2  C   UNL     1      -2.756   8.039   0.325  0.00  0.00    +0.059 C 
ATOM      3  C   UNL     1      -3.655   9.245   0.109  0.00  0.00    +0.017 C 
ATOM      4  C   UNL     1      -4.940   9.082  -0.249  0.00  0.00    +0.036 C 
ATOM      5  C   UNL     1      -5.938  10.188  -0.497  0.00  0.00    +0.136 C 
ATOM      6  N   UNL     1      -5.359  11.512  -0.580  0.00  0.00    -0.331 N 
ATOM      7  C   UNL     1      -4.737  12.095   0.523  0.00  0.00    +0.049 A 
ATOM      8  C   UNL     1      -5.248  13.233   1.126  0.00  0.00    +0.025 A 
ATOM      9  C   UNL     1      -4.622  13.748   2.248  0.00  0.00    +0.002 A 
ATOM     10  C   UNL     1      -3.497  13.133   2.766  0.00  0.00    +0.002 A 
ATOM     11  C   UNL     1      -2.973  12.006   2.155  0.00  0.00    +0.025 A 
ATOM     12  C   UNL     1      -3.586  11.503   1.021  0.00  0.00    +0.052 A 
ATOM     13  N   UNL     1      -3.050  10.446   0.294  0.00  0.00    -0.316 N 
ATOM     14  C   UNL     1      -5.473   7.782  -0.418  0.00  0.00    +0.163 C 
ATOM     15  O   UNL     1      -6.631   7.665  -0.769  0.00  0.00    -0.292 OA
ATOM     16  C   UNL     1      -4.660   6.545  -0.180  0.00  0.00    +0.088 C 
ATOM     17  H   UNL     1      -5.406  12.075  -1.524  0.00  0.00    +0.147 HD
ATOM     18  H   UNL     1      -2.060  10.638  -0.147  0.00  0.00    +0.152 HD
ENDROOT
BRANCH   5  19
ATOM     19  C   UNL     1      -6.946  10.181   0.623  0.00  0.00    -0.023 A 
ATOM     20  C   UNL     1      -6.532  10.380   1.927  0.00  0.00    +0.007 A 
ATOM     21  C   UNL     1      -7.457  10.379   2.954  0.00  0.00    +0.020 A 
ATOM     22  C   UNL     1      -8.796  10.167   2.678  0.00  0.00    +0.041 A 
ATOM     23  C   UNL     1      -9.209   9.961   1.373  0.00  0.00    +0.020 A 
ATOM     24  C   UNL     1      -8.284   9.968   0.347  0.00  0.00    +0.007 A 
ATOM     25 CL   UNL     1      -9.958  10.159   3.968  0.00  0.00    -0.084 Cl
ENDBRANCH   5  19
BRANCH   1  29
ATOM     26  C   UNL     1      -1.050   3.464   1.410  0.00  0.00    +0.121 A 
ATOM     27  C   UNL     1      -1.168   4.045   0.156  0.00  0.00    +0.046 A 
ATOM     28  C   UNL     1      -1.990   5.141  -0.022  0.00  0.00    +0.007 A 
ATOM     29  C   UNL     1      -2.686   5.666   1.052  0.00  0.00    -0.043 A 
ATOM     30  C   UNL     1      -2.565   5.092   2.304  0.00  0.00    +0.007 A 
ATOM     31  C   UNL     1      -1.749   3.993   2.485  0.00  0.00    +0.046 A 
BRANCH  26  32
ATOM     32  O   UNL     1      -0.247   2.382   1.586  0.00  0.00    -0.489 OA
BRANCH  32  34
ATOM     33  C   UNL     1       1.253   1.160   3.035  0.00  0.00    +0.051 C 
ATOM     34  C   UNL     1      -0.075   1.913   2.925  0.00  0.00    +0.167 C 
ATOM     35  C   UNL     1      -1.226   0.972   3.287  0.00  0.00    +0.051 C 
ENDBRANCH  32  34
ENDBRANCH  26  32
ENDBRANCH   1  29
TORSDOF 4
