REMARK  Name = ZINC53546478
REMARK  9 active torsions:
REMARK  status: ('A' for Active; 'I' for Inactive)
REMARK    1  A    between atoms: C_1  and  C_2
REMARK    2  A    between atoms: C_6  and  O_8
REMARK    3  A    between atoms: O_8  and  C_9
REMARK    4  A    between atoms: C_9  and  C_11
REMARK    5  A    between atoms: C_9  and  C_12
REMARK    6  A    between atoms: N_14  and  C_15
REMARK    7  A    between atoms: C_19  and  S_22
REMARK    8  A    between atoms: C_20  and  C_21
REMARK    9  A    between atoms: S_22  and  N_25
REMARK                            x       y       z     vdW  Elec       q    Type
REMARK                         _______ _______ _______ _____ _____    ______ ____
ROOT
ATOM      1  C   UNL     1      -0.447  -2.780   4.705  0.00  0.00    +0.258 C 
ATOM      2  O   UNL     1      -0.827  -3.919   4.535  0.00  0.00    -0.271 OA
ATOM      3  N   UNL     1      -0.539  -2.214   5.925  0.00  0.00    -0.282 N 
ATOM      4  H   UNL     1      -0.291  -1.285   6.048  0.00  0.00    +0.155 HD
ENDROOT
BRANCH   3   5
ATOM      5  C   UNL     1      -0.993  -2.967   7.013  0.00  0.00    +0.038 A 
ATOM      6  C   UNL     1      -1.965  -3.942   6.828  0.00  0.00    +0.024 A 
ATOM      7  C   UNL     1      -2.411  -4.683   7.904  0.00  0.00    +0.004 A 
ATOM      8  C   UNL     1      -1.891  -4.456   9.166  0.00  0.00    +0.029 A 
ATOM      9  C   UNL     1      -0.923  -3.487   9.353  0.00  0.00    +0.110 A 
ATOM     10  C   UNL     1      -0.468  -2.746   8.280  0.00  0.00    -0.003 A 
ATOM     11  C   UNL     1       0.592  -1.695   8.484  0.00  0.00    +0.048 C 
BRANCH   9  12
ATOM     12  S   UNL     1      -0.264  -3.201  10.962  0.00  0.00    +0.056 S 
ATOM     13  O   UNL     1      -0.313  -1.797  11.178  0.00  0.00    -0.153 OA
ATOM     14  O   UNL     1      -0.899  -4.128  11.832  0.00  0.00    -0.153 OA
BRANCH  12  15
ATOM     15  N   UNL     1       1.338  -3.617  10.916  0.00  0.00    -0.204 NA
ATOM     16  H   UNL     1       1.730  -3.946  10.092  0.00  0.00    +0.144 HD
ATOM     17  H   UNL     1       1.885  -3.531  11.712  0.00  0.00    +0.144 HD
ENDBRANCH  12  15
ENDBRANCH   9  12
ENDBRANCH   3   5
BRANCH   1  18
ATOM     18  C   UNL     1       0.129  -1.998   3.553  0.00  0.00    +0.256 C 
ATOM     19  C   UNL     1       1.604  -1.698   3.827  0.00  0.00    +0.062 C 
BRANCH  18  20
ATOM     20  O   UNL     1       0.014  -2.764   2.352  0.00  0.00    -0.478 OA
BRANCH  20  26
ATOM     21  C   UNL     1      -0.007   1.515   0.005  0.00  0.00    +0.044 C 
ATOM     22  C   UNL     1      -0.008   0.008  -0.004  0.00  0.00    -0.047 A 
ATOM     23  C   UNL     1      -0.020  -0.675  -1.206  0.00  0.00    +0.005 A 
ATOM     24  C   UNL     1      -0.021  -2.058  -1.218  0.00  0.00    +0.024 A 
ATOM     25  C   UNL     1      -0.010  -2.760  -0.028  0.00  0.00    +0.083 A 
ATOM     26  C   UNL     1       0.003  -2.076   1.180  0.00  0.00    +0.140 A 
ATOM     27  C   UNL     1       0.009  -0.689   1.188  0.00  0.00    +0.050 A 
ATOM     28 CL   UNL     1      -0.012  -4.496  -0.043  0.00  0.00    -0.080 Cl
ENDBRANCH  20  26
ENDBRANCH  18  20
ENDBRANCH   1  18
TORSDOF 6
