REMARK  Name = ZINC06860630
REMARK  15 active torsions:
REMARK  status: ('A' for Active; 'I' for Inactive)
REMARK    1  A    between atoms: C_1  and  C_2
REMARK    2  A    between atoms: C_2  and  C_3
REMARK    3  A    between atoms: C_8  and  N_9
REMARK    4  A    between atoms: N_9  and  C_10
REMARK    5  A    between atoms: C_10  and  C_12
REMARK    6  A    between atoms: C_10  and  C_18
REMARK    7  A    between atoms: C_15  and  C_17
REMARK    8  A    between atoms: N_20  and  C_21
REMARK    9  A    between atoms: C_21  and  C_22
REMARK   10  A    between atoms: C_22  and  O_24
REMARK   11  A    between atoms: O_24  and  C_25
REMARK   12  A    between atoms: C_25  and  C_26
REMARK   13  A    between atoms: C_27  and  C_29
REMARK   14  A    between atoms: C_30  and  N_37
REMARK   15  A    between atoms: C_31  and  C_34
REMARK                            x       y       z     vdW  Elec       q    Type
REMARK                         _______ _______ _______ _____ _____    ______ ____
ROOT
ATOM      1  N   UNL     1      -5.395   1.954   3.134  0.00  0.00    -0.248 N 
ATOM      2  C   UNL     1      -6.006   1.280   4.129  0.00  0.00    +0.262 C 
ATOM      3  O   UNL     1      -5.708   1.503   5.288  0.00  0.00    -0.269 OA
ENDROOT
BRANCH   1   9
ATOM      4  C   UNL     1      -5.053   0.727   1.083  0.00  0.00    -0.026 A 
ATOM      5  C   UNL     1      -5.396   0.474  -0.231  0.00  0.00    +0.005 A 
ATOM      6  C   UNL     1      -6.413   1.192  -0.832  0.00  0.00    +0.000 A 
ATOM      7  C   UNL     1      -7.093   2.163  -0.119  0.00  0.00    +0.002 A 
ATOM      8  C   UNL     1      -6.758   2.418   1.196  0.00  0.00    +0.024 A 
ATOM      9  C   UNL     1      -5.737   1.698   1.803  0.00  0.00    +0.041 A 
BRANCH   4  11
ATOM     10  C   UNL     1      -4.518  -1.302   2.403  0.00  0.00    +0.009 C 
ATOM     11  C   UNL     1      -3.941  -0.052   1.736  0.00  0.00    +0.033 C 
ENDBRANCH   4  11
ENDBRANCH   1   9
BRANCH   2  12
ATOM     12  C   UNL     1      -7.028   0.280   3.815  0.00  0.00    +0.116 A 
ATOM     13  C   UNL     1      -7.777  -0.522   4.679  0.00  0.00    +0.076 A 
ATOM     14  C   UNL     1      -8.661  -1.359   3.998  0.00  0.00    +0.155 A 
ATOM     15  N   UNL     1      -8.705  -1.318   2.685  0.00  0.00    -0.203 NA
ATOM     16  S   UNL     1      -7.656  -0.233   2.229  0.00  0.00    +0.019 S 
BRANCH  14  17
ATOM     17  C   UNL     1      -9.537  -2.281   4.744  0.00  0.00    +0.262 C 
ATOM     18  O   UNL     1      -9.491  -2.315   5.959  0.00  0.00    -0.269 OA
ATOM     19  N   UNL     1     -10.389  -3.087   4.080  0.00  0.00    -0.324 N 
ATOM     20  H   UNL     1     -10.425  -3.061   3.111  0.00  0.00    +0.145 HD
ATOM     21  H   UNL     1     -10.965  -3.694   4.571  0.00  0.00    +0.145 HD
ENDBRANCH  14  17
BRANCH  13  22
ATOM     22  N   UNL     1      -7.654  -0.490   6.061  0.00  0.00    -0.355 N 
ATOM     23  H   UNL     1      -7.020   0.115   6.478  0.00  0.00    +0.142 HD
ATOM     24  H   UNL     1      -8.202  -1.072   6.611  0.00  0.00    +0.142 HD
ENDBRANCH  13  22
ENDBRANCH   2  12
BRANCH   1  25
ATOM     25  C   UNL     1      -4.372   2.954   3.449  0.00  0.00    +0.233 C 
BRANCH  25  26
ATOM     26  C   UNL     1      -3.120   2.656   2.664  0.00  0.00    +0.135 A 
ATOM     27  C   UNL     1      -1.874   2.589   3.167  0.00  0.00    +0.047 A 
ATOM     28  C   UNL     1      -1.012   2.286   2.088  0.00  0.00    +0.045 A 
ATOM     29  C   UNL     1      -1.784   2.186   0.990  0.00  0.00    +0.102 A 
ATOM     30  O   UNL     1      -3.058   2.417   1.344  0.00  0.00    -0.462 OA
ATOM     31  C   UNL     1      -1.298   1.875  -0.402  0.00  0.00    +0.086 C 
ENDBRANCH  25  26
BRANCH  25  32
ATOM     32  C   UNL     1      -4.880   4.325   3.081  0.00  0.00    +0.242 C 
ATOM     33  O   UNL     1      -5.845   4.439   2.355  0.00  0.00    -0.273 OA
ATOM     34  N   UNL     1      -4.262   5.423   3.560  0.00  0.00    -0.303 N 
ATOM     35  H   UNL     1      -3.491   5.331   4.141  0.00  0.00    +0.149 HD
BRANCH  34  36
ATOM     36  C   UNL     1      -4.756   6.755   3.203  0.00  0.00    +0.225 C 
BRANCH  36  37
ATOM     37  C   UNL     1      -3.897   7.803   3.863  0.00  0.00    +0.324 C 
ATOM     38  O   UNL     1      -2.968   7.471   4.560  0.00  0.00    -0.249 OA
BRANCH  37  39
ATOM     39  O   UNL     1      -4.165   9.105   3.677  0.00  0.00    -0.464 OA
BRANCH  39  40
ATOM     40  C   UNL     1      -3.296  10.058   4.343  0.00  0.00    +0.229 C 
ATOM     41  C   UNL     1      -3.753  11.481   4.015  0.00  0.00    +0.048 C 
ENDBRANCH  39  40
ENDBRANCH  37  39
ENDBRANCH  36  37
ENDBRANCH  34  36
ENDBRANCH  25  32
ENDBRANCH   1  25
TORSDOF 12
