REMARK  Name = ZINC14879050
REMARK  13 active torsions:
REMARK  status: ('A' for Active; 'I' for Inactive)
REMARK    1  A    between atoms: C_1  and  C_2
REMARK    2  A    between atoms: C_3  and  C_4
REMARK    3  A    between atoms: C_3  and  C_5
REMARK    4  A    between atoms: C_5  and  N_68
REMARK    5  A    between atoms: C_8  and  C_11
REMARK    6  A    between atoms: C_11  and  C_23
REMARK    7  A    between atoms: N_14  and  C_18
REMARK    8  A    between atoms: C_18  and  C_19
REMARK    9  A    between atoms: C_19  and  C_20
REMARK   10  A    between atoms: C_20  and  N_70
REMARK   11  A    between atoms: C_21  and  N_70
REMARK   12  A    between atoms: C_22  and  N_70
REMARK   13  A    between atoms: C_23  and  C_24
REMARK                            x       y       z     vdW  Elec       q    Type
REMARK                         _______ _______ _______ _____ _____    ______ ____
ROOT
ATOM      1  C   UNL     1      -0.018   1.469   0.010  0.00  0.00    +0.119 C 
ATOM      2  C   UNL     1       1.450   1.845  -0.002  0.00  0.00    +0.247 C 
ATOM      3  O   UNL     1       1.920   2.963  -0.001  0.00  0.00    -0.273 OA
ATOM      4  N   UNL     1       2.125   0.679  -0.015  0.00  0.00    -0.224 N 
ATOM      5  C   UNL     1       1.296  -0.371  -0.012  0.00  0.00    +0.309 C 
ATOM      6  O   UNL     1       1.670  -1.528  -0.022  0.00  0.00    -0.252 OA
ATOM      7  N   UNL     1       0.002  -0.004   0.002  0.00  0.00    -0.284 N 
ATOM      8  H   UNL     1      -0.768  -0.594   0.006  0.00  0.00    +0.151 HD
ENDROOT
BRANCH   1  11
ATOM      9  C   UNL     1      -0.733   1.997  -3.735  0.00  0.00    -0.078 C 
ATOM     10  C   UNL     1       0.010   1.509  -2.490  0.00  0.00    -0.013 C 
ATOM     11  C   UNL     1      -0.721   2.005  -1.239  0.00  0.00    +0.018 C 
ATOM     12  C   UNL     1      -2.167   1.501  -1.267  0.00  0.00    -0.013 C 
ATOM     13  C   UNL     1      -2.846   1.989  -2.549  0.00  0.00    -0.078 C 
ATOM     14  N   UNL     1      -2.109   1.458  -3.716  0.00  0.00    +0.382 N 
ATOM     15  H   UNL     1      -2.065   0.434  -3.644  0.00  0.00    -0.081 HD
BRANCH  14  16
ATOM     16  C   UNL     1      -2.812   1.821  -4.964  0.00  0.00    -0.048 C 
BRANCH  16  19
ATOM     17  C   UNL     1      -6.534   0.926  -4.660  0.00  0.00    +0.035 C 
ATOM     18  C   UNL     1      -5.222   1.666  -4.608  0.00  0.00    -0.033 C 
ATOM     19  C   UNL     1      -4.123   1.081  -5.016  0.00  0.00    -0.093 C 
ATOM     20  C   UNL     1      -4.171  -0.333  -5.536  0.00  0.00    +0.037 C 
ENDBRANCH  16  19
ENDBRANCH  14  16
ENDBRANCH   1  11
BRANCH   4  21
ATOM     21  C   UNL     1       3.587   0.574  -0.030  0.00  0.00    +0.116 C 
BRANCH  21  22
ATOM     22  C   UNL     1       4.081   0.545  -1.478  0.00  0.00    +0.001 C 
BRANCH  22  23
ATOM     23  C   UNL     1       5.607   0.435  -1.494  0.00  0.00    -0.078 C 
BRANCH  23  26
ATOM     24  C   UNL     1       5.816   1.686  -3.556  0.00  0.00    -0.097 C 
ATOM     25  C   UNL     1       7.508   0.066  -2.946  0.00  0.00    -0.097 C 
ATOM     26  N   UNL     1       6.066   0.386  -2.897  0.00  0.00    +0.376 N 
ATOM     27  H   UNL     1       5.545  -0.345  -3.394  0.00  0.00    -0.083 HD
ENDBRANCH  23  26
ENDBRANCH  22  23
ENDBRANCH  21  22
ENDBRANCH   4  21
BRANCH   1  28
ATOM     28  C   UNL     1      -0.697   1.991   1.278  0.00  0.00    +0.070 C 
BRANCH  28  29
ATOM     29  C   UNL     1       0.048   1.492   2.489  0.00  0.00    -0.045 A 
ATOM     30  C   UNL     1      -0.311   0.293   3.075  0.00  0.00    +0.006 A 
ATOM     31  C   UNL     1       0.376  -0.169   4.182  0.00  0.00    +0.038 A 
ATOM     32  C   UNL     1       1.416   0.577   4.712  0.00  0.00    +0.123 A 
ATOM     33  C   UNL     1       1.770   1.781   4.127  0.00  0.00    +0.038 A 
ATOM     34  C   UNL     1       1.087   2.237   3.016  0.00  0.00    +0.006 A 
ATOM     35  F   UNL     1       2.083   0.130   5.798  0.00  0.00    -0.205 F 
ENDBRANCH  28  29
ENDBRANCH   1  28
TORSDOF 9
