REMARK  Name = ZINC12664765
REMARK  9 active torsions:
REMARK  status: ('A' for Active; 'I' for Inactive)
REMARK    1  A    between atoms: C_1  and  C_2
REMARK    2  A    between atoms: C_2  and  O_3
REMARK    3  A    between atoms: O_3  and  C_4
REMARK    4  A    between atoms: C_4  and  C_6
REMARK    5  A    between atoms: C_6  and  N_7
REMARK    6  A    between atoms: N_16  and  C_17
REMARK    7  A    between atoms: C_17  and  C_19
REMARK    8  A    between atoms: N_24  and  S_26
REMARK    9  A    between atoms: S_26  and  C_29
REMARK                            x       y       z     vdW  Elec       q    Type
REMARK                         _______ _______ _______ _____ _____    ______ ____
ROOT
ATOM      1  N   UNL     1       4.577  10.083  -5.811  0.00  0.00    -0.310 N 
ATOM      2  C   UNL     1       3.963  11.092  -6.531  0.00  0.00    +0.058 A 
ATOM      3  C   UNL     1       4.563  12.091  -7.315  0.00  0.00    +0.028 A 
ATOM      4  C   UNL     1       3.797  13.029  -7.965  0.00  0.00    +0.022 A 
ATOM      5  C   UNL     1       2.414  13.019  -7.868  0.00  0.00    +0.042 A 
ATOM      6  C   UNL     1       1.797  12.046  -7.101  0.00  0.00    +0.037 A 
ATOM      7  C   UNL     1       2.563  11.107  -6.451  0.00  0.00    +0.040 A 
ATOM      8  S   UNL     1       2.201   9.726  -5.396  0.00  0.00    -0.052 S 
ATOM      9  C   UNL     1       3.826   9.196  -5.107  0.00  0.00    +0.167 A 
ATOM     10  N   UNL     1       4.240   8.169  -4.367  0.00  0.00    -0.156 NA
ATOM     11 CL   UNL     1       1.467  14.214  -8.699  0.00  0.00    -0.084 Cl
ENDROOT
BRANCH  10  12
ATOM     12  C   UNL     1       3.355   7.403  -3.739  0.00  0.00    +0.243 C 
ATOM     13  O   UNL     1       2.166   7.641  -3.839  0.00  0.00    -0.273 OA
BRANCH  12  14
ATOM     14  C   UNL     1       3.823   6.241  -2.902  0.00  0.00    +0.093 C 
ATOM     15  C   UNL     1       4.598   5.257  -3.781  0.00  0.00    +0.015 C 
ATOM     16  C   UNL     1       5.103   4.093  -2.925  0.00  0.00    +0.018 C 
ATOM     17  C   UNL     1       3.910   3.359  -2.314  0.00  0.00    +0.109 C 
ATOM     18  N   UNL     1       3.075   4.326  -1.587  0.00  0.00    -0.176 NA
ATOM     19  C   UNL     1       2.612   5.529  -2.292  0.00  0.00    +0.122 C 
BRANCH  18  20
ATOM     20  S   UNL     1       2.670   4.067  -0.003  0.00  0.00    +0.061 S 
ATOM     21  O   UNL     1       2.387   5.342   0.557  0.00  0.00    -0.153 OA
ATOM     22  O   UNL     1       3.662   3.202   0.534  0.00  0.00    -0.153 OA
BRANCH  20  23
ATOM     23  C   UNL     1       1.156   3.165   0.008  0.00  0.00    +0.105 A 
ATOM     24  C   UNL     1       1.175   1.783   0.000  0.00  0.00    +0.028 A 
ATOM     25  C   UNL     1      -0.013   1.076   0.008  0.00  0.00    +0.002 A 
ATOM     26  C   UNL     1      -1.219   1.751   0.017  0.00  0.00    +0.000 A 
ATOM     27  C   UNL     1      -1.238   3.133   0.030  0.00  0.00    +0.002 A 
ATOM     28  C   UNL     1      -0.050   3.840   0.022  0.00  0.00    +0.028 A 
ENDBRANCH  20  23
ENDBRANCH  18  20
ENDBRANCH  12  14
ENDBRANCH  10  12
BRANCH   1  29
ATOM     29  C   UNL     1       6.037   9.969  -5.811  0.00  0.00    +0.244 C 
BRANCH  29  30
ATOM     30  C   UNL     1       6.471   9.083  -6.950  0.00  0.00    +0.327 C 
ATOM     31  O   UNL     1       5.645   8.597  -7.687  0.00  0.00    -0.249 OA
BRANCH  30  32
ATOM     32  O   UNL     1       7.775   8.833  -7.147  0.00  0.00    -0.464 OA
BRANCH  32  34
ATOM     33  C   UNL     1       9.640   7.804  -8.329  0.00  0.00    +0.048 C 
ATOM     34  C   UNL     1       8.120   7.971  -8.264  0.00  0.00    +0.229 C 
ENDBRANCH  32  34
ENDBRANCH  30  32
ENDBRANCH  29  30
ENDBRANCH   1  29
TORSDOF 8
