REMARK  Name = ZINC39899044
REMARK  9 active torsions:
REMARK  status: ('A' for Active; 'I' for Inactive)
REMARK    1  A    between atoms: C_1  and  C_2
REMARK    2  A    between atoms: C_2  and  C_3
REMARK    3  A    between atoms: C_3  and  O_4
REMARK    4  A    between atoms: O_4  and  C_5
REMARK    5  A    between atoms: C_8  and  C_11
REMARK    6  A    between atoms: C_14  and  C_30
REMARK    7  A    between atoms: N_21  and  C_22
REMARK    8  A    between atoms: C_22  and  C_23
REMARK    9  A    between atoms: C_35  and  O_36
REMARK                            x       y       z     vdW  Elec       q    Type
REMARK                         _______ _______ _______ _____ _____    ______ ____
ROOT
ATOM      1  C   UNL     1       3.154  -4.490  -5.146  0.00  0.00    +0.142 C 
ATOM      2  C   UNL     1       4.623  -4.807  -5.086  0.00  0.00    +0.035 A 
ATOM      3  C   UNL     1       5.927  -4.329  -4.914  0.00  0.00    +0.102 A 
ATOM      4  N   UNL     1       6.742  -5.361  -5.014  0.00  0.00    -0.173 NA
ATOM      5  N   UNL     1       6.082  -6.443  -5.231  0.00  0.00    -0.272 N 
ATOM      6  H   UNL     1       6.475  -7.323  -5.339  0.00  0.00    +0.189 HD
ATOM      7  C   UNL     1       4.745  -6.168  -5.288  0.00  0.00    +0.126 A 
ATOM      8  C   UNL     1       3.404  -6.734  -5.476  0.00  0.00    +0.266 C 
ATOM      9  O   UNL     1       3.168  -7.910  -5.677  0.00  0.00    -0.268 OA
ATOM     10  N   UNL     1       2.471  -5.766  -5.396  0.00  0.00    -0.281 N 
ENDROOT
BRANCH   3  11
ATOM     11  C   UNL     1       6.321  -2.920  -4.667  0.00  0.00    +0.045 A 
ATOM     12  C   UNL     1       5.364  -1.909  -4.708  0.00  0.00    +0.033 A 
ATOM     13  C   UNL     1       5.736  -0.599  -4.477  0.00  0.00    +0.042 A 
ATOM     14  C   UNL     1       7.057  -0.287  -4.204  0.00  0.00    +0.023 A 
ATOM     15  C   UNL     1       8.013  -1.284  -4.162  0.00  0.00    +0.047 A 
ATOM     16  C   UNL     1       7.652  -2.603  -4.385  0.00  0.00    +0.126 A 
ATOM     17 CL   UNL     1       4.542   0.661  -4.529  0.00  0.00    -0.084 Cl
BRANCH  16  18
ATOM     18  O   UNL     1       8.591  -3.584  -4.338  0.00  0.00    -0.506 OA
ATOM     19  H   UNL     1       9.020  -3.760  -5.186  0.00  0.00    +0.292 HD
ENDBRANCH  16  18
ENDBRANCH   3  11
BRANCH   1  23
ATOM     20  C   UNL     1       1.854  -2.829  -1.429  0.00  0.00    +0.121 A 
ATOM     21  C   UNL     1       2.236  -4.161  -1.500  0.00  0.00    +0.046 A 
ATOM     22  C   UNL     1       2.655  -4.696  -2.703  0.00  0.00    +0.009 A 
ATOM     23  C   UNL     1       2.696  -3.904  -3.836  0.00  0.00    -0.022 A 
ATOM     24  C   UNL     1       2.317  -2.576  -3.768  0.00  0.00    +0.009 A 
ATOM     25  C   UNL     1       1.890  -2.039  -2.569  0.00  0.00    +0.046 A 
BRANCH  20  26
ATOM     26  O   UNL     1       1.441  -2.301  -0.247  0.00  0.00    -0.492 OA
BRANCH  26  27
ATOM     27  C   UNL     1       1.429  -3.174   0.884  0.00  0.00    +0.229 C 
BRANCH  27  29
ATOM     28  C   UNL     1       0.926  -3.341   3.326  0.00  0.00    +0.007 C 
ATOM     29  C   UNL     1       0.938  -2.407   2.114  0.00  0.00    +0.038 C 
ENDBRANCH  27  29
ENDBRANCH  26  27
ENDBRANCH  20  26
ENDBRANCH   1  23
BRANCH  10  30
ATOM     30  C   UNL     1       1.025  -5.952  -5.534  0.00  0.00    +0.144 C 
BRANCH  30  31
ATOM     31  C   UNL     1       0.634  -5.798  -6.981  0.00  0.00    -0.030 A 
ATOM     32  C   UNL     1       0.292  -4.553  -7.475  0.00  0.00    +0.008 A 
ATOM     33  C   UNL     1      -0.066  -4.410  -8.802  0.00  0.00    +0.038 A 
ATOM     34  C   UNL     1      -0.083  -5.514  -9.637  0.00  0.00    +0.123 A 
ATOM     35  C   UNL     1       0.259  -6.761  -9.141  0.00  0.00    +0.038 A 
ATOM     36  C   UNL     1       0.622  -6.900  -7.815  0.00  0.00    +0.008 A 
ATOM     37  F   UNL     1      -0.434  -5.376 -10.934  0.00  0.00    -0.205 F 
ENDBRANCH  30  31
ENDBRANCH  10  30
TORSDOF 8
