REMARK  Name = ZINC14045135
REMARK  7 active torsions:
REMARK  status: ('A' for Active; 'I' for Inactive)
REMARK    1  A    between atoms: C_4  and  C_7
REMARK    2  A    between atoms: C_12  and  O_13
REMARK    3  A    between atoms: O_13  and  C_14
REMARK    4  A    between atoms: C_14  and  C_15
REMARK    5  A    between atoms: N_17  and  N_18
REMARK    6  A    between atoms: C_19  and  C_21
REMARK    7  A    between atoms: N_24  and  C_26
REMARK                            x       y       z     vdW  Elec       q    Type
REMARK                         _______ _______ _______ _____ _____    ______ ____
ROOT
ATOM      1  N   UNL     1       3.241  -1.945  -0.038  0.00  0.00    -0.229 N 
ATOM      2  C   UNL     1       1.908  -1.745  -0.024  0.00  0.00    +0.281 C 
ATOM      3  O   UNL     1       1.151  -2.696  -0.022  0.00  0.00    -0.267 OA
ATOM      4  H   UNL     1       3.845  -1.186  -0.040  0.00  0.00    +0.173 HD
ENDROOT
BRANCH   2   5
ATOM      5  C   UNL     1       1.368  -0.371  -0.013  0.00  0.00    +0.152 A 
ATOM      6  C   UNL     1       0.002  -0.004   0.002  0.00  0.00    +0.006 A 
ATOM      7  C   UNL     1      -0.016   1.346   0.009  0.00  0.00    +0.049 A 
ATOM      8  N   UNL     1       1.279   1.762  -0.001  0.00  0.00    -0.236 N 
ATOM      9  N   UNL     1       2.067   0.747  -0.013  0.00  0.00    -0.161 NA
ATOM     10  C   UNL     1      -1.442   1.848   0.031  0.00  0.00    +0.056 C 
ATOM     11  C   UNL     1      -2.299   0.637  -0.405  0.00  0.00    +0.011 C 
ATOM     12  C   UNL     1      -1.404  -0.552   0.011  0.00  0.00    +0.040 C 
BRANCH   8  13
ATOM     13  C   UNL     1       1.693   3.101   0.002  0.00  0.00    +0.066 A 
ATOM     14  C   UNL     1       0.955   4.058  -0.681  0.00  0.00    +0.030 A 
ATOM     15  C   UNL     1       1.362   5.378  -0.673  0.00  0.00    +0.040 A 
ATOM     16  C   UNL     1       2.511   5.745   0.006  0.00  0.00    +0.124 A 
ATOM     17  C   UNL     1       3.252   4.790   0.684  0.00  0.00    +0.040 A 
ATOM     18  C   UNL     1       2.846   3.470   0.682  0.00  0.00    +0.030 A 
ATOM     19  F   UNL     1       2.911   7.035   0.008  0.00  0.00    -0.205 F 
ENDBRANCH   8  13
ENDBRANCH   2   5
BRANCH   1  22
ATOM     20  C   UNL     1       5.086  -3.449  -0.062  0.00  0.00    +0.267 C 
ATOM     21  O   UNL     1       5.842  -2.500  -0.065  0.00  0.00    -0.271 OA
ATOM     22  N   UNL     1       3.753  -3.249  -0.049  0.00  0.00    -0.231 N 
ATOM     23  H   UNL     1       3.149  -4.008  -0.047  0.00  0.00    +0.173 HD
BRANCH  20  24
ATOM     24  C   UNL     1       5.637  -4.851  -0.074  0.00  0.00    +0.326 C 
BRANCH  24  25
ATOM     25  O   UNL     1       7.065  -4.802  -0.088  0.00  0.00    -0.482 OA
BRANCH  25  31
ATOM     26  C   UNL     1       9.121  -6.018  -0.119  0.00  0.00    +0.024 A 
ATOM     27  C   UNL     1       9.787  -7.241  -0.126  0.00  0.00    +0.012 A 
ATOM     28  C   UNL     1       9.066  -8.418  -0.125  0.00  0.00    +0.001 A 
ATOM     29  C   UNL     1       7.683  -8.387  -0.112  0.00  0.00    +0.004 A 
ATOM     30  C   UNL     1       7.012  -7.179  -0.099  0.00  0.00    +0.046 A 
ATOM     31  C   UNL     1       7.724  -5.990  -0.100  0.00  0.00    +0.129 A 
BRANCH  26  35
ATOM     32  C   UNL     1      11.329  -2.384  -0.138  0.00  0.00    +0.000 A 
ATOM     33  C   UNL     1      11.642  -3.375   0.774  0.00  0.00    +0.001 A 
ATOM     34  C   UNL     1      10.929  -4.557   0.784  0.00  0.00    +0.008 A 
ATOM     35  C   UNL     1       9.891  -4.750  -0.126  0.00  0.00    -0.014 A 
ATOM     36  C   UNL     1       9.583  -3.749  -1.046  0.00  0.00    +0.008 A 
ATOM     37  C   UNL     1      10.299  -2.569  -1.043  0.00  0.00    +0.001 A 
ENDBRANCH  26  35
ENDBRANCH  25  31
ENDBRANCH  24  25
ENDBRANCH  20  24
ENDBRANCH   1  22
TORSDOF 7
