REMARK  Name = ZINC08837317
REMARK  9 active torsions:
REMARK  status: ('A' for Active; 'I' for Inactive)
REMARK    1  A    between atoms: C_1  and  C_2
REMARK    2  A    between atoms: C_2  and  C_3
REMARK    3  A    between atoms: C_15  and  C_29
REMARK    4  A    between atoms: C_20  and  C_22
REMARK    5  A    between atoms: C_32  and  N_35
REMARK    6  A    between atoms: N_35  and  C_36
REMARK    7  A    between atoms: N_35  and  C_38
REMARK    8  A    between atoms: C_36  and  C_37
REMARK    9  A    between atoms: C_38  and  C_39
REMARK                            x       y       z     vdW  Elec       q    Type
REMARK                         _______ _______ _______ _____ _____    ______ ____
ROOT
ATOM      1  C   UNL     1       0.807  -0.444  -2.239  0.00  0.00    +0.220 C 
ATOM      2  O   UNL     1       1.307   0.455  -2.880  0.00  0.00    -0.275 OA
ATOM      3  N   UNL     1       0.995  -1.725  -2.613  0.00  0.00    -0.258 N 
ATOM      4  C   UNL     1       0.410  -2.752  -1.870  0.00  0.00    +0.058 A 
ATOM      5  C   UNL     1      -0.966  -2.895  -1.791  0.00  0.00    +0.025 A 
ATOM      6  C   UNL     1      -1.499  -3.956  -1.080  0.00  0.00    +0.002 A 
ATOM      7  C   UNL     1      -0.669  -4.869  -0.456  0.00  0.00    +0.002 A 
ATOM      8  C   UNL     1       0.706  -4.719  -0.520  0.00  0.00    +0.025 A 
ATOM      9  C   UNL     1       1.240  -3.646  -1.212  0.00  0.00    +0.053 A 
ATOM     10  N   UNL     1       2.602  -3.372  -1.220  0.00  0.00    -0.316 N 
ATOM     11  C   UNL     1       3.388  -3.372  -2.328  0.00  0.00    +0.017 C 
ATOM     12  C   UNL     1       4.712  -4.101  -2.170  0.00  0.00    +0.059 C 
ATOM     13  C   UNL     1       5.128  -4.719  -3.503  0.00  0.00    +0.032 C 
ATOM     14  C   UNL     1       5.265  -3.582  -4.522  0.00  0.00    +0.088 C 
ATOM     15  C   UNL     1       3.964  -2.839  -4.587  0.00  0.00    +0.163 C 
ATOM     16  C   UNL     1       3.072  -2.776  -3.490  0.00  0.00    +0.037 C 
ATOM     17  C   UNL     1       1.796  -2.015  -3.783  0.00  0.00    +0.147 C 
ATOM     18  O   UNL     1       3.665  -2.271  -5.619  0.00  0.00    -0.292 OA
ATOM     19  H   UNL     1       3.023  -3.165  -0.372  0.00  0.00    +0.152 HD
ENDROOT
BRANCH  17  20
ATOM     20  C   UNL     1       0.963  -2.825  -4.743  0.00  0.00    -0.022 A 
ATOM     21  C   UNL     1       0.722  -2.350  -6.019  0.00  0.00    +0.006 A 
ATOM     22  C   UNL     1      -0.043  -3.093  -6.900  0.00  0.00    +0.000 A 
ATOM     23  C   UNL     1      -0.565  -4.311  -6.505  0.00  0.00    +0.000 A 
ATOM     24  C   UNL     1      -0.323  -4.786  -5.229  0.00  0.00    +0.000 A 
ATOM     25  C   UNL     1       0.445  -4.045  -4.350  0.00  0.00    +0.006 A 
ENDBRANCH  17  20
BRANCH  13  26
ATOM     26  C   UNL     1       6.448  -5.429  -3.348  0.00  0.00    -0.043 A 
ATOM     27  C   UNL     1       7.567  -4.726  -2.942  0.00  0.00    +0.006 A 
ATOM     28  C   UNL     1       8.778  -5.377  -2.799  0.00  0.00    +0.022 A 
ATOM     29  C   UNL     1       8.870  -6.731  -3.061  0.00  0.00    +0.013 A 
ATOM     30  C   UNL     1       7.751  -7.434  -3.465  0.00  0.00    +0.022 A 
ATOM     31  C   UNL     1       6.539  -6.784  -3.604  0.00  0.00    +0.006 A 
BRANCH  29  32
ATOM     32  N   UNL     1      10.095  -7.389  -2.917  0.00  0.00    -0.394 NA
ATOM     33  H   UNL     1      10.798  -6.730  -2.618  0.00  0.00    +0.126 HD
BRANCH  32  34
ATOM     34  C   UNL     1       9.964  -8.454  -1.914  0.00  0.00    +0.081 C 
ATOM     35  C   UNL     1       9.695  -7.832  -0.542  0.00  0.00    +0.022 C 
ENDBRANCH  32  34
BRANCH  32  36
ATOM     36  C   UNL     1      10.490  -7.975  -4.205  0.00  0.00    +0.081 C 
ATOM     37  C   UNL     1      10.748  -6.857  -5.217  0.00  0.00    +0.022 C 
ENDBRANCH  32  36
ENDBRANCH  29  32
ENDBRANCH  13  26
BRANCH   1  39
ATOM     38  C   UNL     1      -0.080   1.386  -0.820  0.00  0.00    +0.013 C 
ATOM     39  C   UNL     1      -0.025  -0.129  -1.022  0.00  0.00    +0.093 C 
ENDBRANCH   1  39
TORSDOF 6
