REMARK  Name = ZINC11816005
REMARK  8 active torsions:
REMARK  status: ('A' for Active; 'I' for Inactive)
REMARK    1  A    between atoms: C_1  and  C_2
REMARK    2  A    between atoms: C_2  and  C_3
REMARK    3  A    between atoms: C_3  and  C_22
REMARK    4  A    between atoms: N_6  and  C_10
REMARK    5  A    between atoms: C_10  and  C_11
REMARK    6  A    between atoms: C_27  and  C_28
REMARK    7  A    between atoms: C_27  and  N_65
REMARK    8  A    between atoms: C_33  and  O_34
REMARK                            x       y       z     vdW  Elec       q    Type
REMARK                         _______ _______ _______ _____ _____    ______ ____
ROOT
ATOM      1  C   UNL     1      -1.204   1.830   0.017  0.00  0.00    +0.115 C 
ATOM      2  C   UNL     1      -0.628   3.232   0.024  0.00  0.00    +0.247 C 
ATOM      3  O   UNL     1      -1.244   4.276   0.034  0.00  0.00    -0.273 OA
ATOM      4  N   UNL     1       0.710   3.076   0.011  0.00  0.00    -0.221 N 
ATOM      5  C   UNL     1       1.057   1.784   0.002  0.00  0.00    +0.309 C 
ATOM      6  O   UNL     1       2.207   1.393  -0.011  0.00  0.00    -0.252 OA
ATOM      7  N   UNL     1      -0.011   0.966   0.007  0.00  0.00    -0.285 N 
ATOM      8  H   UNL     1       0.002  -0.004   0.002  0.00  0.00    +0.151 HD
ENDROOT
BRANCH   1   9
ATOM      9  C   UNL     1      -2.047   1.598  -1.239  0.00  0.00    +0.018 C 
ATOM     10  C   UNL     1      -2.503   0.137  -1.286  0.00  0.00    -0.013 C 
ATOM     11  C   UNL     1      -3.294  -0.104  -2.574  0.00  0.00    -0.078 C 
ATOM     12  C   UNL     1      -2.035   1.610  -3.736  0.00  0.00    -0.078 C 
ATOM     13  C   UNL     1      -1.207   1.903  -2.482  0.00  0.00    -0.013 C 
ATOM     14  N   UNL     1      -2.422   0.183  -3.733  0.00  0.00    +0.382 N 
ATOM     15  H   UNL     1      -1.575  -0.392  -3.663  0.00  0.00    -0.081 HD
BRANCH  14  16
ATOM     16  C   UNL     1      -3.126  -0.150  -4.989  0.00  0.00    -0.039 C 
BRANCH  16  17
ATOM     17  C   UNL     1      -3.313  -1.644  -5.057  0.00  0.00    -0.022 A 
ATOM     18  C   UNL     1      -2.448  -2.416  -5.809  0.00  0.00    +0.005 A 
ATOM     19  C   UNL     1      -2.619  -3.786  -5.872  0.00  0.00    +0.000 A 
ATOM     20  C   UNL     1      -3.656  -4.388  -5.183  0.00  0.00    +0.004 A 
ATOM     21  C   UNL     1      -4.524  -3.621  -4.430  0.00  0.00    +0.045 A 
ATOM     22  C   UNL     1      -4.351  -2.246  -4.361  0.00  0.00    +0.118 A 
BRANCH  22  23
ATOM     23  O   UNL     1      -5.200  -1.490  -3.617  0.00  0.00    -0.507 OA
ATOM     24  H   UNL     1      -5.973  -1.173  -4.103  0.00  0.00    +0.292 HD
ENDBRANCH  22  23
ENDBRANCH  16  17
ENDBRANCH  14  16
ENDBRANCH   1   9
BRANCH   1  26
ATOM     25  C   UNL     1      -1.184   1.878   2.515  0.00  0.00    +0.006 C 
ATOM     26  C   UNL     1      -2.036   1.585   1.278  0.00  0.00    +0.032 C 
ENDBRANCH   1  26
BRANCH   4  27
ATOM     27  C   UNL     1       1.668   4.185   0.008  0.00  0.00    +0.166 C 
BRANCH  27  28
ATOM     28  C   UNL     1       1.988   4.579  -1.435  0.00  0.00    +0.229 C 
ATOM     29  C   UNL     1       3.014   5.720  -1.444  0.00  0.00    +0.275 C 
ATOM     30  O   UNL     1       3.301   6.054  -2.807  0.00  0.00    -0.485 OA
ATOM     31  C   UNL     1       3.540   5.015  -3.654  0.00  0.00    +0.162 A 
ATOM     32  C   UNL     1       4.162   5.257  -4.869  0.00  0.00    +0.049 A 
ATOM     33  C   UNL     1       4.405   4.214  -5.743  0.00  0.00    +0.004 A 
ATOM     34  C   UNL     1       4.028   2.927  -5.407  0.00  0.00    +0.004 A 
ATOM     35  C   UNL     1       3.409   2.679  -4.197  0.00  0.00    +0.049 A 
ATOM     36  C   UNL     1       3.163   3.721  -3.315  0.00  0.00    +0.163 A 
ATOM     37  O   UNL     1       2.555   3.461  -2.126  0.00  0.00    -0.480 OA
ENDBRANCH  27  28
ENDBRANCH   4  27
TORSDOF 7
