REMARK  Name = ZINC08789627
REMARK  6 active torsions:
REMARK  status: ('A' for Active; 'I' for Inactive)
REMARK    1  A    between atoms: C_1  and  C_2
REMARK    2  A    between atoms: C_4  and  C_39
REMARK    3  A    between atoms: C_9  and  C_26
REMARK    4  A    between atoms: C_26  and  C_28
REMARK    5  A    between atoms: C_31  and  O_34
REMARK    6  A    between atoms: O_34  and  C_35
REMARK                            x       y       z     vdW  Elec       q    Type
REMARK                         _______ _______ _______ _____ _____    ______ ____
ROOT
ATOM      1  C   UNL     1      -5.352   1.296   3.422  0.00  0.00    +0.044 C 
ATOM      2  C   UNL     1      -4.494   0.061   3.325  0.00  0.00    -0.050 A 
ATOM      3  C   UNL     1      -4.681  -0.984   4.212  0.00  0.00    +0.008 A 
ATOM      4  C   UNL     1      -3.882  -2.106   4.139  0.00  0.00    -0.029 A 
ATOM      5  C   UNL     1      -2.890  -2.199   3.165  0.00  0.00    +0.039 A 
ATOM      6  C   UNL     1      -2.735  -1.161   2.251  0.00  0.00    -0.027 A 
ATOM      7  C   UNL     1      -3.512  -0.028   2.355  0.00  0.00    +0.008 A 
ATOM      8  C   UNL     1      -1.625  -1.579   1.321  0.00  0.00    +0.052 C 
ATOM      9  C   UNL     1      -0.513  -0.522   1.329  0.00  0.00    +0.080 C 
ATOM     10  C   UNL     1      -0.006  -0.465  -0.120  0.00  0.00    +0.071 C 
ATOM     11  C   UNL     1       1.305  -1.191  -0.280  0.00  0.00    -0.012 A 
ATOM     12  C   UNL     1       1.667  -2.519  -0.267  0.00  0.00    +0.006 A 
ATOM     13  C   UNL     1       2.998  -2.881  -0.397  0.00  0.00    +0.000 A 
ATOM     14  C   UNL     1       3.962  -1.905  -0.570  0.00  0.00    +0.002 A 
ATOM     15  C   UNL     1       3.598  -0.577  -0.647  0.00  0.00    +0.023 A 
ATOM     16  C   UNL     1       2.260  -0.209  -0.526  0.00  0.00    +0.038 A 
ATOM     17  N   UNL     1       1.643   1.036  -0.654  0.00  0.00    -0.285 N 
ATOM     18  C   UNL     1       0.306   0.958  -0.494  0.00  0.00    +0.227 C 
ATOM     19  O   UNL     1      -0.464   1.887  -0.608  0.00  0.00    -0.275 OA
ATOM     20  C   UNL     1      -1.089  -1.108  -0.971  0.00  0.00    -0.046 C 
ATOM     21  C   UNL     1      -3.401  -1.235  -0.349  0.00  0.00    -0.076 C 
ATOM     22  C   UNL     1      -3.307  -0.736  -1.820  0.00  0.00    -0.020 C 
ATOM     23  C   UNL     1      -1.891  -0.084  -1.795  0.00  0.00    -0.016 C 
ATOM     24  C   UNL     1      -1.145  -2.895   1.884  0.00  0.00    +0.212 C 
ATOM     25  O   UNL     1      -0.241  -3.589   1.470  0.00  0.00    -0.277 OA
ATOM     26  N   UNL     1      -1.937  -3.190   2.933  0.00  0.00    -0.286 N 
ATOM     27  C   UNL     1      -4.088  -3.234   5.117  0.00  0.00    +0.045 C 
ATOM     28  H   UNL     1       2.118   1.862  -0.835  0.00  0.00    +0.155 HD
ATOM     29  H   UNL     1      -1.848  -4.000   3.458  0.00  0.00    +0.155 HD
ATOM     30  N   UNL     1      -2.039  -1.780  -0.089  0.00  0.00    +0.395 N 
ATOM     31  H   UNL     1      -2.039  -2.787  -0.292  0.00  0.00    -0.079 HD
ENDROOT
BRANCH   9  32
ATOM     32  C   UNL     1       0.586  -0.867   2.294  0.00  0.00    +0.167 C 
ATOM     33  O   UNL     1       1.351  -1.774   2.042  0.00  0.00    -0.292 OA
BRANCH  32  34
ATOM     34  C   UNL     1       0.733  -0.107   3.542  0.00  0.00    +0.018 A 
ATOM     35  C   UNL     1      -0.220   0.857   3.894  0.00  0.00    +0.015 A 
ATOM     36  C   UNL     1      -0.081   1.561   5.063  0.00  0.00    +0.046 A 
ATOM     37  C   UNL     1       1.010   1.326   5.893  0.00  0.00    +0.120 A 
ATOM     38  C   UNL     1       1.962   0.373   5.545  0.00  0.00    +0.046 A 
ATOM     39  C   UNL     1       1.829  -0.340   4.382  0.00  0.00    +0.015 A 
BRANCH  37  40
ATOM     40  O   UNL     1       1.146   2.028   7.045  0.00  0.00    -0.495 OA
ATOM     41  C   UNL     1       0.133   2.991   7.342  0.00  0.00    +0.277 C 
ENDBRANCH  37  40
ENDBRANCH  32  34
ENDBRANCH   9  32
TORSDOF 3
