REMARK  Name = ZINC09237249
REMARK  7 active torsions:
REMARK  status: ('A' for Active; 'I' for Inactive)
REMARK    1  A    between atoms: C_1  and  C_2
REMARK    2  A    between atoms: C_5  and  C_8
REMARK    3  A    between atoms: C_10  and  C_20
REMARK    4  A    between atoms: C_16  and  C_19
REMARK    5  A    between atoms: N_22  and  C_23
REMARK    6  A    between atoms: C_26  and  C_30
REMARK    7  A    between atoms: C_28  and  C_29
REMARK                            x       y       z     vdW  Elec       q    Type
REMARK                         _______ _______ _______ _____ _____    ______ ____
ROOT
ATOM      1  C   UNL     1       3.099   3.135  -0.492  0.00  0.00    +0.140 C 
ATOM      2  C   UNL     1       4.081   2.301   0.341  0.00  0.00    +0.166 C 
ATOM      3  S   UNL     1       3.815   0.550  -0.073  0.00  0.00    -0.069 S 
ATOM      4  C   UNL     1       2.050   0.558  -0.039  0.00  0.00    +0.209 A 
ATOM      5  N   UNL     1       1.240  -0.464  -0.036  0.00  0.00    -0.121 NA
ATOM      6  N   UNL     1       0.021  -0.045  -0.017  0.00  0.00    -0.132 NA
ATOM      7  C   UNL     1      -0.005   1.259  -0.005  0.00  0.00    +0.148 A 
ATOM      8  N   UNL     1       1.290   1.693  -0.011  0.00  0.00    -0.225 N 
ATOM      9  N   UNL     1       1.735   2.975   0.014  0.00  0.00    -0.272 N 
ATOM     10  C   UNL     1      -1.237   2.127   0.008  0.00  0.00    +0.090 C 
ATOM     11  H   UNL     1       1.643   3.371   0.938  0.00  0.00    +0.167 HD
ENDROOT
BRANCH   1  16
ATOM     12  C   UNL     1       4.591   8.710  -0.187  0.00  0.00    +0.044 C 
ATOM     13  C   UNL     1       4.202   7.256  -0.266  0.00  0.00    -0.050 A 
ATOM     14  C   UNL     1       4.553   6.506  -1.373  0.00  0.00    +0.004 A 
ATOM     15  C   UNL     1       4.197   5.172  -1.446  0.00  0.00    +0.006 A 
ATOM     16  C   UNL     1       3.488   4.589  -0.412  0.00  0.00    -0.024 A 
ATOM     17  C   UNL     1       3.132   5.340   0.692  0.00  0.00    +0.006 A 
ATOM     18  C   UNL     1       3.494   6.672   0.768  0.00  0.00    +0.004 A 
ENDBRANCH   1  16
BRANCH   2  19
ATOM     19  C   UNL     1       5.496   2.695   0.006  0.00  0.00    +0.233 C 
ATOM     20  O   UNL     1       5.761   3.128  -1.096  0.00  0.00    -0.274 OA
ATOM     21  N   UNL     1       6.468   2.565   0.930  0.00  0.00    -0.284 N 
ATOM     22  H   UNL     1       6.245   2.295   1.835  0.00  0.00    +0.155 HD
BRANCH  21  23
ATOM     23  C   UNL     1       7.800   2.821   0.586  0.00  0.00    +0.036 A 
ATOM     24  C   UNL     1       8.213   2.700  -0.735  0.00  0.00    +0.024 A 
ATOM     25  C   UNL     1       9.528   2.952  -1.072  0.00  0.00    +0.005 A 
ATOM     26  C   UNL     1      10.434   3.326  -0.096  0.00  0.00    -0.050 A 
ATOM     27  C   UNL     1      10.026   3.447   1.219  0.00  0.00    +0.008 A 
ATOM     28  C   UNL     1       8.711   3.202   1.562  0.00  0.00    -0.029 A 
ATOM     29  C   UNL     1       8.266   3.341   2.995  0.00  0.00    +0.045 C 
ATOM     30  C   UNL     1      11.868   3.601  -0.468  0.00  0.00    +0.044 C 
ENDBRANCH  21  23
ENDBRANCH   2  19
TORSDOF 3
