REMARK  Name = ZINC04180897
REMARK  7 active torsions:
REMARK  status: ('A' for Active; 'I' for Inactive)
REMARK    1  A    between atoms: C_1  and  C_2
REMARK    2  A    between atoms: C_2  and  C_32
REMARK    3  A    between atoms: C_6  and  C_23
REMARK    4  A    between atoms: C_8  and  C_21
REMARK    5  A    between atoms: C_9  and  N_20
REMARK    6  A    between atoms: N_10  and  C_11
REMARK    7  A    between atoms: C_14  and  N_17
REMARK                            x       y       z     vdW  Elec       q    Type
REMARK                         _______ _______ _______ _____ _____    ______ ____
ROOT
ATOM      1  C   UNL     1       0.127   3.395   3.132  0.00  0.00    +0.011 C 
ATOM      2  C   UNL     1      -0.738   3.673   1.901  0.00  0.00    -0.023 C 
ATOM      3  C   UNL     1       0.112   4.334   0.814  0.00  0.00    +0.058 C 
ATOM      4  C   UNL     1       1.226   3.402   0.406  0.00  0.00    +0.025 C 
ATOM      5  C   UNL     1       1.062   2.062   0.451  0.00  0.00    +0.025 C 
ATOM      6  C   UNL     1       2.168   1.132   0.019  0.00  0.00    +0.097 C 
ATOM      7  C   UNL     1       3.491   1.838  -0.007  0.00  0.00    +0.077 C 
ATOM      8  C   UNL     1       3.563   3.194  -0.026  0.00  0.00    +0.107 C 
ATOM      9  N   UNL     1       2.410   3.947  -0.016  0.00  0.00    -0.260 N 
ATOM     10  C   UNL     1      -0.143   1.494   0.897  0.00  0.00    +0.162 C 
ATOM     11  O   UNL     1      -0.261   0.285   0.916  0.00  0.00    -0.292 OA
ATOM     12  C   UNL     1      -1.293   2.354   1.346  0.00  0.00    +0.086 C 
ATOM     13  C   UNL     1      -1.894   4.600   2.284  0.00  0.00    +0.011 C 
ENDROOT
BRANCH   9  14
ATOM     14  C   UNL     1       2.448   5.280  -0.440  0.00  0.00    +0.040 A 
ATOM     15  C   UNL     1       2.168   5.598  -1.762  0.00  0.00    +0.026 A 
ATOM     16  C   UNL     1       2.201   6.915  -2.176  0.00  0.00    +0.034 A 
ATOM     17  C   UNL     1       2.523   7.916  -1.278  0.00  0.00    +0.126 A 
ATOM     18  C   UNL     1       2.808   7.603   0.038  0.00  0.00    +0.034 A 
ATOM     19  C   UNL     1       2.772   6.288   0.460  0.00  0.00    +0.026 A 
BRANCH  17  20
ATOM     20  N   UNL     1       2.564   9.326  -1.727  0.00  0.00    +0.056 N 
ATOM     21  O   UNL     1       2.849  10.209  -0.937  0.00  0.00    -0.126 OA
ATOM     22  O   UNL     1       2.314   9.604  -2.886  0.00  0.00    -0.126 OA
ENDBRANCH  17  20
ENDBRANCH   9  14
BRANCH   6  23
ATOM     23  C   UNL     1       1.861   0.607  -1.361  0.00  0.00    -0.035 A 
ATOM     24  C   UNL     1       1.719   1.486  -2.418  0.00  0.00    +0.004 A 
ATOM     25  C   UNL     1       1.442   1.004  -3.684  0.00  0.00    +0.000 A 
ATOM     26  C   UNL     1       1.299  -0.355  -3.890  0.00  0.00    +0.000 A 
ATOM     27  C   UNL     1       1.436  -1.233  -2.832  0.00  0.00    +0.000 A 
ATOM     28  C   UNL     1       1.717  -0.752  -1.567  0.00  0.00    +0.004 A 
ENDBRANCH   6  23
BRANCH   8  29
ATOM     29  N   UNL     1       4.788   3.816  -0.056  0.00  0.00    -0.345 N 
ATOM     30  H   UNL     1       4.844   4.782   0.018  0.00  0.00    +0.144 HD
ATOM     31  H   UNL     1       5.597   3.290  -0.152  0.00  0.00    +0.144 HD
ENDBRANCH   8  29
BRANCH   7  32
ATOM     32  C   UNL     1       4.699   1.069  -0.011  0.00  0.00    +0.099 C 
ATOM     33  N   UNL     1       5.658   0.460  -0.014  0.00  0.00    -0.191 NA
ENDBRANCH   7  32
TORSDOF 5
