REMARK  Name = ZINC16011464
REMARK  5 active torsions:
REMARK  status: ('A' for Active; 'I' for Inactive)
REMARK    1  A    between atoms: C_5  and  C_7
REMARK    2  A    between atoms: C_7  and  N_8
REMARK    3  A    between atoms: C_13  and  C_31
REMARK    4  A    between atoms: C_31  and  C_32
REMARK    5  A    between atoms: C_32  and  C_33
REMARK                            x       y       z     vdW  Elec       q    Type
REMARK                         _______ _______ _______ _____ _____    ______ ____
ROOT
ATOM      1  N   UNL     1       1.606  -2.677   1.306  0.00  0.00    -0.237 N 
ATOM      2  C   UNL     1       2.880  -2.805   1.694  0.00  0.00    +0.227 C 
ATOM      3  O   UNL     1       3.849  -2.542   1.016  0.00  0.00    -0.275 OA
ATOM      4  C   UNL     1       2.922  -3.329   3.112  0.00  0.00    +0.107 C 
ATOM      5  C   UNL     1       3.509  -4.757   3.111  0.00  0.00    +0.068 C 
ATOM      6  N   UNL     1       2.344  -5.648   2.868  0.00  0.00    -0.295 NA
ATOM      7  C   UNL     1       1.249  -5.029   3.637  0.00  0.00    +0.136 C 
ATOM      8  C   UNL     1       1.421  -3.498   3.477  0.00  0.00    +0.122 C 
ATOM      9  C   UNL     1       0.705  -3.028   2.230  0.00  0.00    +0.229 C 
ATOM     10  O   UNL     1      -0.498  -2.980   2.090  0.00  0.00    -0.275 OA
ATOM     11  C   UNL     1       1.292  -5.435   5.083  0.00  0.00    +0.005 A 
ATOM     12  C   UNL     1       2.237  -5.305   6.076  0.00  0.00    +0.027 A 
ATOM     13  C   UNL     1       1.980  -5.793   7.346  0.00  0.00    +0.041 A 
ATOM     14  C   UNL     1       0.771  -6.412   7.613  0.00  0.00    +0.022 A 
ATOM     15  C   UNL     1      -0.178  -6.543   6.621  0.00  0.00    +0.025 A 
ATOM     16  C   UNL     1       0.073  -6.055   5.341  0.00  0.00    +0.039 A 
ATOM     17  N   UNL     1      -0.715  -6.068   4.188  0.00  0.00    -0.283 N 
ATOM     18  C   UNL     1      -0.097  -5.486   3.143  0.00  0.00    +0.243 C 
ATOM     19  O   UNL     1      -0.539  -5.354   2.021  0.00  0.00    -0.273 OA
ATOM     20 CL   UNL     1       3.171  -5.631   8.598  0.00  0.00    -0.084 Cl
ATOM     21  H   UNL     1       2.118  -5.688   1.885  0.00  0.00    +0.123 HD
ATOM     22  H   UNL     1      -1.605  -6.452   4.145  0.00  0.00    +0.155 HD
ENDROOT
BRANCH   1  23
ATOM     23  C   UNL     1       1.229  -2.186  -0.022  0.00  0.00    +0.153 C 
BRANCH  23  28
ATOM     24  C   UNL     1      -0.656   1.071   0.285  0.00  0.00    +0.000 A 
ATOM     25  C   UNL     1       0.370   1.994   0.196  0.00  0.00    +0.001 A 
ATOM     26  C   UNL     1       1.674   1.565   0.035  0.00  0.00    +0.020 A 
ATOM     27  C   UNL     1       1.953   0.211  -0.035  0.00  0.00    +0.046 A 
ATOM     28  C   UNL     1       0.926  -0.712   0.055  0.00  0.00    -0.011 A 
ATOM     29  C   UNL     1      -0.378  -0.281   0.215  0.00  0.00    +0.006 A 
ATOM     30 CL   UNL     1       3.590  -0.329  -0.237  0.00  0.00    -0.083 Cl
ENDBRANCH  23  28
ENDBRANCH   1  23
BRANCH   5  31
ATOM     31  C   UNL     1       4.540  -4.908   1.991  0.00  0.00    +0.028 C 
BRANCH  31  32
ATOM     32  C   UNL     1       5.198  -6.286   2.086  0.00  0.00    +0.097 C 
BRANCH  32  33
ATOM     33  C   UNL     1       6.214  -6.435   0.983  0.00  0.00    +0.211 C 
ATOM     34  O   UNL     1       6.394  -5.527   0.198  0.00  0.00    -0.276 OA
ATOM     35  N   UNL     1       6.922  -7.575   0.868  0.00  0.00    -0.329 N 
ATOM     36  H   UNL     1       6.778  -8.301   1.496  0.00  0.00    +0.145 HD
ATOM     37  H   UNL     1       7.576  -7.671   0.158  0.00  0.00    +0.145 HD
ENDBRANCH  32  33
ENDBRANCH  31  32
ENDBRANCH   5  31
TORSDOF 5
