REMARK  Name = ZINC33631803
REMARK  12 active torsions:
REMARK  status: ('A' for Active; 'I' for Inactive)
REMARK    1  A    between atoms: C_1  and  C_2
REMARK    2  A    between atoms: C_2  and  C_3
REMARK    3  A    between atoms: C_7  and  C_41
REMARK    4  A    between atoms: C_8  and  N_9
REMARK    5  A    between atoms: C_14  and  C_32
REMARK    6  A    between atoms: C_17  and  C_22
REMARK    7  A    between atoms: C_17  and  C_29
REMARK    8  A    between atoms: C_22  and  C_23
REMARK    9  A    between atoms: C_34  and  C_40
REMARK   10  A    between atoms: C_35  and  O_39
REMARK   11  A    between atoms: C_36  and  C_38
REMARK   12  A    between atoms: C_41  and  C_42
REMARK                            x       y       z     vdW  Elec       q    Type
REMARK                         _______ _______ _______ _____ _____    ______ ____
ROOT
ATOM      1  N   UNL     1       0.247  -0.010   2.407  0.00  0.00    -0.209 N 
ATOM      2  C   UNL     1      -0.824   0.348   3.176  0.00  0.00    +0.229 C 
ATOM      3  O   UNL     1      -1.957  -0.071   3.083  0.00  0.00    -0.275 OA
ATOM      4  C   UNL     1      -0.321   1.357   4.156  0.00  0.00    +0.077 C 
ATOM      5  C   UNL     1      -0.717   1.304   5.625  0.00  0.00    -0.027 C 
ATOM      6  N   UNL     1       0.509   1.793   6.334  0.00  0.00    +0.396 N 
ATOM      7  C   UNL     1       1.688   1.504   5.453  0.00  0.00    +0.052 C 
ATOM      8  C   UNL     1       1.138   0.789   4.294  0.00  0.00    +0.086 C 
ATOM      9  C   UNL     1       1.447   0.377   2.951  0.00  0.00    +0.229 C 
ATOM     10  O   UNL     1       2.534   0.375   2.414  0.00  0.00    -0.275 OA
ATOM     11  H   UNL     1       0.422   2.875   6.515  0.00  0.00    -0.083 HD
ATOM     12  H   UNL     1       0.611   1.268   7.295  0.00  0.00    -0.083 HD
ENDROOT
BRANCH   5  13
ATOM     13  C   UNL     1      -1.885   2.217   5.894  0.00  0.00    -0.060 A 
ATOM     14  C   UNL     1      -1.677   3.575   6.054  0.00  0.00    +0.009 A 
ATOM     15  C   UNL     1      -2.747   4.415   6.295  0.00  0.00    -0.009 A 
ATOM     16  C   UNL     1      -4.030   3.894   6.386  0.00  0.00    +0.123 A 
ATOM     17  C   UNL     1      -4.235   2.531   6.230  0.00  0.00    -0.009 A 
ATOM     18  C   UNL     1      -3.163   1.696   5.984  0.00  0.00    +0.009 A 
ATOM     19  C   UNL     1      -5.627   1.962   6.328  0.00  0.00    +0.047 C 
ATOM     20  C   UNL     1      -2.521   5.895   6.465  0.00  0.00    +0.047 C 
BRANCH  16  21
ATOM     21  O   UNL     1      -5.083   4.718   6.628  0.00  0.00    -0.506 OA
ATOM     22  H   UNL     1      -6.100   4.304   6.700  0.00  0.00    +0.292 HD
ENDBRANCH  16  21
ENDBRANCH   5  13
BRANCH   1  28
ATOM     23  C   UNL     1       0.002  -0.004   0.002  0.00  0.00    -0.026 A 
ATOM     24  C   UNL     1      -0.104  -0.690  -1.192  0.00  0.00    +0.005 A 
ATOM     25  C   UNL     1      -0.086  -2.073  -1.200  0.00  0.00    +0.001 A 
ATOM     26  C   UNL     1       0.039  -2.773  -0.014  0.00  0.00    +0.005 A 
ATOM     27  C   UNL     1       0.145  -2.092   1.183  0.00  0.00    -0.026 A 
ATOM     28  C   UNL     1       0.133  -0.704   1.194  0.00  0.00    +0.050 A 
BRANCH  23  30
ATOM     29  C   UNL     1       1.417   2.032  -0.001  0.00  0.00    +0.009 C 
ATOM     30  C   UNL     1      -0.018   1.503   0.010  0.00  0.00    +0.033 C 
ENDBRANCH  23  30
BRANCH  27  31
ATOM     31  C   UNL     1       0.281  -2.855   2.475  0.00  0.00    +0.033 C 
ATOM     32  C   UNL     1      -1.099  -3.025   3.114  0.00  0.00    +0.009 C 
ENDBRANCH  27  31
ENDBRANCH   1  28
BRANCH   7  33
ATOM     33  C   UNL     1       2.690   0.646   6.182  0.00  0.00    +0.347 C 
ATOM     34  O   UNL     1       3.306  -0.204   5.584  0.00  0.00    -0.248 OA
ATOM     35  O   UNL     1       2.898   0.827   7.496  0.00  0.00    -0.248 OA
ENDBRANCH   7  33
BRANCH   7  36
ATOM     36  C   UNL     1       2.341   2.809   4.992  0.00  0.00    +0.035 C 
BRANCH  36  37
ATOM     37  C   UNL     1       2.838   3.573   6.192  0.00  0.00    -0.048 A 
ATOM     38  C   UNL     1       2.012   4.486   6.821  0.00  0.00    +0.003 A 
ATOM     39  C   UNL     1       2.466   5.184   7.924  0.00  0.00    +0.000 A 
ATOM     40  C   UNL     1       3.750   4.977   8.393  0.00  0.00    +0.000 A 
ATOM     41  C   UNL     1       4.578   4.068   7.761  0.00  0.00    +0.000 A 
ATOM     42  C   UNL     1       4.122   3.366   6.660  0.00  0.00    +0.003 A 
ENDBRANCH  36  37
ENDBRANCH   7  36
TORSDOF 8
