REMARK  Name = ZINC38732238
REMARK  8 active torsions:
REMARK  status: ('A' for Active; 'I' for Inactive)
REMARK    1  A    between atoms: C_1  and  O_2
REMARK    2  A    between atoms: O_2  and  C_3
REMARK    3  A    between atoms: C_3  and  C_5
REMARK    4  A    between atoms: C_5  and  C_7
REMARK    5  A    between atoms: C_5  and  N_17
REMARK    6  A    between atoms: C_7  and  C_8
REMARK    7  A    between atoms: C_18  and  C_20
REMARK    8  A    between atoms: C_26  and  C_28
REMARK                            x       y       z     vdW  Elec       q    Type
REMARK                         _______ _______ _______ _____ _____    ______ ____
ROOT
ATOM      1  C   UNL     1      -4.713  -3.138   1.189  0.00  0.00    +0.087 C 
ATOM      2  C   UNL     1      -4.841  -4.535   0.578  0.00  0.00    +0.013 C 
ATOM      3  C   UNL     1      -6.310  -4.962   0.586  0.00  0.00    +0.001 C 
ATOM      4  C   UNL     1      -6.826  -4.986   2.027  0.00  0.00    +0.001 C 
ATOM      5  C   UNL     1      -6.698  -3.590   2.638  0.00  0.00    +0.013 C 
ATOM      6  C   UNL     1      -5.229  -3.162   2.629  0.00  0.00    +0.087 C 
ENDROOT
BRANCH   6   7
ATOM      7  C   UNL     1      -4.416  -4.140   3.437  0.00  0.00    +0.219 C 
ATOM      8  O   UNL     1      -4.002  -5.157   2.921  0.00  0.00    -0.275 OA
ATOM      9  N   UNL     1      -4.149  -3.886   4.734  0.00  0.00    -0.298 N 
ATOM     10  C   UNL     1      -4.748  -2.725   5.407  0.00  0.00    +0.126 C 
ATOM     11  C   UNL     1      -5.492  -3.212   6.656  0.00  0.00    +0.125 C 
ATOM     12  N   UNL     1      -4.598  -4.091   7.422  0.00  0.00    -0.314 N 
ATOM     13  C   UNL     1      -3.998  -5.252   6.749  0.00  0.00    +0.125 C 
ATOM     14  C   UNL     1      -3.259  -4.768   5.501  0.00  0.00    +0.126 C 
ATOM     15  C   UNL     1      -4.322  -3.829   8.759  0.00  0.00    +0.099 A 
ATOM     16  C   UNL     1      -4.991  -2.797   9.411  0.00  0.00    +0.042 A 
ATOM     17  C   UNL     1      -4.707  -2.547  10.742  0.00  0.00    +0.005 A 
ATOM     18  C   UNL     1      -3.761  -3.340  11.378  0.00  0.00    +0.018 A 
ATOM     19  C   UNL     1      -3.136  -4.346  10.670  0.00  0.00    +0.084 A 
ATOM     20  N   UNL     1      -3.430  -4.566   9.402  0.00  0.00    -0.350 N 
ATOM     21  H   UNL     1      -2.979  -5.282   8.929  0.00  0.00    +0.166 HD
ENDBRANCH   6   7
BRANCH   1  23
ATOM     22  N   UNL     1      -2.598  -2.624   0.014  0.00  0.00    -0.302 N 
ATOM     23  C   UNL     1      -3.266  -2.717   1.181  0.00  0.00    +0.217 C 
ATOM     24  O   UNL     1      -2.703  -2.461   2.224  0.00  0.00    -0.275 OA
ATOM     25  H   UNL     1      -3.049  -2.828  -0.821  0.00  0.00    +0.150 HD
BRANCH  22  26
ATOM     26  C   UNL     1      -1.192  -2.215   0.005  0.00  0.00    +0.186 C 
BRANCH  26  27
ATOM     27  C   UNL     1      -1.106  -0.710   0.007  0.00  0.00    +0.328 C 
ATOM     28  O   UNL     1      -2.117  -0.048   0.015  0.00  0.00    -0.249 OA
BRANCH  27  30
ATOM     29  C   UNL     1       0.098   1.323   0.003  0.00  0.00    +0.280 C 
ATOM     30  O   UNL     1       0.092  -0.106   0.001  0.00  0.00    -0.467 OA
ENDBRANCH  27  30
ENDBRANCH  26  27
BRANCH  26  31
ATOM     31  C   UNL     1      -0.508  -2.762  -1.249  0.00  0.00    +0.071 C 
BRANCH  31  32
ATOM     32  C   UNL     1      -0.485  -4.268  -1.191  0.00  0.00    -0.020 A 
ATOM     33  C   UNL     1      -1.556  -5.173  -1.616  0.00  0.00    +0.003 A 
ATOM     34  C   UNL     1      -2.827  -4.984  -2.160  0.00  0.00    +0.010 A 
ATOM     35  C   UNL     1      -3.607  -6.067  -2.456  0.00  0.00    +0.001 A 
ATOM     36  C   UNL     1      -3.144  -7.354  -2.219  0.00  0.00    +0.002 A 
ATOM     37  C   UNL     1      -1.893  -7.564  -1.682  0.00  0.00    +0.026 A 
ATOM     38  C   UNL     1      -1.082  -6.476  -1.374  0.00  0.00    +0.047 A 
ATOM     39  N   UNL     1       0.182  -6.356  -0.843  0.00  0.00    -0.360 N 
ATOM     40  C   UNL     1       0.523  -5.035  -0.747  0.00  0.00    +0.087 A 
ATOM     41  H   UNL     1       0.749  -7.098  -0.580  0.00  0.00    +0.165 HD
ENDBRANCH  31  32
ENDBRANCH  26  31
ENDBRANCH  22  26
ENDBRANCH   1  23
TORSDOF 7
