REMARK  Name = ZINC09487132
REMARK  7 active torsions:
REMARK  status: ('A' for Active; 'I' for Inactive)
REMARK    1  A    between atoms: C_1  and  C_2
REMARK    2  A    between atoms: C_9  and  C_19
REMARK    3  A    between atoms: C_12  and  C_13
REMARK    4  A    between atoms: C_19  and  O_21
REMARK    5  A    between atoms: O_21  and  C_22
REMARK    6  A    between atoms: C_22  and  C_24
REMARK    7  A    between atoms: C_22  and  C_25
REMARK                            x       y       z     vdW  Elec       q    Type
REMARK                         _______ _______ _______ _____ _____    ______ ____
ROOT
ATOM      1  C   UNL     1       0.840   7.770   0.192  0.00  0.00    +0.051 C 
ATOM      2  C   UNL     1       1.053   6.281   0.101  0.00  0.00    +0.040 A 
ATOM      3  C   UNL     1       2.344   5.733   0.288  0.00  0.00    +0.196 A 
ATOM      4  O   UNL     1       3.307   6.444   0.525  0.00  0.00    -0.287 OA
ATOM      5  C   UNL     1       2.480   4.266   0.184  0.00  0.00    +0.065 A 
ATOM      6  C   UNL     1       3.713   3.639   0.354  0.00  0.00    +0.015 A 
ATOM      7  C   UNL     1       3.808   2.266   0.252  0.00  0.00    +0.002 A 
ATOM      8  C   UNL     1       2.685   1.504  -0.014  0.00  0.00    +0.019 A 
ATOM      9  C   UNL     1       1.442   2.112  -0.193  0.00  0.00    +0.102 A 
ATOM     10  C   UNL     1       1.333   3.508  -0.091  0.00  0.00    +0.153 A 
ATOM     11  O   UNL     1       0.145   4.121  -0.253  0.00  0.00    -0.454 OA
ATOM     12  C   UNL     1       0.007   5.453  -0.162  0.00  0.00    +0.142 A 
ENDROOT
BRANCH  12  13
ATOM     13  C   UNL     1      -1.334   6.042  -0.355  0.00  0.00    +0.018 A 
ATOM     14  C   UNL     1      -2.420   5.572   0.386  0.00  0.00    +0.011 A 
ATOM     15  C   UNL     1      -3.668   6.130   0.203  0.00  0.00    +0.001 A 
ATOM     16  C   UNL     1      -3.847   7.146  -0.718  0.00  0.00    +0.000 A 
ATOM     17  C   UNL     1      -2.776   7.614  -1.458  0.00  0.00    +0.001 A 
ATOM     18  C   UNL     1      -1.522   7.069  -1.283  0.00  0.00    +0.011 A 
ENDBRANCH  12  13
BRANCH   9  19
ATOM     19  C   UNL     1       0.251   1.294  -0.481  0.00  0.00    +0.343 C 
ATOM     20  O   UNL     1      -0.830   1.827  -0.635  0.00  0.00    -0.245 OA
BRANCH  19  21
ATOM     21  O   UNL     1       0.360  -0.046  -0.578  0.00  0.00    -0.450 OA
BRANCH  21  22
ATOM     22  C   UNL     1      -0.854  -0.788  -0.863  0.00  0.00    +0.239 C 
ATOM     23  C   UNL     1      -1.538  -1.172   0.451  0.00  0.00    +0.060 C 
BRANCH  22  24
ATOM     24  C   UNL     1      -0.511  -2.036  -1.635  0.00  0.00    +0.151 A 
ATOM     25  N   UNL     1      -0.191  -1.914  -2.949  0.00  0.00    -0.307 N 
ATOM     26  H   UNL     1      -0.189  -1.037  -3.364  0.00  0.00    +0.170 HD
ATOM     27  C   UNL     1       0.131  -3.004  -3.684  0.00  0.00    +0.259 A 
ATOM     28  O   UNL     1       0.424  -2.908  -4.862  0.00  0.00    -0.267 OA
ATOM     29  C   UNL     1       0.106  -4.309  -3.007  0.00  0.00    +0.065 A 
ATOM     30  C   UNL     1       0.415  -5.492  -3.675  0.00  0.00    +0.015 A 
ATOM     31  C   UNL     1       0.375  -6.687  -2.991  0.00  0.00    +0.001 A 
ATOM     32  C   UNL     1       0.031  -6.721  -1.646  0.00  0.00    +0.002 A 
ATOM     33  C   UNL     1      -0.277  -5.563  -0.968  0.00  0.00    +0.028 A 
ATOM     34  C   UNL     1      -0.244  -4.339  -1.639  0.00  0.00    +0.078 A 
ATOM     35  N   UNL     1      -0.541  -3.174  -1.010  0.00  0.00    -0.230 NA
ENDBRANCH  22  24
ENDBRANCH  21  22
ENDBRANCH  19  21
ENDBRANCH   9  19
TORSDOF 5
