REMARK  Name = ZINC00827373
REMARK  6 active torsions:
REMARK  status: ('A' for Active; 'I' for Inactive)
REMARK    1  A    between atoms: C_6  and  C_7
REMARK    2  A    between atoms: N_9  and  C_10
REMARK    3  A    between atoms: C_10  and  N_12
REMARK    4  A    between atoms: N_12  and  C_13
REMARK    5  A    between atoms: C_16  and  S_19
REMARK    6  A    between atoms: S_19  and  N_22
REMARK                            x       y       z     vdW  Elec       q    Type
REMARK                         _______ _______ _______ _____ _____    ______ ____
ROOT
ATOM      1  N   UNL     1      -3.076   3.043   4.820  0.00  0.00    -0.297 N 
ATOM      2  H   UNL     1      -3.778   2.469   5.165  0.00  0.00    +0.154 HD
ENDROOT
BRANCH   1   3
ATOM      3  C   UNL     1      -2.347   2.654   3.692  0.00  0.00    +0.033 A 
ATOM      4  C   UNL     1      -0.972   2.847   3.651  0.00  0.00    +0.025 A 
ATOM      5  C   UNL     1      -0.255   2.462   2.536  0.00  0.00    +0.030 A 
ATOM      6  C   UNL     1      -0.903   1.884   1.460  0.00  0.00    +0.105 A 
ATOM      7  C   UNL     1      -2.273   1.694   1.495  0.00  0.00    +0.030 A 
ATOM      8  C   UNL     1      -2.995   2.073   2.610  0.00  0.00    +0.025 A 
BRANCH   6   9
ATOM      9  S   UNL     1       0.016   1.394   0.039  0.00  0.00    +0.056 S 
ATOM     10  O   UNL     1       1.199   2.180   0.029  0.00  0.00    -0.153 OA
ATOM     11  O   UNL     1      -0.897   1.378  -1.050  0.00  0.00    -0.153 OA
BRANCH   9  12
ATOM     12  N   UNL     1       0.492  -0.174   0.280  0.00  0.00    -0.204 NA
ATOM     13  H   UNL     1       0.247  -0.635   1.098  0.00  0.00    +0.144 HD
ATOM     14  H   UNL     1       1.015  -0.631  -0.396  0.00  0.00    +0.144 HD
ENDBRANCH   9  12
ENDBRANCH   6   9
ENDBRANCH   1   3
BRANCH   1  15
ATOM     15  C   UNL     1      -2.805   4.215   5.426  0.00  0.00    +0.141 C 
ATOM     16  S   UNL     1      -1.667   5.293   4.737  0.00  0.00    -0.018 S 
BRANCH  15  19
ATOM     17  C   UNL     1      -3.158   5.712   7.183  0.00  0.00    +0.250 C 
ATOM     18  O   UNL     1      -2.350   6.477   6.693  0.00  0.00    -0.270 OA
ATOM     19  N   UNL     1      -3.429   4.539   6.576  0.00  0.00    -0.264 N 
ATOM     20  H   UNL     1      -4.074   3.929   6.967  0.00  0.00    +0.157 HD
BRANCH  17  26
ATOM     21  C   UNL     1      -4.774   5.193   9.005  0.00  0.00    +0.014 A 
ATOM     22  C   UNL     1      -5.405   5.527  10.185  0.00  0.00    +0.016 A 
ATOM     23  C   UNL     1      -5.124   6.733  10.806  0.00  0.00    +0.018 A 
ATOM     24  C   UNL     1      -4.205   7.607  10.250  0.00  0.00    +0.016 A 
ATOM     25  C   UNL     1      -3.563   7.281   9.074  0.00  0.00    +0.014 A 
ATOM     26  C   UNL     1      -3.842   6.067   8.443  0.00  0.00    +0.037 A 
ATOM     27 BR   UNL     1      -5.999   7.187  12.420  0.00  0.00    -0.050 Br
ENDBRANCH  17  26
ENDBRANCH  15  19
ENDBRANCH   1  15
TORSDOF 6
