REMARK  Name = ZINC63281237
REMARK  15 active torsions:
REMARK  status: ('A' for Active; 'I' for Inactive)
REMARK    1  A    between atoms: C_1  and  C_2
REMARK    2  A    between atoms: C_2  and  C_4
REMARK    3  A    between atoms: C_2  and  N_10
REMARK    4  A    between atoms: C_4  and  C_5
REMARK    5  A    between atoms: C_5  and  C_6
REMARK    6  A    between atoms: C_6  and  C_7
REMARK    7  A    between atoms: C_7  and  C_8
REMARK    8  A    between atoms: C_7  and  C_9
REMARK    9  A    between atoms: C_11  and  C_13
REMARK   10  A    between atoms: C_13  and  C_14
REMARK   11  A    between atoms: C_14  and  C_15
REMARK   12  A    between atoms: N_19  and  C_23
REMARK   13  A    between atoms: C_20  and  O_22
REMARK   14  A    between atoms: C_23  and  C_24
REMARK   15  A    between atoms: C_24  and  C_25
REMARK                            x       y       z     vdW  Elec       q    Type
REMARK                         _______ _______ _______ _____ _____    ______ ____
ROOT
ATOM      1  C   UNL     1       0.434  -1.646  -6.019  0.00  0.00    +0.197 C 
ATOM      2  C   UNL     1      -0.544  -1.784  -7.169  0.00  0.00    +0.248 C 
ATOM      3  O   UNL     1      -1.516  -2.507  -7.229  0.00  0.00    -0.273 OA
ATOM      4  N   UNL     1      -0.100  -0.926  -8.112  0.00  0.00    -0.224 N 
ATOM      5  C   UNL     1       1.031  -0.279  -7.683  0.00  0.00    +0.285 C 
ATOM      6  N   UNL     1       1.399  -0.641  -6.492  0.00  0.00    -0.224 NA
ENDROOT
BRANCH   5   7
ATOM      7  O   UNL     1       1.693   0.637  -8.422  0.00  0.00    -0.481 OA
ATOM      8  H   UNL     1       2.472   1.007  -7.985  0.00  0.00    +0.295 HD
ENDBRANCH   5   7
BRANCH   1   9
ATOM      9  C   UNL     1      -0.282  -1.153  -4.761  0.00  0.00    +0.045 C 
BRANCH   9  10
ATOM     10  C   UNL     1       0.712  -1.094  -3.598  0.00  0.00    +0.098 C 
BRANCH  10  12
ATOM     11  N   UNL     1       0.688  -0.476  -1.203  0.00  0.00    -0.313 N 
ATOM     12  C   UNL     1       0.006  -0.608  -2.358  0.00  0.00    +0.213 C 
ATOM     13  O   UNL     1      -1.175  -0.336  -2.400  0.00  0.00    -0.276 OA
ATOM     14  H   UNL     1       1.632  -0.695  -1.170  0.00  0.00    +0.149 HD
BRANCH  11  16
ATOM     15  C   UNL     1      -0.019   1.526   0.010  0.00  0.00    +0.028 C 
ATOM     16  C   UNL     1       0.002  -0.004   0.002  0.00  0.00    +0.070 C 
BRANCH  16  17
ATOM     17  C   UNL     1       0.742  -0.511   1.242  0.00  0.00    +0.022 C 
BRANCH  17  18
ATOM     18  C   UNL     1       0.655  -2.037   1.299  0.00  0.00    +0.002 C 
BRANCH  18  19
ATOM     19  C   UNL     1       1.395  -2.544   2.538  0.00  0.00    +0.003 C 
BRANCH  19  20
ATOM     20  C   UNL     1       1.309  -4.071   2.595  0.00  0.00    -0.017 C 
ATOM     21  C   UNL     1       2.152  -4.586   3.763  0.00  0.00    +0.007 C 
ATOM     22  C   UNL     1      -0.149  -4.492   2.794  0.00  0.00    +0.007 C 
ENDBRANCH  19  20
ENDBRANCH  18  19
ENDBRANCH  17  18
ENDBRANCH  16  17
ENDBRANCH  11  16
ENDBRANCH  10  12
ENDBRANCH   9  10
ENDBRANCH   1   9
BRANCH   4  23
ATOM     23  C   UNL     1      -0.737  -0.716  -9.414  0.00  0.00    +0.122 C 
BRANCH  23  24
ATOM     24  C   UNL     1      -1.774   0.404  -9.300  0.00  0.00    +0.052 C 
BRANCH  24  25
ATOM     25  C   UNL     1      -2.429   0.620 -10.640  0.00  0.00    -0.040 C 
ATOM     26  C   UNL     1      -3.594   0.084 -11.071  0.00  0.00    +0.000 A 
ATOM     27  C   UNL     1      -4.561  -0.826 -10.447  0.00  0.00    +0.030 A 
ATOM     28  C   UNL     1      -5.660  -1.195 -11.145  0.00  0.00    +0.042 A 
ATOM     29  C   UNL     1      -5.896  -0.731 -12.447  0.00  0.00    +0.022 A 
ATOM     30  C   UNL     1      -5.053   0.106 -13.087  0.00  0.00    +0.027 A 
ATOM     31  C   UNL     1      -3.867   0.559 -12.447  0.00  0.00    +0.043 A 
ATOM     32  N   UNL     1      -2.908   1.358 -12.849  0.00  0.00    -0.380 N 
ATOM     33  C   UNL     1      -1.921   1.485 -11.771  0.00  0.00    +0.144 C 
ATOM     34 CL   UNL     1      -6.807  -2.272 -10.409  0.00  0.00    -0.084 Cl
ATOM     35  H   UNL     1      -2.862   1.795 -13.714  0.00  0.00    +0.160 HD
ENDBRANCH  24  25
ENDBRANCH  23  24
ENDBRANCH   4  23
TORSDOF 12
