REMARK  Name = ZINC40052193
REMARK  13 active torsions:
REMARK  status: ('A' for Active; 'I' for Inactive)
REMARK    1  A    between atoms: C_1  and  C_2
REMARK    2  A    between atoms: C_2  and  C_3
REMARK    3  A    between atoms: C_3  and  C_4
REMARK    4  A    between atoms: C_4  and  O_5
REMARK    5  A    between atoms: O_5  and  C_6
REMARK    6  A    between atoms: C_9  and  C_13
REMARK    7  A    between atoms: C_11  and  C_12
REMARK    8  A    between atoms: C_13  and  C_15
REMARK    9  A    between atoms: N_19  and  C_29
REMARK   10  A    between atoms: C_20  and  C_22
REMARK   11  A    between atoms: C_29  and  C_30
REMARK   12  A    between atoms: C_30  and  C_31
REMARK   13  A    between atoms: C_31  and  O_32
REMARK                            x       y       z     vdW  Elec       q    Type
REMARK                         _______ _______ _______ _____ _____    ______ ____
ROOT
ATOM      1  C   UNL     1       1.333  -8.948  -1.973  0.00  0.00    +0.076 C 
ATOM      2  C   UNL     1       1.333 -10.292  -1.820  0.00  0.00    +0.249 C 
ATOM      3  C   UNL     1       0.593 -10.642  -0.590  0.00  0.00    +0.288 C 
ATOM      4  O   UNL     1       0.417 -11.771  -0.179  0.00  0.00    -0.266 OA
ATOM      5  N   UNL     1       0.142  -9.524   0.008  0.00  0.00    -0.283 N 
ATOM      6  C   UNL     1       0.571  -8.376  -0.800  0.00  0.00    +0.145 C 
ATOM      7  O   UNL     1       1.918 -11.177  -2.661  0.00  0.00    -0.282 OA
ENDROOT
BRANCH   6   8
ATOM      8  C   UNL     1       1.467  -7.474   0.009  0.00  0.00    -0.022 A 
ATOM      9  C   UNL     1       2.513  -8.011   0.737  0.00  0.00    +0.007 A 
ATOM     10  C   UNL     1       3.335  -7.184   1.479  0.00  0.00    +0.015 A 
ATOM     11  C   UNL     1       3.111  -5.819   1.494  0.00  0.00    +0.018 A 
ATOM     12  C   UNL     1       2.064  -5.282   0.766  0.00  0.00    +0.015 A 
ATOM     13  C   UNL     1       1.246  -6.109   0.020  0.00  0.00    +0.007 A 
ATOM     14 BR   UNL     1       4.235  -4.688   2.510  0.00  0.00    -0.050 Br
ENDBRANCH   6   8
BRANCH   1  15
ATOM     15  C   UNL     1       1.957  -8.191  -3.063  0.00  0.00    +0.195 C 
ATOM     16  O   UNL     1       3.163  -8.233  -3.220  0.00  0.00    -0.287 OA
BRANCH  15  20
ATOM     17  C   UNL     1      -0.444  -5.855  -5.673  0.00  0.00    +0.123 A 
ATOM     18  C   UNL     1      -1.044  -6.632  -4.688  0.00  0.00    +0.046 A 
ATOM     19  C   UNL     1      -0.270  -7.391  -3.840  0.00  0.00    +0.015 A 
ATOM     20  C   UNL     1       1.123  -7.379  -3.970  0.00  0.00    +0.023 A 
ATOM     21  C   UNL     1       1.722  -6.597  -4.962  0.00  0.00    +0.018 A 
ATOM     22  C   UNL     1       0.940  -5.845  -5.809  0.00  0.00    -0.008 A 
ATOM     23  C   UNL     1       1.584  -5.005  -6.882  0.00  0.00    +0.047 C 
BRANCH  17  24
ATOM     24  O   UNL     1      -1.211  -5.108  -6.507  0.00  0.00    -0.492 OA
BRANCH  24  25
ATOM     25  C   UNL     1      -2.626  -5.165  -6.312  0.00  0.00    +0.229 C 
BRANCH  25  26
ATOM     26  C   UNL     1      -3.318  -4.265  -7.338  0.00  0.00    +0.041 C 
BRANCH  26  28
ATOM     27  C   UNL     1      -5.525  -3.426  -8.155  0.00  0.00    +0.004 C 
ATOM     28  C   UNL     1      -4.833  -4.326  -7.129  0.00  0.00    -0.000 C 
ENDBRANCH  26  28
ENDBRANCH  25  26
ENDBRANCH  24  25
ENDBRANCH  17  24
ENDBRANCH  15  20
ENDBRANCH   1  15
BRANCH   5  29
ATOM     29  C   UNL     1      -0.634  -9.462   1.249  0.00  0.00    +0.111 C 
BRANCH  29  30
ATOM     30  C   UNL     1       0.319  -9.354   2.441  0.00  0.00    +0.047 C 
BRANCH  30  31
ATOM     31  C   UNL     1      -0.492  -9.290   3.737  0.00  0.00    +0.157 C 
BRANCH  31  32
ATOM     32  O   UNL     1       0.398  -9.188   4.851  0.00  0.00    -0.395 OA
ATOM     33  H   UNL     1      -0.048  -9.143   5.708  0.00  0.00    +0.209 HD
ENDBRANCH  31  32
ENDBRANCH  30  31
ENDBRANCH  29  30
ENDBRANCH   5  29
TORSDOF 11
