REMARK  Name = ZINC21819956
REMARK  8 active torsions:
REMARK  status: ('A' for Active; 'I' for Inactive)
REMARK    1  A    between atoms: C_1  and  C_2
REMARK    2  A    between atoms: C_2  and  C_3
REMARK    3  A    between atoms: C_3  and  N_4
REMARK    4  A    between atoms: N_4  and  C_5
REMARK    5  A    between atoms: C_5  and  C_7
REMARK    6  A    between atoms: C_5  and  C_13
REMARK    7  A    between atoms: N_15  and  C_16
REMARK    8  A    between atoms: C_19  and  N_23
REMARK                            x       y       z     vdW  Elec       q    Type
REMARK                         _______ _______ _______ _____ _____    ______ ____
ROOT
ATOM      1  C   UNL     1       2.427  -0.238   0.080  0.00  0.00    +0.207 C 
ATOM      2  O   UNL     1       1.388  -0.864   0.087  0.00  0.00    -0.277 OA
ATOM      3  N   UNL     1       2.403   1.106  -0.015  0.00  0.00    -0.286 N 
ATOM      4  H   UNL     1       3.345   1.669  -0.095  0.00  0.00    +0.155 HD
ENDROOT
BRANCH   3   5
ATOM      5  C   UNL     1       1.179   1.786  -0.010  0.00  0.00    +0.048 A 
ATOM      6  C   UNL     1       0.064   1.215  -0.608  0.00  0.00    +0.026 A 
ATOM      7  C   UNL     1      -1.141   1.891  -0.607  0.00  0.00    +0.034 A 
ATOM      8  C   UNL     1      -1.239   3.131  -0.001  0.00  0.00    +0.127 A 
ATOM      9  C   UNL     1      -0.131   3.703   0.595  0.00  0.00    +0.049 A 
ATOM     10  C   UNL     1       1.079   3.034   0.592  0.00  0.00    +0.041 A 
ATOM     11 BR   UNL     1       2.595   3.816   1.408  0.00  0.00    -0.048 Br
BRANCH   8  12
ATOM     12  N   UNL     1      -2.533   3.850   0.003  0.00  0.00    +0.056 N 
ATOM     13  O   UNL     1      -2.620   4.944   0.531  0.00  0.00    -0.126 OA
ATOM     14  O   UNL     1      -3.511   3.348  -0.522  0.00  0.00    -0.126 OA
ENDBRANCH   8  12
ENDBRANCH   3   5
BRANCH   1  15
ATOM     15  C   UNL     1       3.744  -0.963   0.178  0.00  0.00    +0.047 C 
BRANCH  15  16
ATOM     16  C   UNL     1       4.484  -0.499   1.406  0.00  0.00    -0.053 A 
ATOM     17  C   UNL     1       4.147  -1.004   2.648  0.00  0.00    +0.002 A 
ATOM     18  C   UNL     1       4.828  -0.581   3.774  0.00  0.00    +0.000 A 
ATOM     19  C   UNL     1       5.840   0.354   3.659  0.00  0.00    +0.000 A 
ATOM     20  C   UNL     1       6.173   0.863   2.418  0.00  0.00    +0.000 A 
ATOM     21  C   UNL     1       5.495   0.437   1.291  0.00  0.00    +0.002 A 
ENDBRANCH  15  16
BRANCH  15  22
ATOM     22  N   UNL     1       3.501  -2.409   0.270  0.00  0.00    +0.389 N 
ATOM     23  H   UNL     1       2.618  -2.658  -0.337  0.00  0.00    -0.084 HD
ATOM     24  H   UNL     1       3.309  -2.668   1.322  0.00  0.00    -0.084 HD
BRANCH  22  25
ATOM     25  C   UNL     1       4.660  -3.170  -0.217  0.00  0.00    -0.081 C 
BRANCH  25  27
ATOM     26  C   UNL     1       5.577  -5.460  -0.613  0.00  0.00    +0.002 C 
ATOM     27  C   UNL     1       4.370  -4.668  -0.105  0.00  0.00    -0.022 C 
ENDBRANCH  25  27
ENDBRANCH  22  25
ENDBRANCH  15  22
ENDBRANCH   1  15
TORSDOF 7
