REMARK  Name = ZINC02565185
REMARK  6 active torsions:
REMARK  status: ('A' for Active; 'I' for Inactive)
REMARK    1  A    between atoms: C_3  and  C_9
REMARK    2  A    between atoms: C_4  and  O_8
REMARK    3  A    between atoms: C_6  and  O_7
REMARK    4  A    between atoms: N_10  and  N_11
REMARK    5  A    between atoms: C_12  and  C_14
REMARK    6  A    between atoms: N_16  and  C_17
REMARK                            x       y       z     vdW  Elec       q    Type
REMARK                         _______ _______ _______ _____ _____    ______ ____
ROOT
ATOM      1  N   UNL     1      -2.536   4.101   0.060  0.00  0.00    -0.199 N 
ATOM      2  C   UNL     1      -2.551   5.449   0.061  0.00  0.00    +0.318 C 
ATOM      3  O   UNL     1      -1.506   6.068   0.064  0.00  0.00    -0.263 OA
ATOM      4  H   UNL     1      -3.371   3.607   0.058  0.00  0.00    +0.178 HD
ENDROOT
BRANCH   2   5
ATOM      5  C   UNL     1      -3.850   6.180   0.060  0.00  0.00    +0.305 C 
ATOM      6  O   UNL     1      -4.895   5.562   0.058  0.00  0.00    -0.265 OA
ATOM      7  N   UNL     1      -3.864   7.528   0.061  0.00  0.00    -0.276 N 
ATOM      8  H   UNL     1      -3.032   8.022   0.129  0.00  0.00    +0.155 HD
BRANCH   7   9
ATOM      9  C   UNL     1      -5.079   8.214  -0.035  0.00  0.00    +0.054 A 
ATOM     10  C   UNL     1      -6.221   7.693   0.559  0.00  0.00    +0.044 A 
ATOM     11  C   UNL     1      -7.419   8.376   0.466  0.00  0.00    +0.043 A 
ATOM     12  C   UNL     1      -7.483   9.573  -0.226  0.00  0.00    +0.021 A 
ATOM     13  C   UNL     1      -6.349  10.091  -0.823  0.00  0.00    +0.023 A 
ATOM     14  C   UNL     1      -5.146   9.416  -0.730  0.00  0.00    +0.062 A 
ATOM     15 CL   UNL     1      -3.723  10.068  -1.479  0.00  0.00    -0.082 Cl
ATOM     16 CL   UNL     1      -8.846   7.729   1.213  0.00  0.00    -0.083 Cl
ENDBRANCH   7   9
ENDBRANCH   2   5
BRANCH   1  18
ATOM     17  C   UNL     1      -1.302   2.114   0.060  0.00  0.00    +0.142 C 
ATOM     18  N   UNL     1      -1.316   3.414   0.061  0.00  0.00    -0.187 NA
BRANCH  17  21
ATOM     19  C   UNL     1       1.202  -0.677   0.055  0.00  0.00    +0.046 A 
ATOM     20  C   UNL     1      -0.001  -0.006   0.059  0.00  0.00    +0.016 A 
ATOM     21  C   UNL     1      -0.019   1.392   0.061  0.00  0.00    +0.036 A 
ATOM     22  C   UNL     1       1.190   2.104   0.058  0.00  0.00    +0.129 A 
ATOM     23  C   UNL     1       2.391   1.417   0.053  0.00  0.00    +0.091 A 
ATOM     24  C   UNL     1       2.399   0.030   0.051  0.00  0.00    +0.120 A 
BRANCH  24  25
ATOM     25  O   UNL     1       3.580  -0.640   0.046  0.00  0.00    -0.507 OA
ATOM     26  H   UNL     1       3.919  -0.833  -0.839  0.00  0.00    +0.292 HD
ENDBRANCH  24  25
BRANCH  22  27
ATOM     27  O   UNL     1       1.182   3.462   0.059  0.00  0.00    -0.506 OA
ATOM     28  H   UNL     1       1.182   3.854   0.943  0.00  0.00    +0.292 HD
ENDBRANCH  22  27
ENDBRANCH  17  21
ENDBRANCH   1  18
TORSDOF 6
