REMARK  Name = ZINC21220345
REMARK  6 active torsions:
REMARK  status: ('A' for Active; 'I' for Inactive)
REMARK    1  A    between atoms: C_1  and  C_2
REMARK    2  A    between atoms: C_2  and  C_3
REMARK    3  A    between atoms: C_2  and  O_4
REMARK    4  A    between atoms: O_4  and  C_5
REMARK    5  A    between atoms: C_10  and  C_11
REMARK    6  A    between atoms: C_16  and  C_21
REMARK                            x       y       z     vdW  Elec       q    Type
REMARK                         _______ _______ _______ _____ _____    ______ ____
ROOT
ATOM      1  C   UNL     1       5.641   6.805   0.069  0.00  0.00    +0.139 C 
ATOM      2  C   UNL     1       4.363   6.024  -0.131  0.00  0.00    +0.037 C 
ATOM      3  C   UNL     1       3.852   5.638  -1.312  0.00  0.00    +0.017 C 
ATOM      4  C   UNL     1       2.540   4.874  -1.368  0.00  0.00    +0.059 C 
ATOM      5  C   UNL     1       2.405   3.983  -0.135  0.00  0.00    +0.032 C 
ATOM      6  C   UNL     1       2.437   4.888   1.101  0.00  0.00    +0.088 C 
ATOM      7  C   UNL     1       3.702   5.692   1.074  0.00  0.00    +0.163 C 
ATOM      8  O   UNL     1       4.176   6.072   2.127  0.00  0.00    -0.292 OA
ATOM      9  N   UNL     1       4.421   5.879  -2.521  0.00  0.00    -0.316 N 
ATOM     10  C   UNL     1       4.927   7.108  -2.928  0.00  0.00    +0.052 A 
ATOM     11  C   UNL     1       4.412   7.795  -4.013  0.00  0.00    +0.025 A 
ATOM     12  C   UNL     1       5.030   8.960  -4.434  0.00  0.00    +0.002 A 
ATOM     13  C   UNL     1       6.150   9.433  -3.775  0.00  0.00    +0.002 A 
ATOM     14  C   UNL     1       6.653   8.758  -2.676  0.00  0.00    +0.025 A 
ATOM     15  C   UNL     1       6.027   7.601  -2.242  0.00  0.00    +0.049 A 
ATOM     16  N   UNL     1       6.469   6.913  -1.113  0.00  0.00    -0.331 N 
ATOM     17  H   UNL     1       4.506   5.068  -3.259  0.00  0.00    +0.152 HD
ATOM     18  H   UNL     1       7.465   6.446  -1.131  0.00  0.00    +0.147 HD
ENDROOT
BRANCH   5  19
ATOM     19  C   UNL     1       1.098   3.234  -0.186  0.00  0.00    -0.043 A 
ATOM     20  C   UNL     1       1.094   1.851  -0.198  0.00  0.00    +0.007 A 
ATOM     21  C   UNL     1      -0.103   1.164  -0.245  0.00  0.00    +0.038 A 
ATOM     22  C   UNL     1      -1.300   1.860  -0.285  0.00  0.00    +0.123 A 
ATOM     23  C   UNL     1      -1.295   3.244  -0.267  0.00  0.00    +0.038 A 
ATOM     24  C   UNL     1      -0.096   3.930  -0.221  0.00  0.00    +0.007 A 
ATOM     25  F   UNL     1      -2.471   1.188  -0.337  0.00  0.00    -0.205 F 
ENDBRANCH   5  19
BRANCH   1  31
ATOM     26  C   UNL     1       6.247   9.003   1.113  0.00  0.00    +0.126 A 
ATOM     27  C   UNL     1       5.916  10.283   1.533  0.00  0.00    +0.046 A 
ATOM     28  C   UNL     1       4.627  10.751   1.365  0.00  0.00    +0.004 A 
ATOM     29  C   UNL     1       3.668   9.945   0.780  0.00  0.00    +0.001 A 
ATOM     30  C   UNL     1       3.997   8.671   0.356  0.00  0.00    +0.009 A 
ATOM     31  C   UNL     1       5.284   8.196   0.526  0.00  0.00    +0.019 A 
BRANCH  26  32
ATOM     32  O   UNL     1       7.515   8.540   1.277  0.00  0.00    -0.489 OA
BRANCH  32  34
ATOM     33  C   UNL     1       9.528   8.518   2.614  0.00  0.00    +0.051 C 
ATOM     34  C   UNL     1       8.424   9.377   1.995  0.00  0.00    +0.167 C 
ATOM     35  C   UNL     1       9.046  10.394   1.036  0.00  0.00    +0.051 C 
ENDBRANCH  32  34
ENDBRANCH  26  32
ENDBRANCH   1  31
TORSDOF 4
