REMARK  Name = ZINC08798915
REMARK  12 active torsions:
REMARK  status: ('A' for Active; 'I' for Inactive)
REMARK    1  A    between atoms: C_1  and  C_2
REMARK    2  A    between atoms: C_2  and  C_3
REMARK    3  A    between atoms: N_5  and  C_6
REMARK    4  A    between atoms: C_9  and  S_12
REMARK    5  A    between atoms: S_12  and  N_15
REMARK    6  A    between atoms: N_15  and  C_16
REMARK    7  A    between atoms: C_16  and  C_17
REMARK    8  A    between atoms: C_17  and  C_19
REMARK    9  A    between atoms: C_17  and  N_63
REMARK   10  A    between atoms: N_28  and  C_29
REMARK   11  A    between atoms: C_30  and  N_63
REMARK   12  A    between atoms: C_31  and  N_63
REMARK                            x       y       z     vdW  Elec       q    Type
REMARK                         _______ _______ _______ _____ _____    ______ ____
ROOT
ATOM      1  N   UNL     1       2.446   5.744   2.679  0.00  0.00    -0.191 NA
ATOM      2  H   UNL     1       2.076   6.570   3.028  0.00  0.00    +0.148 HD
ENDROOT
BRANCH   1   3
ATOM      3  S   UNL     1       1.919   5.151   1.225  0.00  0.00    +0.058 S 
ATOM      4  O   UNL     1       3.081   4.841   0.468  0.00  0.00    -0.153 OA
ATOM      5  O   UNL     1       0.922   6.049   0.757  0.00  0.00    -0.153 OA
BRANCH   3   9
ATOM      6  C   UNL     1      -0.167   1.219   2.060  0.00  0.00    +0.033 A 
ATOM      7  C   UNL     1      -0.889   2.406   2.071  0.00  0.00    +0.025 A 
ATOM      8  C   UNL     1      -0.249   3.603   1.816  0.00  0.00    +0.030 A 
ATOM      9  C   UNL     1       1.107   3.621   1.550  0.00  0.00    +0.105 A 
ATOM     10  C   UNL     1       1.829   2.441   1.538  0.00  0.00    +0.030 A 
ATOM     11  C   UNL     1       1.195   1.241   1.792  0.00  0.00    +0.025 A 
BRANCH   6  14
ATOM     12  C   UNL     1      -2.077  -0.190   1.897  0.00  0.00    +0.217 C 
ATOM     13  O   UNL     1      -2.623   0.647   1.210  0.00  0.00    -0.275 OA
ATOM     14  N   UNL     1      -0.812   0.004   2.318  0.00  0.00    -0.286 N 
ATOM     15  H   UNL     1      -0.348  -0.698   2.800  0.00  0.00    +0.155 HD
BRANCH  12  17
ATOM     16  C   UNL     1      -4.220  -1.418   1.678  0.00  0.00    +0.013 C 
ATOM     17  C   UNL     1      -2.814  -1.448   2.280  0.00  0.00    +0.093 C 
ENDBRANCH  12  17
ENDBRANCH   6  14
ENDBRANCH   3   9
ENDBRANCH   1   3
BRANCH   1  18
ATOM     18  C   UNL     1       3.470   5.021   3.437  0.00  0.00    +0.095 C 
BRANCH  18  19
ATOM     19  C   UNL     1       4.042   5.937   4.521  0.00  0.00    -0.023 C 
BRANCH  19  20
ATOM     20  C   UNL     1       5.178   5.237   5.221  0.00  0.00    -0.059 A 
ATOM     21  C   UNL     1       6.214   4.691   4.485  0.00  0.00    +0.004 A 
ATOM     22  C   UNL     1       7.254   4.054   5.127  0.00  0.00    +0.023 A 
ATOM     23  C   UNL     1       7.264   3.944   6.519  0.00  0.00    +0.033 A 
ATOM     24  C   UNL     1       6.225   4.490   7.250  0.00  0.00    -0.026 A 
ATOM     25  C   UNL     1       5.185   5.134   6.598  0.00  0.00    +0.007 A 
ATOM     26  C   UNL     1       6.181   4.415   8.756  0.00  0.00    +0.038 C 
ATOM     27  C   UNL     1       7.178   3.365   9.248  0.00  0.00    +0.024 C 
ATOM     28  C   UNL     1       8.510   3.601   8.524  0.00  0.00    +0.105 C 
ATOM     29  N   UNL     1       8.336   3.276   7.107  0.00  0.00    -0.333 N 
ATOM     30  C   UNL     1       9.578   3.509   6.357  0.00  0.00    +0.129 C 
ENDBRANCH  19  20
BRANCH  19  33
ATOM     31  C   UNL     1       4.927   8.153   4.931  0.00  0.00    -0.096 C 
ATOM     32  C   UNL     1       5.648   6.901   2.987  0.00  0.00    -0.096 C 
ATOM     33  N   UNL     1       4.513   7.188   3.891  0.00  0.00    +0.381 N 
ATOM     34  H   UNL     1       3.746   7.595   3.344  0.00  0.00    -0.082 HD
ENDBRANCH  19  33
ENDBRANCH  18  19
ENDBRANCH   1  18
TORSDOF 8
