REMARK  Name = ZINC20718933
REMARK  7 active torsions:
REMARK  status: ('A' for Active; 'I' for Inactive)
REMARK    1  A    between atoms: C_1  and  O_2
REMARK    2  A    between atoms: O_2  and  C_3
REMARK    3  A    between atoms: C_3  and  C_5
REMARK    4  A    between atoms: C_5  and  C_7
REMARK    5  A    between atoms: C_5  and  N_14
REMARK    6  A    between atoms: C_7  and  C_8
REMARK    7  A    between atoms: C_26  and  C_28
REMARK                            x       y       z     vdW  Elec       q    Type
REMARK                         _______ _______ _______ _____ _____    ______ ____
ROOT
ATOM      1  N   UNL     1      -0.659  -2.326  -3.546  0.00  0.00    -0.286 N 
ATOM      2  C   UNL     1       0.661  -2.596  -3.506  0.00  0.00    +0.304 C 
ATOM      3  O   UNL     1       1.287  -2.418  -2.478  0.00  0.00    -0.253 OA
ATOM      4  N   UNL     1       1.287  -3.062  -4.604  0.00  0.00    -0.273 N 
ATOM      5  C   UNL     1       2.698  -3.474  -4.551  0.00  0.00    +0.116 C 
ATOM      6  C   UNL     1       3.528  -2.549  -5.449  0.00  0.00    +0.076 C 
ATOM      7  C   UNL     1       2.809  -2.374  -6.764  0.00  0.00    +0.066 A 
ATOM      8  C   UNL     1       1.501  -2.646  -6.959  0.00  0.00    +0.064 A 
ATOM      9  N   UNL     1       1.220  -2.361  -8.259  0.00  0.00    -0.346 N 
ATOM     10  H   UNL     1       0.359  -2.453  -8.698  0.00  0.00    +0.167 HD
ATOM     11  C   UNL     1       2.369  -1.925  -8.825  0.00  0.00    +0.197 A 
ATOM     12  N   UNL     1       3.314  -1.938  -7.922  0.00  0.00    -0.240 NA
ATOM     13  C   UNL     1       0.574  -3.178  -5.889  0.00  0.00    +0.158 C 
ATOM     14  H   UNL     1      -1.143  -2.399  -4.383  0.00  0.00    +0.151 HD
ENDROOT
BRANCH  13  15
ATOM     15  C   UNL     1       0.242  -4.622  -6.164  0.00  0.00    -0.003 A 
ATOM     16  C   UNL     1       0.869  -5.624  -5.446  0.00  0.00    +0.009 A 
ATOM     17  C   UNL     1       0.565  -6.948  -5.697  0.00  0.00    +0.020 A 
ATOM     18  C   UNL     1      -0.367  -7.273  -6.667  0.00  0.00    +0.042 A 
ATOM     19  C   UNL     1      -0.995  -6.271  -7.385  0.00  0.00    +0.040 A 
ATOM     20  C   UNL     1      -0.694  -4.945  -7.130  0.00  0.00    +0.048 A 
ATOM     21 CL   UNL     1      -1.485  -3.687  -8.027  0.00  0.00    -0.083 Cl
ATOM     22 CL   UNL     1      -0.748  -8.937  -6.982  0.00  0.00    -0.083 Cl
ENDBRANCH  13  15
BRANCH   1  23
ATOM     23  C   UNL     1      -1.362  -1.925  -2.325  0.00  0.00    +0.187 C 
BRANCH  23  24
ATOM     24  C   UNL     1      -1.783  -3.153  -1.560  0.00  0.00    +0.328 C 
ATOM     25  O   UNL     1      -1.522  -4.251  -1.990  0.00  0.00    -0.249 OA
BRANCH  24  27
ATOM     26  C   UNL     1      -2.815  -4.233   0.271  0.00  0.00    +0.280 C 
ATOM     27  O   UNL     1      -2.447  -3.026  -0.400  0.00  0.00    -0.467 OA
ENDBRANCH  24  27
ENDBRANCH  23  24
BRANCH  23  28
ATOM     28  C   UNL     1      -2.600  -1.105  -2.695  0.00  0.00    +0.069 C 
BRANCH  28  29
ATOM     29  C   UNL     1      -2.172   0.182  -3.351  0.00  0.00    -0.045 A 
ATOM     30  C   UNL     1      -1.937   1.306  -2.581  0.00  0.00    +0.004 A 
ATOM     31  C   UNL     1      -1.545   2.487  -3.183  0.00  0.00    +0.000 A 
ATOM     32  C   UNL     1      -1.387   2.544  -4.555  0.00  0.00    +0.000 A 
ATOM     33  C   UNL     1      -1.621   1.420  -5.325  0.00  0.00    +0.000 A 
ATOM     34  C   UNL     1      -2.009   0.238  -4.723  0.00  0.00    +0.004 A 
ENDBRANCH  28  29
ENDBRANCH  23  28
ENDBRANCH   1  23
TORSDOF 6
