REMARK  Name = ZINC12159752
REMARK  13 active torsions:
REMARK  status: ('A' for Active; 'I' for Inactive)
REMARK    1  A    between atoms: C_1  and  C_2
REMARK    2  A    between atoms: C_4  and  C_34
REMARK    3  A    between atoms: C_6  and  C_8
REMARK    4  A    between atoms: C_8  and  N_74
REMARK    5  A    between atoms: C_11  and  C_14
REMARK    6  A    between atoms: C_14  and  C_26
REMARK    7  A    between atoms: N_17  and  C_21
REMARK    8  A    between atoms: C_21  and  C_22
REMARK    9  A    between atoms: C_22  and  C_23
REMARK   10  A    between atoms: C_23  and  N_76
REMARK   11  A    between atoms: C_24  and  N_76
REMARK   12  A    between atoms: C_25  and  N_76
REMARK   13  A    between atoms: C_26  and  C_27
REMARK                            x       y       z     vdW  Elec       q    Type
REMARK                         _______ _______ _______ _____ _____    ______ ____
ROOT
ATOM      1  C   UNL     1      -1.204   1.830   0.017  0.00  0.00    +0.119 C 
ATOM      2  C   UNL     1      -0.628   3.232   0.024  0.00  0.00    +0.247 C 
ATOM      3  O   UNL     1      -1.244   4.276   0.034  0.00  0.00    -0.273 OA
ATOM      4  N   UNL     1       0.710   3.076   0.011  0.00  0.00    -0.224 N 
ATOM      5  C   UNL     1       1.057   1.784   0.002  0.00  0.00    +0.309 C 
ATOM      6  O   UNL     1       2.207   1.393  -0.011  0.00  0.00    -0.252 OA
ATOM      7  N   UNL     1      -0.011   0.966   0.007  0.00  0.00    -0.284 N 
ATOM      8  H   UNL     1       0.002  -0.004   0.002  0.00  0.00    +0.151 HD
ENDROOT
BRANCH   1  11
ATOM      9  C   UNL     1      -2.034   1.607  -3.736  0.00  0.00    -0.078 C 
ATOM     10  C   UNL     1      -1.206   1.899  -2.482  0.00  0.00    -0.013 C 
ATOM     11  C   UNL     1      -2.047   1.598  -1.239  0.00  0.00    +0.018 C 
ATOM     12  C   UNL     1      -2.507   0.138  -1.284  0.00  0.00    -0.013 C 
ATOM     13  C   UNL     1      -3.297  -0.103  -2.572  0.00  0.00    -0.078 C 
ATOM     14  N   UNL     1      -2.424   0.181  -3.732  0.00  0.00    +0.382 N 
ATOM     15  H   UNL     1      -1.577  -0.395  -3.660  0.00  0.00    -0.081 HD
BRANCH  14  16
ATOM     16  C   UNL     1      -3.128  -0.153  -4.987  0.00  0.00    -0.043 C 
BRANCH  16  22
ATOM     17  C   UNL     1      -2.812  -5.125  -5.458  0.00  0.00    +0.044 C 
ATOM     18  C   UNL     1      -3.600  -3.898  -5.080  0.00  0.00    -0.050 A 
ATOM     19  C   UNL     1      -4.895  -4.024  -4.613  0.00  0.00    +0.006 A 
ATOM     20  C   UNL     1      -5.618  -2.898  -4.267  0.00  0.00    -0.050 A 
ATOM     21  C   UNL     1      -5.046  -1.645  -4.388  0.00  0.00    +0.005 A 
ATOM     22  C   UNL     1      -3.751  -1.519  -4.855  0.00  0.00    -0.063 A 
ATOM     23  C   UNL     1      -3.030  -2.645  -5.206  0.00  0.00    +0.005 A 
ATOM     24  C   UNL     1      -7.030  -3.036  -3.759  0.00  0.00    +0.044 C 
ENDBRANCH  16  22
ENDBRANCH  14  16
ENDBRANCH   1  11
BRANCH   4  25
ATOM     25  C   UNL     1       1.668   4.185   0.007  0.00  0.00    +0.116 C 
BRANCH  25  26
ATOM     26  C   UNL     1       1.987   4.578  -1.437  0.00  0.00    +0.001 C 
BRANCH  26  27
ATOM     27  C   UNL     1       2.987   5.736  -1.441  0.00  0.00    -0.078 C 
BRANCH  27  30
ATOM     28  C   UNL     1       2.111   6.670  -3.496  0.00  0.00    -0.097 C 
ATOM     29  C   UNL     1       4.421   7.054  -2.880  0.00  0.00    -0.097 C 
ATOM     30  N   UNL     1       3.302   6.089  -2.842  0.00  0.00    +0.376 N 
ATOM     31  H   UNL     1       3.578   5.238  -3.346  0.00  0.00    -0.083 HD
ENDBRANCH  27  30
ENDBRANCH  26  27
ENDBRANCH  25  26
ENDBRANCH   4  25
BRANCH   1  32
ATOM     32  C   UNL     1      -2.036   1.585   1.278  0.00  0.00    +0.070 C 
BRANCH  32  33
ATOM     33  C   UNL     1      -1.197   1.873   2.496  0.00  0.00    -0.045 A 
ATOM     34  C   UNL     1      -0.453   0.864   3.077  0.00  0.00    +0.006 A 
ATOM     35  C   UNL     1       0.320   1.128   4.192  0.00  0.00    +0.038 A 
ATOM     36  C   UNL     1       0.341   2.402   4.733  0.00  0.00    +0.123 A 
ATOM     37  C   UNL     1      -0.409   3.412   4.153  0.00  0.00    +0.038 A 
ATOM     38  C   UNL     1      -1.177   3.146   3.036  0.00  0.00    +0.006 A 
ATOM     39  F   UNL     1       1.093   2.660   5.825  0.00  0.00    -0.205 F 
ENDBRANCH  32  33
ENDBRANCH   1  32
TORSDOF 9
