REMARK  Name = ZINC40735180
REMARK  9 active torsions:
REMARK  status: ('A' for Active; 'I' for Inactive)
REMARK    1  A    between atoms: C_1  and  C_2
REMARK    2  A    between atoms: C_7  and  C_9
REMARK    3  A    between atoms: C_7  and  C_10
REMARK    4  A    between atoms: C_14  and  N_36
REMARK    5  A    between atoms: C_15  and  N_19
REMARK    6  A    between atoms: N_19  and  N_20
REMARK    7  A    between atoms: C_21  and  C_23
REMARK    8  A    between atoms: C_23  and  C_24
REMARK    9  A    between atoms: C_23  and  C_30
REMARK                            x       y       z     vdW  Elec       q    Type
REMARK                         _______ _______ _______ _____ _____    ______ ____
ROOT
ATOM      1  C   UNL     1       1.523  -1.952   0.321  0.00  0.00    +0.013 C 
ATOM      2  C   UNL     1       0.881  -3.301  -0.040  0.00  0.00    -0.014 C 
ATOM      3  C   UNL     1       1.545  -3.959  -1.281  0.00  0.00    +0.030 C 
ATOM      4  C   UNL     1       0.429  -4.959  -1.671  0.00  0.00    +0.076 C 
ATOM      5  C   UNL     1       0.487  -6.114  -0.675  0.00  0.00    +0.029 C 
ATOM      6  C   UNL     1       0.387  -5.682   0.776  0.00  0.00    -0.033 C 
ATOM      7  C   UNL     1       0.952  -4.312   1.103  0.00  0.00    +0.014 C 
ATOM      8  C   UNL     1       1.181  -6.715   1.615  0.00  0.00    +0.011 C 
ATOM      9  C   UNL     1      -1.073  -5.774   1.246  0.00  0.00    +0.011 C 
ATOM     10  N   UNL     1      -0.832  -4.216  -1.477  0.00  0.00    -0.310 N 
ATOM     11  C   UNL     1      -0.588  -3.149  -0.495  0.00  0.00    +0.113 C 
ATOM     12  C   UNL     1      -2.039  -4.471  -2.118  0.00  0.00    +0.148 A 
ATOM     13  C   UNL     1      -3.193  -3.771  -1.762  0.00  0.00    +0.107 A 
ATOM     14  C   UNL     1      -4.378  -4.066  -2.437  0.00  0.00    +0.161 A 
ATOM     15  N   UNL     1      -4.363  -4.997  -3.389  0.00  0.00    -0.217 NA
ATOM     16  C   UNL     1      -3.251  -5.635  -3.694  0.00  0.00    +0.225 A 
ATOM     17  N   UNL     1      -2.111  -5.383  -3.084  0.00  0.00    -0.219 NA
ENDROOT
BRANCH  13  18
ATOM     18  N   UNL     1      -3.162  -2.796  -0.751  0.00  0.00    -0.353 N 
ATOM     19  H   UNL     1      -2.373  -2.245  -0.632  0.00  0.00    +0.143 HD
ATOM     20  H   UNL     1      -3.930  -2.675  -0.171  0.00  0.00    +0.143 HD
ENDBRANCH  13  18
BRANCH  14  21
ATOM     21  N   UNL     1      -5.555  -3.399  -2.122  0.00  0.00    -0.247 N 
ATOM     22  H   UNL     1      -5.558  -2.722  -1.427  0.00  0.00    +0.172 HD
BRANCH  21  23
ATOM     23  N   UNL     1      -6.739  -3.703  -2.807  0.00  0.00    -0.235 N 
ATOM     24  C   UNL     1      -7.880  -3.056  -2.500  0.00  0.00    +0.241 C 
ATOM     25  O   UNL     1      -7.883  -2.210  -1.632  0.00  0.00    -0.273 OA
ATOM     26  H   UNL     1      -6.736  -4.380  -3.502  0.00  0.00    +0.173 HD
BRANCH  24  27
ATOM     27  C   UNL     1      -9.153  -3.384  -3.237  0.00  0.00    +0.136 C 
BRANCH  27  28
ATOM     28  C   UNL     1      -9.492  -4.838  -3.032  0.00  0.00    -0.031 A 
ATOM     29  C   UNL     1      -9.541  -5.362  -1.754  0.00  0.00    +0.005 A 
ATOM     30  C   UNL     1      -9.852  -6.696  -1.565  0.00  0.00    +0.000 A 
ATOM     31  C   UNL     1     -10.115  -7.505  -2.655  0.00  0.00    +0.000 A 
ATOM     32  C   UNL     1     -10.068  -6.980  -3.933  0.00  0.00    +0.000 A 
ATOM     33  C   UNL     1      -9.761  -5.646  -4.121  0.00  0.00    +0.005 A 
ENDBRANCH  27  28
BRANCH  27  34
ATOM     34  C   UNL     1     -10.275  -2.527  -2.709  0.00  0.00    -0.031 A 
ATOM     35  C   UNL     1     -10.590  -2.554  -1.363  0.00  0.00    +0.005 A 
ATOM     36  C   UNL     1     -11.619  -1.768  -0.879  0.00  0.00    +0.000 A 
ATOM     37  C   UNL     1     -12.331  -0.954  -1.740  0.00  0.00    +0.000 A 
ATOM     38  C   UNL     1     -12.015  -0.926  -3.085  0.00  0.00    +0.000 A 
ATOM     39  C   UNL     1     -10.984  -1.709  -3.569  0.00  0.00    +0.005 A 
ENDBRANCH  27  34
ENDBRANCH  24  27
ENDBRANCH  21  23
ENDBRANCH  14  21
TORSDOF 6
