REMARK  Name = ZINC45900905
REMARK  9 active torsions:
REMARK  status: ('A' for Active; 'I' for Inactive)
REMARK    1  A    between atoms: C_1  and  C_2
REMARK    2  A    between atoms: C_2  and  C_3
REMARK    3  A    between atoms: C_2  and  C_4
REMARK    4  A    between atoms: C_2  and  C_5
REMARK    5  A    between atoms: N_13  and  C_17
REMARK    6  A    between atoms: C_17  and  C_18
REMARK    7  A    between atoms: C_26  and  C_28
REMARK    8  A    between atoms: C_31  and  O_34
REMARK    9  A    between atoms: O_34  and  C_35
REMARK                            x       y       z     vdW  Elec       q    Type
REMARK                         _______ _______ _______ _____ _____    ______ ____
ROOT
ATOM      1  C   UNL     1       5.641  -3.891  -4.142  0.00  0.00    +0.213 C 
ENDROOT
BRANCH   1  10
ATOM      2  C   UNL     1       0.719  -0.539  -1.233  0.00  0.00    -0.005 C 
ATOM      3  C   UNL     1       0.755  -2.068  -1.226  0.00  0.00    +0.006 C 
ATOM      4  C   UNL     1       1.458  -2.567  -2.491  0.00  0.00    +0.035 C 
ATOM      5  C   UNL     1       2.876  -2.008  -2.539  0.00  0.00    +0.113 C 
ATOM      6  C   UNL     1       2.857  -0.484  -2.525  0.00  0.00    +0.035 C 
ATOM      7  C   UNL     1       2.148   0.007  -1.260  0.00  0.00    +0.006 C 
ATOM      8  C   UNL     1       3.603  -2.516  -3.763  0.00  0.00    +0.247 C 
ATOM      9  O   UNL     1       3.302  -2.333  -4.924  0.00  0.00    -0.273 OA
ATOM     10  N   UNL     1       4.656  -3.215  -3.293  0.00  0.00    -0.215 N 
ATOM     11  C   UNL     1       4.690  -3.216  -1.955  0.00  0.00    +0.310 C 
ATOM     12  O   UNL     1       5.545  -3.779  -1.301  0.00  0.00    -0.252 OA
ATOM     13  N   UNL     1       3.670  -2.522  -1.415  0.00  0.00    -0.285 N 
ATOM     14  H   UNL     1       3.493  -2.389  -0.471  0.00  0.00    +0.151 HD
BRANCH   2  16
ATOM     15  C   UNL     1      -0.032   1.490   0.017  0.00  0.00    +0.011 C 
ATOM     16  C   UNL     1       0.006  -0.040   0.025  0.00  0.00    -0.035 C 
ATOM     17  C   UNL     1       0.761  -0.525   1.265  0.00  0.00    +0.011 C 
ATOM     18  C   UNL     1      -1.423  -0.586   0.052  0.00  0.00    +0.011 C 
ENDBRANCH   2  16
ENDBRANCH   1  10
BRANCH   1  19
ATOM     19  C   UNL     1       6.770  -2.943  -4.453  0.00  0.00    +0.234 C 
ATOM     20  O   UNL     1       6.754  -1.814  -4.010  0.00  0.00    -0.274 OA
ATOM     21  N   UNL     1       7.798  -3.349  -5.225  0.00  0.00    -0.293 N 
ATOM     22  C   UNL     1       7.831  -4.754  -5.677  0.00  0.00    +0.108 C 
ATOM     23  C   UNL     1       8.256  -4.879  -7.151  0.00  0.00    +0.019 C 
ATOM     24  C   UNL     1       7.613  -3.788  -7.971  0.00  0.00    +0.002 C 
ATOM     25  C   UNL     1       8.547  -2.583  -8.031  0.00  0.00    +0.002 C 
ATOM     26  C   UNL     1       8.430  -1.667  -6.886  0.00  0.00    +0.027 C 
ATOM     27  C   UNL     1       8.820  -2.390  -5.580  0.00  0.00    +0.106 C 
BRANCH  27  28
ATOM     28  C   UNL     1       8.961  -1.375  -4.475  0.00  0.00    -0.027 A 
ATOM     29  C   UNL     1       9.414  -1.769  -3.229  0.00  0.00    +0.009 A 
ATOM     30  C   UNL     1       9.544  -0.841  -2.215  0.00  0.00    +0.046 A 
ATOM     31  C   UNL     1       9.220   0.488  -2.446  0.00  0.00    +0.120 A 
ATOM     32  C   UNL     1       8.766   0.881  -3.697  0.00  0.00    +0.046 A 
ATOM     33  C   UNL     1       8.642  -0.050  -4.710  0.00  0.00    +0.009 A 
BRANCH  31  34
ATOM     34  O   UNL     1       9.346   1.403  -1.450  0.00  0.00    -0.495 OA
ATOM     35  C   UNL     1       8.994   2.753  -1.760  0.00  0.00    +0.277 C 
ENDBRANCH  31  34
ENDBRANCH  27  28
ENDBRANCH   1  19
TORSDOF 5
