REMARK  Name = ZINC09633697
REMARK  11 active torsions:
REMARK  status: ('A' for Active; 'I' for Inactive)
REMARK    1  A    between atoms: C_1  and  C_2
REMARK    2  A    between atoms: C_2  and  C_3
REMARK    3  A    between atoms: C_2  and  C_4
REMARK    4  A    between atoms: C_2  and  C_5
REMARK    5  A    between atoms: N_7  and  C_8
REMARK    6  A    between atoms: C_8  and  C_9
REMARK    7  A    between atoms: C_12  and  C_14
REMARK    8  A    between atoms: C_14  and  C_16
REMARK    9  A    between atoms: C_16  and  N_17
REMARK   10  A    between atoms: C_20  and  C_25
REMARK   11  A    between atoms: C_25  and  C_26
REMARK                            x       y       z     vdW  Elec       q    Type
REMARK                         _______ _______ _______ _____ _____    ______ ____
ROOT
ATOM      1  N   UNL     1      -1.799   5.928  -1.915  0.00  0.00    -0.217 N 
ATOM      2  C   UNL     1      -2.723   5.086  -1.413  0.00  0.00    +0.244 C 
ATOM      3  O   UNL     1      -3.849   5.362  -1.056  0.00  0.00    -0.273 OA
ATOM      4  C   UNL     1      -2.063   3.721  -1.387  0.00  0.00    +0.165 C 
ATOM      5  N   UNL     1      -0.717   3.978  -1.928  0.00  0.00    -0.287 N 
ATOM      6  C   UNL     1      -0.658   5.292  -2.206  0.00  0.00    +0.310 C 
ATOM      7  O   UNL     1       0.321   5.841  -2.671  0.00  0.00    -0.252 OA
ATOM      8  H   UNL     1      -0.011   3.325  -2.058  0.00  0.00    +0.151 HD
ENDROOT
BRANCH   1   9
ATOM      9  C   UNL     1      -2.016   7.363  -2.117  0.00  0.00    +0.198 C 
BRANCH   9  10
ATOM     10  C   UNL     1      -1.613   8.112  -0.873  0.00  0.00    +0.187 C 
ATOM     11  O   UNL     1      -1.185   7.506   0.089  0.00  0.00    -0.290 OA
BRANCH  10  15
ATOM     12  C   UNL     1      -2.134  12.127  -1.211  0.00  0.00    +0.008 A 
ATOM     13  C   UNL     1      -1.634  11.726  -0.011  0.00  0.00    +0.013 A 
ATOM     14  C   UNL     1      -1.425  10.390   0.214  0.00  0.00    +0.019 A 
ATOM     15  C   UNL     1      -1.732   9.518  -0.826  0.00  0.00    +0.056 A 
ATOM     16  S   UNL     1      -2.323  10.640  -2.081  0.00  0.00    -0.089 S 
BRANCH  12  17
ATOM     17  C   UNL     1      -2.448  13.527  -1.672  0.00  0.00    +0.146 C 
BRANCH  17  20
ATOM     18  C   UNL     1      -1.313  15.360  -2.808  0.00  0.00    +0.219 C 
ATOM     19  O   UNL     1      -2.334  16.008  -2.720  0.00  0.00    -0.275 OA
ATOM     20  N   UNL     1      -1.266  14.107  -2.314  0.00  0.00    -0.310 N 
ATOM     21  H   UNL     1      -0.449  13.588  -2.385  0.00  0.00    +0.149 HD
BRANCH  18  23
ATOM     22  C   UNL     1      -0.415  17.377  -3.937  0.00  0.00    +0.020 C 
ATOM     23  C   UNL     1      -0.096  15.956  -3.468  0.00  0.00    +0.039 C 
ATOM     24  C   UNL     1       1.060  15.996  -2.467  0.00  0.00    +0.020 C 
ATOM     25  C   UNL     1       0.301  15.100  -4.672  0.00  0.00    +0.020 C 
ENDBRANCH  18  23
ENDBRANCH  17  20
ENDBRANCH  12  17
ENDBRANCH  10  15
ENDBRANCH   9  10
ENDBRANCH   1   9
BRANCH   4  26
ATOM     26  C   UNL     1      -1.976   3.193   0.046  0.00  0.00    +0.069 C 
BRANCH  26  27
ATOM     27  C   UNL     1      -1.430   1.788   0.031  0.00  0.00    -0.020 A 
ATOM     28  C   UNL     1      -2.147   0.653   0.026  0.00  0.00    +0.087 A 
ATOM     29  N   UNL     1      -1.308  -0.428   0.012  0.00  0.00    -0.360 N 
ATOM     30  H   UNL     1      -1.594  -1.355   0.010  0.00  0.00    +0.165 HD
ATOM     31  C   UNL     1       0.002  -0.004   0.002  0.00  0.00    +0.047 A 
ATOM     32  C   UNL     1      -0.017   1.403   0.010  0.00  0.00    +0.003 A 
ATOM     33  C   UNL     1       1.183   2.116   0.002  0.00  0.00    +0.010 A 
ATOM     34  C   UNL     1       2.372   1.442  -0.012  0.00  0.00    +0.001 A 
ATOM     35  C   UNL     1       2.396   0.055  -0.020  0.00  0.00    +0.002 A 
ATOM     36  C   UNL     1       1.224  -0.669  -0.013  0.00  0.00    +0.026 A 
ENDBRANCH  26  27
ENDBRANCH   4  26
TORSDOF 8
