REMARK  Name = ZINC39855645
REMARK  9 active torsions:
REMARK  status: ('A' for Active; 'I' for Inactive)
REMARK    1  A    between atoms: C_1  and  C_2
REMARK    2  A    between atoms: C_6  and  C_7
REMARK    3  A    between atoms: N_9  and  C_10
REMARK    4  A    between atoms: C_13  and  C_16
REMARK    5  A    between atoms: C_16  and  C_17
REMARK    6  A    between atoms: C_16  and  C_18
REMARK    7  A    between atoms: C_20  and  C_25
REMARK    8  A    between atoms: C_20  and  C_26
REMARK    9  A    between atoms: N_23  and  O_24
REMARK                            x       y       z     vdW  Elec       q    Type
REMARK                         _______ _______ _______ _____ _____    ______ ____
ROOT
ATOM      1  C   UNL     1      -0.014   1.502   0.010  0.00  0.00    +0.048 C 
ATOM      2  C   UNL     1      -0.004  -0.005   0.002  0.00  0.00    +0.009 A 
ATOM      3  C   UNL     1      -0.007  -0.839  -1.122  0.00  0.00    +0.044 A 
ATOM      4  C   UNL     1       0.004  -2.138  -0.672  0.00  0.00    +0.116 A 
ATOM      5  O   UNL     1       0.018  -2.112   0.658  0.00  0.00    -0.454 OA
ATOM      6  C   UNL     1       0.018  -0.831   1.091  0.00  0.00    +0.193 A 
ATOM      7  C   UNL     1      -0.001  -3.328  -1.598  0.00  0.00    +0.081 C 
ATOM      8  C   UNL     1      -0.528  -2.901  -2.971  0.00  0.00    -0.023 C 
ATOM      9  C   UNL     1       0.249  -1.689  -3.495  0.00  0.00    +0.066 C 
ATOM     10  C   UNL     1      -0.018  -0.514  -2.566  0.00  0.00    +0.091 C 
ATOM     11  N   UNL     1      -0.239   0.683  -3.006  0.00  0.00    -0.091 NA
ATOM     12  C   UNL     1      -0.373  -4.063  -3.954  0.00  0.00    +0.011 C 
ATOM     13  C   UNL     1      -2.010  -2.537  -2.851  0.00  0.00    +0.011 C 
ENDROOT
BRANCH   6  14
ATOM     14  C   UNL     1       0.034  -0.400   2.493  0.00  0.00    +0.284 C 
ATOM     15  O   UNL     1       0.029   0.786   2.765  0.00  0.00    -0.266 OA
ATOM     16  N   UNL     1       0.054  -1.318   3.480  0.00  0.00    -0.279 N 
ATOM     17  H   UNL     1      -0.009  -2.262   3.265  0.00  0.00    +0.155 HD
BRANCH  16  18
ATOM     18  C   UNL     1       0.168  -0.909   4.812  0.00  0.00    +0.034 A 
ATOM     19  C   UNL     1       0.888  -1.678   5.717  0.00  0.00    +0.023 A 
ATOM     20  C   UNL     1       0.998  -1.272   7.032  0.00  0.00    +0.006 A 
ATOM     21  C   UNL     1       0.391  -0.101   7.449  0.00  0.00    -0.045 A 
ATOM     22  C   UNL     1      -0.327   0.666   6.551  0.00  0.00    +0.006 A 
ATOM     23  C   UNL     1      -0.436   0.269   5.233  0.00  0.00    +0.023 A 
BRANCH  21  24
ATOM     24  C   UNL     1       0.513   0.339   8.885  0.00  0.00    +0.013 C 
ATOM     25  C   UNL     1       1.192   1.709   8.943  0.00  0.00    +0.012 C 
ATOM     26  C   UNL     1      -0.880   0.433   9.510  0.00  0.00    +0.012 C 
ENDBRANCH  21  24
ENDBRANCH  16  18
ENDBRANCH   6  14
BRANCH  11  27
ATOM     27  O   UNL     1      -0.238   0.936  -4.399  0.00  0.00    -0.409 OA
ATOM     28  H   UNL     1      -0.411   1.859  -4.631  0.00  0.00    +0.328 HD
ENDBRANCH  11  27
TORSDOF 4
