REMARK  Name = ZINC09119326
REMARK  7 active torsions:
REMARK  status: ('A' for Active; 'I' for Inactive)
REMARK    1  A    between atoms: C_1  and  C_2
REMARK    2  A    between atoms: C_2  and  C_25
REMARK    3  A    between atoms: N_3  and  N_4
REMARK    4  A    between atoms: C_5  and  C_7
REMARK    5  A    between atoms: N_16  and  C_18
REMARK    6  A    between atoms: C_18  and  C_19
REMARK    7  A    between atoms: C_28  and  C_31
REMARK                            x       y       z     vdW  Elec       q    Type
REMARK                         _______ _______ _______ _____ _____    ______ ____
ROOT
ATOM      1  C   UNL     1      -1.266  -0.759   0.010  0.00  0.00    +0.155 A 
ATOM      2  C   UNL     1      -1.256  -2.231  -0.004  0.00  0.00    +0.020 A 
ATOM      3  C   UNL     1      -0.082  -2.976  -0.015  0.00  0.00    +0.011 A 
ATOM      4  C   UNL     1      -0.155  -4.353  -0.022  0.00  0.00    +0.001 A 
ATOM      5  C   UNL     1      -1.383  -5.000  -0.014  0.00  0.00    +0.001 A 
ATOM      6  C   UNL     1      -2.559  -4.280   0.002  0.00  0.00    +0.014 A 
ATOM      7  C   UNL     1      -2.507  -2.890   0.009  0.00  0.00    +0.050 A 
ATOM      8  C   UNL     1      -3.710  -2.046   0.026  0.00  0.00    +0.275 A 
ATOM      9  O   UNL     1      -4.820  -2.545   0.034  0.00  0.00    -0.266 OA
ATOM     10  N   UNL     1      -3.555  -0.706   0.032  0.00  0.00    -0.224 N 
ATOM     11  N   UNL     1      -2.414  -0.127   0.024  0.00  0.00    -0.163 NA
ENDROOT
BRANCH   1  13
ATOM     12  N   UNL     1      -0.016   1.344   0.009  0.00  0.00    -0.201 N 
ATOM     13  C   UNL     1       0.002  -0.004   0.002  0.00  0.00    +0.284 C 
ATOM     14  O   UNL     1       1.063  -0.598  -0.011  0.00  0.00    -0.267 OA
ATOM     15  H   UNL     1      -0.863   1.817   0.016  0.00  0.00    +0.178 HD
BRANCH  12  18
ATOM     16  C   UNL     1      -0.145   4.095   0.025  0.00  0.00    +0.068 C 
ATOM     17  C   UNL     1       1.170   3.359   0.009  0.00  0.00    +0.063 C 
ATOM     18  N   UNL     1       1.187   2.061   0.002  0.00  0.00    -0.184 NA
BRANCH  17  19
ATOM     19  C   UNL     1       2.435   4.113   0.001  0.00  0.00    -0.002 A 
ATOM     20  C   UNL     1       2.416   5.512   0.003  0.00  0.00    +0.011 A 
ATOM     21  C   UNL     1       3.590   6.210   0.001  0.00  0.00    +0.019 A 
ATOM     22  C   UNL     1       4.810   5.528  -0.015  0.00  0.00    +0.052 A 
ATOM     23  C   UNL     1       4.829   4.129  -0.022  0.00  0.00    +0.019 A 
ATOM     24  C   UNL     1       3.656   3.430  -0.014  0.00  0.00    +0.011 A 
BRANCH  22  25
ATOM     25  C   UNL     1       6.040   6.260  -0.022  0.00  0.00    +0.099 C 
ATOM     26  N   UNL     1       7.016   6.842  -0.028  0.00  0.00    -0.191 NA
ENDBRANCH  22  25
ENDBRANCH  17  19
ENDBRANCH  12  18
ENDBRANCH   1  13
BRANCH  10  27
ATOM     27  C   UNL     1      -4.757   0.130   0.048  0.00  0.00    +0.182 C 
BRANCH  27  28
ATOM     28  C   UNL     1      -5.156   0.409   1.475  0.00  0.00    -0.026 A 
ATOM     29  C   UNL     1      -6.027  -0.443   2.128  0.00  0.00    +0.005 A 
ATOM     30  C   UNL     1      -6.389  -0.191   3.438  0.00  0.00    +0.000 A 
ATOM     31  C   UNL     1      -5.888   0.920   4.091  0.00  0.00    +0.000 A 
ATOM     32  C   UNL     1      -5.021   1.774   3.437  0.00  0.00    +0.000 A 
ATOM     33  C   UNL     1      -4.655   1.519   2.128  0.00  0.00    +0.005 A 
ENDBRANCH  27  28
ENDBRANCH  10  27
TORSDOF 6
