REMARK  Name = ZINC33762328
REMARK  8 active torsions:
REMARK  status: ('A' for Active; 'I' for Inactive)
REMARK    1  A    between atoms: C_1  and  C_2
REMARK    2  A    between atoms: C_5  and  C_8
REMARK    3  A    between atoms: C_8  and  C_9
REMARK    4  A    between atoms: C_10  and  C_36
REMARK    5  A    between atoms: C_12  and  C_35
REMARK    6  A    between atoms: C_14  and  N_15
REMARK    7  A    between atoms: N_19  and  S_22
REMARK    8  A    between atoms: S_22  and  C_25
REMARK                            x       y       z     vdW  Elec       q    Type
REMARK                         _______ _______ _______ _____ _____    ______ ____
ROOT
ATOM      1  N   UNL     1       7.186   5.222  -3.366  0.00  0.00    -0.314 N 
ATOM      2  C   UNL     1       7.614   5.237  -1.991  0.00  0.00    +0.108 C 
ATOM      3  C   UNL     1       8.066   3.822  -1.553  0.00  0.00    +0.036 C 
ATOM      4  C   UNL     1       7.134   2.763  -2.183  0.00  0.00    +0.111 C 
ATOM      5  N   UNL     1       5.732   3.071  -2.199  0.00  0.00    -0.175 NA
ATOM      6  C   UNL     1       5.166   3.813  -3.377  0.00  0.00    +0.128 C 
ATOM      7  C   UNL     1       5.726   5.170  -3.335  0.00  0.00    +0.123 C 
ENDROOT
BRANCH   1  13
ATOM      8  C   UNL     1       8.788   6.306  -4.812  0.00  0.00    +0.016 A 
ATOM      9  C   UNL     1       9.185   7.457  -5.465  0.00  0.00    +0.021 A 
ATOM     10  N   UNL     1       8.463   8.560  -5.327  0.00  0.00    -0.347 N 
ATOM     11  C   UNL     1       7.376   8.571  -4.583  0.00  0.00    +0.106 A 
ATOM     12  N   UNL     1       6.958   7.496  -3.947  0.00  0.00    -0.219 NA
ATOM     13  C   UNL     1       7.628   6.351  -4.037  0.00  0.00    +0.128 A 
ATOM     14  C   UNL     1       6.588   9.850  -4.456  0.00  0.00    +0.086 C 
ATOM     15  C   UNL     1      10.427   7.460  -6.319  0.00  0.00    +0.064 C 
ATOM     16  H   UNL     1       8.769   9.485  -5.838  0.00  0.00    +0.167 HD
BRANCH   8  17
ATOM     17  C   UNL     1       9.584   5.033  -4.939  0.00  0.00    +0.075 C 
BRANCH  17  22
ATOM     18  C   UNL     1       7.736   2.053  -9.532  0.00  0.00    +0.044 C 
ATOM     19  C   UNL     1       8.218   2.830  -8.334  0.00  0.00    -0.050 A 
ATOM     20  C   UNL     1       9.324   3.652  -8.443  0.00  0.00    +0.003 A 
ATOM     21  C   UNL     1       9.767   4.364  -7.344  0.00  0.00    +0.004 A 
ATOM     22  C   UNL     1       9.102   4.256  -6.137  0.00  0.00    -0.043 A 
ATOM     23  C   UNL     1       7.998   3.431  -6.027  0.00  0.00    +0.004 A 
ATOM     24  C   UNL     1       7.554   2.721  -7.127  0.00  0.00    +0.003 A 
ENDBRANCH  17  22
ENDBRANCH   8  17
ENDBRANCH   1  13
BRANCH   5  25
ATOM     25  S   UNL     1       4.755   2.624  -0.939  0.00  0.00    +0.061 S 
ATOM     26  O   UNL     1       3.643   3.508  -0.953  0.00  0.00    -0.153 OA
ATOM     27  O   UNL     1       5.599   2.478   0.196  0.00  0.00    -0.153 OA
BRANCH  25  28
ATOM     28  C   UNL     1       4.128   1.019  -1.310  0.00  0.00    +0.106 A 
ATOM     29  C   UNL     1       4.836  -0.107  -0.895  0.00  0.00    +0.029 A 
ATOM     30  C   UNL     1       4.380  -1.361  -1.166  0.00  0.00    +0.010 A 
ATOM     31  C   UNL     1       3.176  -1.525  -1.873  0.00  0.00    -0.018 A 
ATOM     32  C   UNL     1       2.674  -2.803  -2.171  0.00  0.00    +0.008 A 
ATOM     33  C   UNL     1       1.508  -2.923  -2.863  0.00  0.00    +0.001 A 
ATOM     34  C   UNL     1       0.797  -1.796  -3.273  0.00  0.00    +0.001 A 
ATOM     35  C   UNL     1       1.254  -0.543  -3.002  0.00  0.00    +0.008 A 
ATOM     36  C   UNL     1       2.457  -0.379  -2.295  0.00  0.00    -0.016 A 
ATOM     37  C   UNL     1       2.960   0.899  -1.998  0.00  0.00    +0.037 A 
ENDBRANCH  25  28
ENDBRANCH   5  25
TORSDOF 5
