REMARK  Name = ZINC38626253
REMARK  3 active torsions:
REMARK  status: ('A' for Active; 'I' for Inactive)
REMARK    1  A    between atoms: C_3  and  C_6
REMARK    2  A    between atoms: N_7  and  N_8
REMARK    3  A    between atoms: C_9  and  C_11
REMARK                            x       y       z     vdW  Elec       q    Type
REMARK                         _______ _______ _______ _____ _____    ______ ____
ROOT
ATOM      1  N   UNL     1       6.045   1.424  -0.048  0.00  0.00    -0.205 N 
ATOM      2  C   UNL     1       7.068   0.547  -0.062  0.00  0.00    +0.263 C 
ATOM      3  O   UNL     1       6.844  -0.646  -0.067  0.00  0.00    -0.271 OA
ATOM      4  H   UNL     1       6.224   2.378  -0.045  0.00  0.00    +0.177 HD
ENDROOT
BRANCH   2   5
ATOM      5  C   UNL     1       8.490   1.047  -0.073  0.00  0.00    +0.243 C 
ATOM      6  C   UNL     1       8.921   1.403  -1.473  0.00  0.00    -0.012 C 
ATOM      7  C   UNL     1       9.943   0.582  -1.738  0.00  0.00    +0.065 C 
ATOM      8  C   UNL     1      10.688   0.594  -3.054  0.00  0.00    +0.057 C 
ATOM      9  C   UNL     1       9.833   1.329  -4.092  0.00  0.00    +0.006 C 
ATOM     10  C   UNL     1       9.382   2.679  -3.526  0.00  0.00    +0.005 C 
ATOM     11  C   UNL     1       8.363   2.439  -2.403  0.00  0.00    +0.035 C 
ATOM     12  N   UNL     1      10.179  -0.219  -0.676  0.00  0.00    -0.158 NA
ATOM     13  N   UNL     1       9.427  -0.033   0.292  0.00  0.00    -0.170 NA
ENDBRANCH   2   5
BRANCH   1  15
ATOM     14  C   UNL     1       3.737   1.806  -0.024  0.00  0.00    +0.145 C 
ATOM     15  N   UNL     1       4.724   0.960  -0.038  0.00  0.00    -0.187 NA
BRANCH  14  18
ATOM     16  C   UNL     1      -0.016   1.354   0.009  0.00  0.00    +0.008 A 
ATOM     17  C   UNL     1       1.174   2.044   0.002  0.00  0.00    +0.017 A 
ATOM     18  C   UNL     1       2.353   1.320  -0.013  0.00  0.00    +0.032 A 
ATOM     19  S   UNL     1       1.751  -0.361  -0.017  0.00  0.00    -0.096 S 
ATOM     20  C   UNL     1       0.002  -0.004   0.002  0.00  0.00    +0.046 A 
ENDBRANCH  14  18
ENDBRANCH   1  15
TORSDOF 3
