REMARK  Name = ZINC36378615
REMARK  16 active torsions:
REMARK  status: ('A' for Active; 'I' for Inactive)
REMARK    1  A    between atoms: C_3  and  O_42
REMARK    2  A    between atoms: C_6  and  C_7
REMARK    3  A    between atoms: C_7  and  C_8
REMARK    4  A    between atoms: C_8  and  N_9
REMARK    5  A    between atoms: N_9  and  C_10
REMARK    6  A    between atoms: C_12  and  O_41
REMARK    7  A    between atoms: C_14  and  O_40
REMARK    8  A    between atoms: C_16  and  O_39
REMARK    9  A    between atoms: C_18  and  C_21
REMARK   10  A    between atoms: C_21  and  O_22
REMARK   11  A    between atoms: O_22  and  C_23
REMARK   12  A    between atoms: C_25  and  O_38
REMARK   13  A    between atoms: C_27  and  O_37
REMARK   14  A    between atoms: C_29  and  O_36
REMARK   15  A    between atoms: C_31  and  C_34
REMARK   16  A    between atoms: C_34  and  O_35
REMARK                            x       y       z     vdW  Elec       q    Type
REMARK                         _______ _______ _______ _____ _____    ______ ____
ROOT
ATOM      1  C   UNL     1      -3.443  -2.020  -2.802  0.00  0.00    +0.095 C 
ATOM      2  C   UNL     1      -4.691  -2.907  -2.797  0.00  0.00    +0.157 C 
ATOM      3  C   UNL     1      -5.826  -2.175  -2.075  0.00  0.00    +0.174 C 
ATOM      4  C   UNL     1      -6.072  -0.830  -2.766  0.00  0.00    +0.176 C 
ATOM      5  C   UNL     1      -4.771  -0.023  -2.772  0.00  0.00    +0.173 C 
ATOM      6  O   UNL     1      -3.749  -0.774  -3.432  0.00  0.00    -0.384 OA
ENDROOT
BRANCH   1   7
ATOM      7  N   UNL     1      -3.009  -1.777  -1.420  0.00  0.00    +0.398 N 
ATOM      8  H   UNL     1      -2.872  -2.660  -0.951  0.00  0.00    -0.082 HD
ATOM      9  H   UNL     1      -3.714  -1.244  -0.935  0.00  0.00    -0.082 HD
BRANCH   7  10
ATOM     10  C   UNL     1      -1.746  -1.027  -1.429  0.00  0.00    -0.074 C 
BRANCH  10  11
ATOM     11  C   UNL     1      -1.293  -0.774   0.011  0.00  0.00    +0.016 C 
BRANCH  11  17
ATOM     12  C   UNL     1      -0.017   1.378   0.010  0.00  0.00    +0.007 A 
ATOM     13  C   UNL     1       1.169   2.087   0.002  0.00  0.00    +0.045 A 
ATOM     14  C   UNL     1       2.380   1.409  -0.013  0.00  0.00    +0.117 A 
ATOM     15  C   UNL     1       2.396   0.022  -0.021  0.00  0.00    +0.045 A 
ATOM     16  C   UNL     1       1.207  -0.681  -0.013  0.00  0.00    +0.007 A 
ATOM     17  C   UNL     1       0.002  -0.004   0.002  0.00  0.00    -0.049 A 
BRANCH  14  18
ATOM     18  O   UNL     1       3.548   2.104  -0.021  0.00  0.00    -0.507 OA
ATOM     19  H   UNL     1       3.895   2.300   0.860  0.00  0.00    +0.292 HD
ENDBRANCH  14  18
ENDBRANCH  11  17
ENDBRANCH  10  11
ENDBRANCH   7  10
ENDBRANCH   1   7
BRANCH   2  20
ATOM     20  O   UNL     1      -4.404  -4.131  -2.118  0.00  0.00    -0.389 OA
ATOM     21  H   UNL     1      -5.151  -4.743  -2.077  0.00  0.00    +0.210 HD
ENDBRANCH   2  20
BRANCH   3  22
ATOM     22  O   UNL     1      -7.015  -2.965  -2.127  0.00  0.00    -0.387 OA
ATOM     23  H   UNL     1      -7.776  -2.561  -1.688  0.00  0.00    +0.210 HD
ENDBRANCH   3  22
BRANCH   4  24
ATOM     24  O   UNL     1      -6.502  -1.055  -4.109  0.00  0.00    -0.386 OA
ATOM     25  H   UNL     1      -7.321  -1.565  -4.180  0.00  0.00    +0.210 HD
ENDBRANCH   4  24
BRANCH   5  26
ATOM     26  C   UNL     1      -4.993   1.297  -3.514  0.00  0.00    +0.197 C 
BRANCH  26  27
ATOM     27  O   UNL     1      -3.815   2.100  -3.420  0.00  0.00    -0.346 OA
BRANCH  27  28
ATOM     28  C   UNL     1      -3.917   3.362  -4.083  0.00  0.00    +0.282 C 
ATOM     29  C   UNL     1      -2.538   4.025  -4.135  0.00  0.00    +0.201 C 
ATOM     30  C   UNL     1      -2.666   5.402  -4.793  0.00  0.00    +0.179 C 
ATOM     31  C   UNL     1      -3.684   6.237  -4.009  0.00  0.00    +0.177 C 
ATOM     32  C   UNL     1      -5.019   5.489  -3.963  0.00  0.00    +0.178 C 
ATOM     33  O   UNL     1      -4.823   4.204  -3.368  0.00  0.00    -0.341 OA
BRANCH  31  34
ATOM     34  O   UNL     1      -3.206   6.447  -2.679  0.00  0.00    -0.386 OA
ATOM     35  H   UNL     1      -2.360   6.913  -2.634  0.00  0.00    +0.210 HD
ENDBRANCH  31  34
BRANCH  30  36
ATOM     36  O   UNL     1      -1.397   6.058  -4.780  0.00  0.00    -0.386 OA
ATOM     37  H   UNL     1      -0.703   5.580  -5.254  0.00  0.00    +0.210 HD
ENDBRANCH  30  36
BRANCH  29  38
ATOM     38  O   UNL     1      -2.030   4.174  -2.807  0.00  0.00    -0.384 OA
ATOM     39  H   UNL     1      -1.927   3.339  -2.329  0.00  0.00    +0.210 HD
ENDBRANCH  29  38
BRANCH  32  40
ATOM     40  C   UNL     1      -6.024   6.288  -3.131  0.00  0.00    +0.190 C 
BRANCH  40  41
ATOM     41  O   UNL     1      -7.301   5.650  -3.184  0.00  0.00    -0.392 OA
ATOM     42  H   UNL     1      -7.989   6.103  -2.678  0.00  0.00    +0.210 HD
ENDBRANCH  40  41
ENDBRANCH  32  40
ENDBRANCH  27  28
ENDBRANCH  26  27
ENDBRANCH   5  26
TORSDOF 16
