REMARK  Name = ZINC01846623
REMARK  0 active torsions:
REMARK  status: ('A' for Active; 'I' for Inactive)
REMARK                            x       y       z     vdW  Elec       q    Type
REMARK                         _______ _______ _______ _____ _____    ______ ____
ROOT
ATOM      1  C   UNL     1      -0.018   1.505   0.010  0.00  0.00    +0.058 C 
ATOM      2  C   UNL     1       1.365   2.076   0.000  0.00  0.00    -0.026 C 
ATOM      3  C   UNL     1       2.378   1.412  -0.472  0.00  0.00    -0.026 C 
ATOM      4  C   UNL     1       2.226   0.035  -1.037  0.00  0.00    +0.058 C 
ATOM      5  C   UNL     1       1.016  -0.668  -0.471  0.00  0.00    -0.062 C 
ATOM      6  C   UNL     1       0.002  -0.004   0.002  0.00  0.00    -0.062 C 
ATOM      7  C   UNL     1      -1.208  -0.707   0.567  0.00  0.00    +0.058 C 
ATOM      8  C   UNL     1      -0.871  -2.084   1.048  0.00  0.00    -0.026 C 
ATOM      9  C   UNL     1       0.142  -2.747   0.575  0.00  0.00    -0.026 C 
ATOM     10  C   UNL     1       1.037  -2.177  -0.480  0.00  0.00    +0.058 C 
ENDROOT
TORSDOF 0
