REMARK  Name = ZINC64502511
REMARK  12 active torsions:
REMARK  status: ('A' for Active; 'I' for Inactive)
REMARK    1  A    between atoms: C_1  and  C_2
REMARK    2  A    between atoms: C_2  and  C_3
REMARK    3  A    between atoms: C_2  and  C_4
REMARK    4  A    between atoms: C_4  and  C_5
REMARK    5  A    between atoms: C_9  and  C_12
REMARK    6  A    between atoms: N_14  and  C_15
REMARK    7  A    between atoms: C_19  and  C_21
REMARK    8  A    between atoms: N_23  and  C_24
REMARK    9  A    between atoms: C_24  and  C_25
REMARK   10  A    between atoms: C_25  and  C_26
REMARK   11  A    between atoms: C_29  and  O_35
REMARK   12  A    between atoms: O_35  and  C_36
REMARK                            x       y       z     vdW  Elec       q    Type
REMARK                         _______ _______ _______ _____ _____    ______ ____
ROOT
ATOM      1  C   UNL     1      -3.824  -5.938   4.699  0.00  0.00    +0.034 A 
ATOM      2  C   UNL     1      -3.390  -5.101   5.720  0.00  0.00    +0.023 A 
ATOM      3  C   UNL     1      -3.801  -5.320   7.021  0.00  0.00    +0.003 A 
ATOM      4  C   UNL     1      -4.645  -6.372   7.316  0.00  0.00    +0.013 A 
ATOM      5  C   UNL     1      -5.087  -7.218   6.297  0.00  0.00    +0.038 A 
ATOM      6  C   UNL     1      -4.676  -6.993   4.983  0.00  0.00    +0.036 A 
ENDROOT
BRANCH   1   9
ATOM      7  C   UNL     1      -4.246  -5.949   2.357  0.00  0.00    +0.254 C 
ATOM      8  O   UNL     1      -5.335  -6.440   2.567  0.00  0.00    -0.272 OA
ATOM      9  N   UNL     1      -3.405  -5.711   3.383  0.00  0.00    -0.283 N 
ATOM     10  H   UNL     1      -2.508  -5.383   3.209  0.00  0.00    +0.155 HD
BRANCH   7  14
ATOM     11  C   UNL     1      -4.070  -6.785  -1.498  0.00  0.00    +0.187 C 
ATOM     12  N   UNL     1      -2.895  -7.055  -0.639  0.00  0.00    -0.177 NA
ATOM     13  N   UNL     1      -2.789  -6.529   0.452  0.00  0.00    -0.167 NA
ATOM     14  C   UNL     1      -3.834  -5.605   0.949  0.00  0.00    +0.272 C 
ATOM     15  S   UNL     1      -5.182  -5.979  -0.260  0.00  0.00    -0.095 S 
BRANCH  11  16
ATOM     16  C   UNL     1      -4.680  -8.082  -2.033  0.00  0.00    +0.042 C 
BRANCH  16  18
ATOM     17  C   UNL     1      -5.591  -6.939  -4.059  0.00  0.00    +0.007 C 
ATOM     18  C   UNL     1      -5.952  -7.762  -2.820  0.00  0.00    -0.014 C 
ATOM     19  C   UNL     1      -6.626  -9.066  -3.252  0.00  0.00    +0.007 C 
ENDBRANCH  16  18
ENDBRANCH  11  16
ENDBRANCH   7  14
ENDBRANCH   1   9
BRANCH   5  20
ATOM     20  C   UNL     1      -5.991  -8.345   6.609  0.00  0.00    +0.244 C 
ATOM     21  O   UNL     1      -6.374  -9.081   5.721  0.00  0.00    -0.270 OA
ATOM     22  N   UNL     1      -6.390  -8.557   7.879  0.00  0.00    -0.311 N 
ATOM     23  H   UNL     1      -6.085  -7.970   8.588  0.00  0.00    +0.149 HD
BRANCH  22  24
ATOM     24  C   UNL     1      -7.286  -9.674   8.188  0.00  0.00    +0.109 C 
BRANCH  24  25
ATOM     25  C   UNL     1      -7.582  -9.690   9.689  0.00  0.00    +0.052 C 
BRANCH  25  26
ATOM     26  C   UNL     1      -8.504 -10.839  10.007  0.00  0.00    -0.040 C 
ATOM     27  C   UNL     1      -8.149 -12.072  10.436  0.00  0.00    +0.002 A 
ATOM     28  C   UNL     1      -6.850 -12.689  10.723  0.00  0.00    +0.055 A 
ATOM     29  C   UNL     1      -6.802 -13.975  11.149  0.00  0.00    +0.121 A 
ATOM     30  C   UNL     1      -7.961 -14.749  11.328  0.00  0.00    +0.047 A 
ATOM     31  C   UNL     1      -9.201 -14.270  11.090  0.00  0.00    +0.029 A 
ATOM     32  C   UNL     1      -9.370 -12.889  10.625  0.00  0.00    +0.043 A 
ATOM     33  N   UNL     1     -10.436 -12.190  10.325  0.00  0.00    -0.380 N 
ATOM     34  C   UNL     1     -10.014 -10.845   9.917  0.00  0.00    +0.144 C 
ATOM     35  H   UNL     1     -11.351 -12.507  10.370  0.00  0.00    +0.160 HD
BRANCH  29  36
ATOM     36  O   UNL     1      -5.591 -14.534  11.411  0.00  0.00    -0.495 OA
ATOM     37  C   UNL     1      -5.587 -15.892  11.857  0.00  0.00    +0.277 C 
ENDBRANCH  29  36
ENDBRANCH  25  26
ENDBRANCH  24  25
ENDBRANCH  22  24
ENDBRANCH   5  20
TORSDOF 9
