REMARK  Name = ZINC38530238
REMARK  6 active torsions:
REMARK  status: ('A' for Active; 'I' for Inactive)
REMARK    1  A    between atoms: C_4  and  O_32
REMARK    2  A    between atoms: C_5  and  N_7
REMARK    3  A    between atoms: C_8  and  C_10
REMARK    4  A    between atoms: N_13  and  C_16
REMARK    5  A    between atoms: C_16  and  C_17
REMARK    6  A    between atoms: C_22  and  C_27
REMARK                            x       y       z     vdW  Elec       q    Type
REMARK                         _______ _______ _______ _____ _____    ______ ____
ROOT
ATOM      1  C   UNL     1       0.115  -4.277   0.192  0.00  0.00    +0.078 C 
ATOM      2  C   UNL     1       0.905  -4.687   1.437  0.00  0.00    +0.028 C 
ATOM      3  C   UNL     1       0.882  -6.212   1.571  0.00  0.00    +0.085 C 
ATOM      4  N   UNL     1      -0.507  -6.674   1.677  0.00  0.00    -0.295 NA
ATOM      5  C   UNL     1      -1.274  -6.333   0.471  0.00  0.00    +0.085 C 
ATOM      6  C   UNL     1      -1.315  -4.813   0.305  0.00  0.00    +0.028 C 
ENDROOT
BRANCH   1   8
ATOM      7  N   UNL     1       1.234  -2.082  -0.022  0.00  0.00    -0.282 N 
ATOM      8  C   UNL     1       0.083  -2.774   0.087  0.00  0.00    +0.220 C 
ATOM      9  O   UNL     1      -0.978  -2.188   0.102  0.00  0.00    -0.275 OA
ATOM     10  H   UNL     1       2.079  -2.554  -0.099  0.00  0.00    +0.155 HD
BRANCH   7  15
ATOM     11  C   UNL     1       0.134   1.378  -0.616  0.00  0.00    +0.002 A 
ATOM     12  C   UNL     1       1.167   2.089  -0.032  0.00  0.00    +0.004 A 
ATOM     13  C   UNL     1       2.224   1.421   0.557  0.00  0.00    +0.047 A 
ATOM     14  C   UNL     1       2.252   0.035   0.563  0.00  0.00    +0.138 A 
ATOM     15  C   UNL     1       1.212  -0.681  -0.025  0.00  0.00    +0.075 A 
ATOM     16  C   UNL     1       0.154  -0.004  -0.614  0.00  0.00    +0.027 A 
BRANCH  14  17
ATOM     17  O   UNL     1       3.292  -0.623   1.141  0.00  0.00    -0.505 OA
ATOM     18  H   UNL     1       3.160  -0.819   2.079  0.00  0.00    +0.292 HD
ENDBRANCH  14  17
ENDBRANCH   7  15
ENDBRANCH   1   8
BRANCH   4  19
ATOM     19  C   UNL     1      -0.563  -8.117   1.945  0.00  0.00    +0.158 C 
BRANCH  19  20
ATOM     20  C   UNL     1      -1.976  -8.510   2.289  0.00  0.00    +0.138 C 
ATOM     21  N   UNL     1      -2.907  -7.583   2.298  0.00  0.00    -0.160 NA
ATOM     22  C   UNL     1      -4.180  -7.861   2.594  0.00  0.00    +0.272 C 
ATOM     23  O   UNL     1      -5.028  -6.982   2.595  0.00  0.00    -0.268 OA
ATOM     24  C   UNL     1      -4.540  -9.269   2.920  0.00  0.00    +0.078 C 
ATOM     25  C   UNL     1      -5.795  -9.761   3.251  0.00  0.00    +0.020 C 
ATOM     26  C   UNL     1      -5.885 -11.243   3.539  0.00  0.00    +0.115 C 
ATOM     27  S   UNL     1      -4.138 -11.762   3.299  0.00  0.00    -0.100 S 
ATOM     28  C   UNL     1      -3.450 -10.180   2.878  0.00  0.00    +0.112 C 
ATOM     29  N   UNL     1      -2.236  -9.776   2.566  0.00  0.00    -0.226 NA
BRANCH  25  30
ATOM     30  C   UNL     1      -6.918  -8.929   3.315  0.00  0.00    +0.132 A 
ATOM     31  C   UNL     1      -8.037  -8.995   2.492  0.00  0.00    +0.049 A 
ATOM     32  C   UNL     1      -8.900  -7.981   2.913  0.00  0.00    +0.042 A 
ATOM     33  C   UNL     1      -8.299  -7.345   3.950  0.00  0.00    +0.195 A 
ATOM     34  O   UNL     1      -7.114  -7.919   4.191  0.00  0.00    -0.463 OA
ENDBRANCH  25  30
ENDBRANCH  19  20
ENDBRANCH   4  19
TORSDOF 6
