REMARK  Name = ZINC39228655
REMARK  4 active torsions:
REMARK  status: ('A' for Active; 'I' for Inactive)
REMARK    1  A    between atoms: C_8  and  C_29
REMARK    2  A    between atoms: N_10  and  C_16
REMARK    3  A    between atoms: C_16  and  C_17
REMARK    4  A    between atoms: N_19  and  C_20
REMARK                            x       y       z     vdW  Elec       q    Type
REMARK                         _______ _______ _______ _____ _____    ______ ____
ROOT
ATOM      1  C   UNL     1      -0.182   1.736  -1.558  0.00  0.00    +0.001 A 
ATOM      2  C   UNL     1      -0.101   0.353  -1.486  0.00  0.00    +0.002 A 
ATOM      3  C   UNL     1      -1.223  -0.403  -1.224  0.00  0.00    +0.026 A 
ATOM      4  C   UNL     1      -2.450   0.222  -1.031  0.00  0.00    +0.047 A 
ATOM      5  N   UNL     1      -3.718  -0.245  -0.761  0.00  0.00    -0.359 N 
ATOM      6  C   UNL     1      -4.588   0.801  -0.662  0.00  0.00    +0.011 A 
ATOM      7  H   UNL     1      -3.957  -1.179  -0.657  0.00  0.00    +0.166 HD
ATOM      8  C   UNL     1      -6.070   0.745  -0.373  0.00  0.00    +0.015 C 
ATOM      9  N   UNL     1      -6.513   2.079   0.061  0.00  0.00    +0.394 N 
ATOM     10  C   UNL     1      -6.103   3.095  -0.917  0.00  0.00    -0.072 C 
ATOM     11  C   UNL     1      -4.586   3.313  -0.825  0.00  0.00    +0.019 C 
ATOM     12  C   UNL     1      -3.925   1.959  -0.862  0.00  0.00    -0.022 A 
ATOM     13  C   UNL     1      -2.528   1.628  -1.106  0.00  0.00    +0.003 A 
ATOM     14  C   UNL     1      -1.376   2.373  -1.367  0.00  0.00    +0.010 A 
ATOM     15  H   UNL     1      -6.101   2.292   0.957  0.00  0.00    -0.080 HD
ENDROOT
BRANCH   8  16
ATOM     16  C   UNL     1      -6.814   0.342  -1.620  0.00  0.00    -0.008 A 
ATOM     17  C   UNL     1      -6.224   0.507  -2.860  0.00  0.00    +0.026 A 
ATOM     18  C   UNL     1      -6.904   0.137  -4.007  0.00  0.00    +0.045 A 
ATOM     19  C   UNL     1      -8.176  -0.399  -3.917  0.00  0.00    +0.069 A 
ATOM     20  C   UNL     1      -8.772  -0.567  -2.678  0.00  0.00    +0.168 A 
ATOM     21  C   UNL     1      -8.085  -0.200  -1.524  0.00  0.00    +0.168 A 
ATOM     22  O   UNL     1      -8.874  -0.468  -0.443  0.00  0.00    -0.452 OA
ATOM     23  C   UNL     1     -10.205  -0.627  -0.969  0.00  0.00    +0.466 C 
ATOM     24  O   UNL     1      -9.992  -1.063  -2.321  0.00  0.00    -0.453 OA
ATOM     25 CL   UNL     1      -6.159   0.348  -5.561  0.00  0.00    -0.083 Cl
ENDBRANCH   8  16
BRANCH   9  26
ATOM     26  C   UNL     1      -7.976   2.088   0.188  0.00  0.00    +0.020 C 
BRANCH  26  27
ATOM     27  C   UNL     1      -8.423   3.413   0.750  0.00  0.00    +0.201 C 
ATOM     28  O   UNL     1      -7.604   4.265   1.018  0.00  0.00    -0.278 OA
ATOM     29  N   UNL     1      -9.734   3.650   0.955  0.00  0.00    -0.287 N 
ATOM     30  H   UNL     1     -10.384   2.946   0.803  0.00  0.00    +0.155 HD
BRANCH  29  31
ATOM     31  C   UNL     1     -10.158   4.913   1.387  0.00  0.00    +0.037 A 
ATOM     32  C   UNL     1     -11.363   5.434   0.934  0.00  0.00    +0.027 A 
ATOM     33  C   UNL     1     -11.783   6.679   1.360  0.00  0.00    +0.051 A 
ATOM     34  C   UNL     1     -11.003   7.413   2.239  0.00  0.00    +0.166 A 
ATOM     35  C   UNL     1      -9.794   6.893   2.696  0.00  0.00    +0.168 A 
ATOM     36  C   UNL     1      -9.377   5.642   2.273  0.00  0.00    +0.072 A 
ATOM     37  O   UNL     1      -9.222   7.799   3.542  0.00  0.00    -0.453 OA
ATOM     38  C   UNL     1      -9.891   9.046   3.280  0.00  0.00    +0.466 C 
ATOM     39  O   UNL     1     -11.188   8.645   2.800  0.00  0.00    -0.453 OA
ENDBRANCH  29  31
ENDBRANCH  26  27
ENDBRANCH   9  26
TORSDOF 4
