REMARK  Name = ZINC39662519
REMARK  5 active torsions:
REMARK  status: ('A' for Active; 'I' for Inactive)
REMARK    1  A    between atoms: C_4  and  C_7
REMARK    2  A    between atoms: C_7  and  C_9
REMARK    3  A    between atoms: C_7  and  N_11
REMARK    4  A    between atoms: C_12  and  C_14
REMARK    5  A    between atoms: C_25  and  C_27
REMARK                            x       y       z     vdW  Elec       q    Type
REMARK                         _______ _______ _______ _____ _____    ______ ____
ROOT
ATOM      1  C   UNL     1       4.668  -3.585   2.299  0.00  0.00    +0.100 C 
ATOM      2  C   UNL     1       3.954  -3.212   3.618  0.00  0.00    +0.121 C 
ATOM      3  N   UNL     1       4.675  -3.977   4.663  0.00  0.00    -0.297 N 
ATOM      4  C   UNL     1       6.100  -3.897   4.261  0.00  0.00    +0.115 C 
ATOM      5  C   UNL     1       6.076  -4.033   2.725  0.00  0.00    -0.004 C 
ATOM      6  C   UNL     1       6.314  -5.484   2.320  0.00  0.00    -0.010 C 
ATOM      7  C   UNL     1       7.740  -5.889   2.703  0.00  0.00    -0.082 C 
ATOM      8  N   UNL     1       8.700  -5.008   2.027  0.00  0.00    +0.379 N 
ATOM      9  C   UNL     1       8.525  -3.626   2.491  0.00  0.00    -0.082 C 
ATOM     10  C   UNL     1       7.132  -3.126   2.099  0.00  0.00    -0.010 C 
ATOM     11  C   UNL     1       4.154  -4.603   5.736  0.00  0.00    +0.260 C 
ATOM     12  O   UNL     1       4.882  -5.191   6.508  0.00  0.00    -0.271 OA
ATOM     13  H   UNL     1       9.639  -5.314   2.232  0.00  0.00    -0.086 HD
ATOM     14  H   UNL     1       8.546  -5.048   1.030  0.00  0.00    -0.086 HD
ENDROOT
BRANCH  11  15
ATOM     15  C   UNL     1       2.667  -4.572   5.978  0.00  0.00    +0.296 C 
ATOM     16  C   UNL     1       2.220  -3.134   6.275  0.00  0.00    +0.283 C 
ATOM     17  O   UNL     1       0.808  -3.143   6.513  0.00  0.00    -0.484 OA
ATOM     18  C   UNL     1       0.335  -4.111   7.345  0.00  0.00    +0.162 A 
ATOM     19  C   UNL     1      -0.927  -3.970   7.903  0.00  0.00    +0.049 A 
ATOM     20  C   UNL     1      -1.423  -4.945   8.748  0.00  0.00    +0.004 A 
ATOM     21  C   UNL     1      -0.663  -6.063   9.039  0.00  0.00    +0.004 A 
ATOM     22  C   UNL     1       0.596  -6.208   8.488  0.00  0.00    +0.049 A 
ATOM     23  C   UNL     1       1.100  -5.232   7.640  0.00  0.00    +0.163 A 
ATOM     24  O   UNL     1       2.345  -5.386   7.111  0.00  0.00    -0.473 OA
ENDBRANCH  11  15
BRANCH   1  26
ATOM     25  N   UNL     1       4.779  -2.553   0.054  0.00  0.00    -0.296 N 
ATOM     26  C   UNL     1       4.751  -2.385   1.391  0.00  0.00    +0.219 C 
ATOM     27  O   UNL     1       4.794  -1.269   1.863  0.00  0.00    -0.275 OA
ATOM     28  H   UNL     1       4.745  -3.445  -0.324  0.00  0.00    +0.150 HD
BRANCH  25  29
ATOM     29  C   UNL     1       4.860  -1.386  -0.829  0.00  0.00    +0.207 C 
BRANCH  29  33
ATOM     30  C   UNL     1       3.210  -2.370  -4.645  0.00  0.00    +0.000 A 
ATOM     31  C   UNL     1       2.962  -1.131  -4.083  0.00  0.00    +0.000 A 
ATOM     32  C   UNL     1       3.495  -0.813  -2.848  0.00  0.00    +0.006 A 
ATOM     33  C   UNL     1       4.277  -1.734  -2.175  0.00  0.00    -0.013 A 
ATOM     34  C   UNL     1       4.524  -2.972  -2.736  0.00  0.00    +0.006 A 
ATOM     35  C   UNL     1       3.992  -3.290  -3.972  0.00  0.00    +0.000 A 
ENDBRANCH  29  33
BRANCH  29  36
ATOM     36  C   UNL     1       6.268  -0.991  -0.992  0.00  0.00    +0.090 C 
ATOM     37  N   UNL     1       7.355  -0.686  -1.117  0.00  0.00    -0.194 NA
ENDBRANCH  29  36
ENDBRANCH  25  29
ENDBRANCH   1  26
TORSDOF 5
