REMARK  Name = ZINC08616995
REMARK  6 active torsions:
REMARK  status: ('A' for Active; 'I' for Inactive)
REMARK    1  A    between atoms: C_10  and  C_11
REMARK    2  A    between atoms: N_12  and  N_13
REMARK    3  A    between atoms: N_13  and  C_14
REMARK    4  A    between atoms: C_14  and  N_16
REMARK    5  A    between atoms: N_16  and  N_17
REMARK    6  A    between atoms: C_18  and  C_19
REMARK                            x       y       z     vdW  Elec       q    Type
REMARK                         _______ _______ _______ _____ _____    ______ ____
ROOT
ATOM      1  C   UNL     1       1.469   2.177  -1.280  0.00  0.00    +0.170 C 
ATOM      2  S   UNL     1       1.625   3.814  -1.757  0.00  0.00    -0.016 S 
ENDROOT
BRANCH   1   3
ATOM      3  N   UNL     1       0.247   1.616  -1.187  0.00  0.00    -0.217 N 
ATOM      4  H   UNL     1      -0.537   2.113  -1.467  0.00  0.00    +0.176 HD
BRANCH   3   6
ATOM      5  C   UNL     1      -1.073  -0.193  -0.511  0.00  0.00    +0.138 C 
ATOM      6  N   UNL     1       0.111   0.313  -0.692  0.00  0.00    -0.188 NA
BRANCH   5  16
ATOM      7  C   UNL     1      -5.021  -3.131   1.032  0.00  0.00    +0.001 A 
ATOM      8  C   UNL     1      -4.924  -1.872   0.443  0.00  0.00    +0.001 A 
ATOM      9  C   UNL     1      -3.709  -1.334   0.139  0.00  0.00    +0.009 A 
ATOM     10  C   UNL     1      -2.542  -2.055   0.421  0.00  0.00    -0.009 A 
ATOM     11  C   UNL     1      -2.638  -3.334   1.020  0.00  0.00    -0.017 A 
ATOM     12  C   UNL     1      -3.908  -3.858   1.321  0.00  0.00    +0.008 A 
ATOM     13  C   UNL     1      -1.465  -4.054   1.303  0.00  0.00    +0.008 A 
ATOM     14  C   UNL     1      -0.243  -3.534   1.007  0.00  0.00    +0.001 A 
ATOM     15  C   UNL     1      -0.102  -2.287   0.414  0.00  0.00    +0.010 A 
ATOM     16  C   UNL     1      -1.219  -1.517   0.112  0.00  0.00    +0.002 A 
ENDBRANCH   5  16
ENDBRANCH   3   6
ENDBRANCH   1   3
BRANCH   1  17
ATOM     17  N   UNL     1       2.568   1.450  -0.998  0.00  0.00    -0.217 N 
ATOM     18  H   UNL     1       3.441   1.873  -0.991  0.00  0.00    +0.176 HD
BRANCH  17  19
ATOM     19  N   UNL     1       2.450   0.083  -0.716  0.00  0.00    -0.188 NA
ATOM     20  C   UNL     1       3.491  -0.595  -0.334  0.00  0.00    +0.138 C 
BRANCH  20  21
ATOM     21  C   UNL     1       4.743   0.104  -0.006  0.00  0.00    +0.002 A 
ATOM     22  C   UNL     1       4.726   1.427   0.421  0.00  0.00    +0.010 A 
ATOM     23  C   UNL     1       5.910   2.083   0.731  0.00  0.00    +0.001 A 
ATOM     24  C   UNL     1       7.120   1.468   0.630  0.00  0.00    +0.008 A 
ATOM     25  C   UNL     1       7.212   0.133   0.205  0.00  0.00    -0.017 A 
ATOM     26  C   UNL     1       6.030  -0.579  -0.116  0.00  0.00    -0.009 A 
ATOM     27  C   UNL     1       6.118  -1.909  -0.545  0.00  0.00    +0.009 A 
ATOM     28  C   UNL     1       7.339  -2.507  -0.640  0.00  0.00    +0.001 A 
ATOM     29  C   UNL     1       8.503  -1.811  -0.321  0.00  0.00    +0.001 A 
ATOM     30  C   UNL     1       8.454  -0.516   0.095  0.00  0.00    +0.008 A 
ENDBRANCH  20  21
ENDBRANCH  17  19
ENDBRANCH   1  17
TORSDOF 6
