REMARK  Name = ZINC09850967
REMARK  8 active torsions:
REMARK  status: ('A' for Active; 'I' for Inactive)
REMARK    1  A    between atoms: C_5  and  C_7
REMARK    2  A    between atoms: C_7  and  O_8
REMARK    3  A    between atoms: O_8  and  C_9
REMARK    4  A    between atoms: C_9  and  C_11
REMARK    5  A    between atoms: C_14  and  C_17
REMARK    6  A    between atoms: C_20  and  C_22
REMARK    7  A    between atoms: N_23  and  N_24
REMARK    8  A    between atoms: C_25  and  C_26
REMARK                            x       y       z     vdW  Elec       q    Type
REMARK                         _______ _______ _______ _____ _____    ______ ____
ROOT
ATOM      1  C   UNL     1      -5.433  -5.269   0.861  0.00  0.00    +0.136 A 
ATOM      2  C   UNL     1      -5.573  -6.617   1.099  0.00  0.00    +0.050 A 
ATOM      3  C   UNL     1      -6.942  -6.897   1.070  0.00  0.00    +0.051 A 
ATOM      4  C   UNL     1      -7.589  -5.703   0.814  0.00  0.00    +0.148 A 
ATOM      5  O   UNL     1      -6.659  -4.734   0.697  0.00  0.00    -0.454 OA
ENDROOT
BRANCH   1   9
ATOM      6  C   UNL     1      -1.766  -3.152   0.690  0.00  0.00    +0.059 A 
ATOM      7  C   UNL     1      -2.974  -2.474   0.501  0.00  0.00    +0.015 A 
ATOM      8  C   UNL     1      -4.156  -3.155   0.556  0.00  0.00    +0.012 A 
ATOM      9  C   UNL     1      -4.158  -4.533   0.801  0.00  0.00    +0.017 A 
ATOM     10  C   UNL     1      -2.949  -5.212   0.991  0.00  0.00    +0.012 A 
ATOM     11  C   UNL     1      -1.767  -4.531   0.930  0.00  0.00    +0.015 A 
BRANCH   6  12
ATOM     12  C   UNL     1      -0.490  -2.416   0.631  0.00  0.00    +0.339 C 
ATOM     13  O   UNL     1       0.560  -3.006   0.790  0.00  0.00    -0.245 OA
BRANCH  12  14
ATOM     14  O   UNL     1      -0.488  -1.089   0.400  0.00  0.00    -0.456 OA
BRANCH  14  15
ATOM     15  C   UNL     1       0.784  -0.439   0.356  0.00  0.00    +0.269 C 
BRANCH  15  20
ATOM     16  C   UNL     1      -0.865   2.890  -0.315  0.00  0.00    +0.000 A 
ATOM     17  C   UNL     1       0.231   3.729  -0.401  0.00  0.00    +0.001 A 
ATOM     18  C   UNL     1       1.506   3.220  -0.243  0.00  0.00    +0.020 A 
ATOM     19  C   UNL     1       1.686   1.870   0.002  0.00  0.00    +0.047 A 
ATOM     20  C   UNL     1       0.589   1.031   0.089  0.00  0.00    +0.008 A 
ATOM     21  C   UNL     1      -0.686   1.542  -0.070  0.00  0.00    +0.008 A 
ATOM     22 CL   UNL     1       3.287   1.229   0.200  0.00  0.00    -0.083 Cl
ENDBRANCH  15  20
ENDBRANCH  14  15
ENDBRANCH  12  14
ENDBRANCH   6  12
ENDBRANCH   1   9
BRANCH   4  23
ATOM     23  C   UNL     1      -8.988  -5.526   0.699  0.00  0.00    +0.178 C 
ATOM     24  N   UNL     1      -9.481  -4.335   0.452  0.00  0.00    -0.177 NA
BRANCH  24  25
ATOM     25  N   UNL     1     -10.757  -4.174   0.347  0.00  0.00    -0.262 N 
ATOM     26  C   UNL     1     -11.251  -2.979   0.100  0.00  0.00    +0.143 C 
ATOM     27  N   UNL     1     -10.405  -1.899  -0.047  0.00  0.00    -0.342 N 
ATOM     28  H   UNL     1      -9.446  -2.038  -0.095  0.00  0.00    +0.144 HD
ATOM     29  H   UNL     1     -10.769  -1.002  -0.103  0.00  0.00    +0.144 HD
ATOM     30  H   UNL     1     -11.351  -4.933   0.450  0.00  0.00    +0.190 HD
BRANCH  26  31
ATOM     31  C   UNL     1     -12.710  -2.795  -0.020  0.00  0.00    +0.187 A 
ATOM     32  C   UNL     1     -13.385  -1.677  -0.693  0.00  0.00    +0.191 A 
ATOM     33  N   UNL     1     -14.673  -1.857  -0.595  0.00  0.00    -0.033 NA
ATOM     34  O   UNL     1     -14.894  -3.059   0.121  0.00  0.00    -0.240 OA
ATOM     35  N   UNL     1     -13.628  -3.603   0.450  0.00  0.00    -0.044 NA
ATOM     36  N   UNL     1     -12.759  -0.611  -1.325  0.00  0.00    -0.339 N 
ATOM     37  H   UNL     1     -11.797  -0.618  -1.448  0.00  0.00    +0.144 HD
ATOM     38  H   UNL     1     -13.284   0.140  -1.643  0.00  0.00    +0.144 HD
ENDBRANCH  26  31
ENDBRANCH  24  25
ENDBRANCH   4  23
TORSDOF 8
