REMARK  Name = ZINC36013822
REMARK  13 active torsions:
REMARK  status: ('A' for Active; 'I' for Inactive)
REMARK    1  A    between atoms: C_1  and  C_2
REMARK    2  A    between atoms: C_2  and  N_3
REMARK    3  A    between atoms: C_4  and  C_25
REMARK    4  A    between atoms: C_5  and  C_20
REMARK    5  A    between atoms: C_6  and  C_11
REMARK    6  A    between atoms: C_14  and  C_17
REMARK    7  A    between atoms: C_17  and  C_18
REMARK    8  A    between atoms: C_17  and  C_19
REMARK    9  A    between atoms: C_20  and  O_22
REMARK   10  A    between atoms: O_22  and  C_23
REMARK   11  A    between atoms: C_23  and  C_24
REMARK   12  A    between atoms: C_25  and  N_26
REMARK   13  A    between atoms: C_32  and  C_34
REMARK                            x       y       z     vdW  Elec       q    Type
REMARK                         _______ _______ _______ _____ _____    ______ ____
ROOT
ATOM      1  N   UNL     1       2.997  -0.757   1.874  0.00  0.00    -0.258 N 
ATOM      2  C   UNL     1       4.146  -1.403   1.516  0.00  0.00    +0.041 C 
ATOM      3  C   UNL     1       4.724  -2.304   2.339  0.00  0.00    +0.080 C 
ATOM      4  C   UNL     1       4.055  -2.573   3.672  0.00  0.00    +0.144 C 
ATOM      5  N   UNL     1       2.820  -1.825   3.962  0.00  0.00    -0.288 N 
ATOM      6  C   UNL     1       2.367  -0.953   3.039  0.00  0.00    +0.307 C 
ATOM      7  O   UNL     1       1.351  -0.328   3.271  0.00  0.00    -0.252 OA
ATOM      8  H   UNL     1       2.346  -1.954   4.798  0.00  0.00    +0.151 HD
ENDROOT
BRANCH   4   9
ATOM      9  C   UNL     1       3.733  -4.044   3.741  0.00  0.00    -0.022 A 
ATOM     10  C   UNL     1       2.618  -4.539   3.092  0.00  0.00    +0.006 A 
ATOM     11  C   UNL     1       2.323  -5.888   3.155  0.00  0.00    +0.004 A 
ATOM     12  C   UNL     1       3.144  -6.742   3.868  0.00  0.00    -0.045 A 
ATOM     13  C   UNL     1       4.260  -6.247   4.516  0.00  0.00    +0.004 A 
ATOM     14  C   UNL     1       4.557  -4.899   4.449  0.00  0.00    +0.006 A 
BRANCH  12  15
ATOM     15  C   UNL     1       2.821  -8.212   3.938  0.00  0.00    +0.013 C 
ATOM     16  C   UNL     1       3.980  -9.017   3.345  0.00  0.00    +0.012 C 
ATOM     17  C   UNL     1       2.612  -8.620   5.397  0.00  0.00    +0.012 C 
ENDBRANCH  12  15
ENDBRANCH   4   9
BRANCH   1  19
ATOM     18  C   UNL     1       3.009   1.595   1.205  0.00  0.00    +0.025 C 
ATOM     19  C   UNL     1       2.424   0.208   0.932  0.00  0.00    +0.111 C 
ENDBRANCH   1  19
BRANCH   3  20
ATOM     20  C   UNL     1       5.914  -2.974   1.970  0.00  0.00    +0.339 C 
ATOM     21  O   UNL     1       5.863  -4.108   1.534  0.00  0.00    -0.245 OA
BRANCH  20  22
ATOM     22  O   UNL     1       7.106  -2.354   2.100  0.00  0.00    -0.462 OA
BRANCH  22  23
ATOM     23  C   UNL     1       8.266  -3.090   1.708  0.00  0.00    +0.229 C 
ATOM     24  C   UNL     1       9.513  -2.230   1.926  0.00  0.00    +0.048 C 
ENDBRANCH  22  23
ENDBRANCH  20  22
ENDBRANCH   3  20
BRANCH   2  25
ATOM     25  C   UNL     1       4.779  -1.105   0.181  0.00  0.00    +0.136 C 
BRANCH  25  26
ATOM     26  N   UNL     1       3.885  -1.552  -0.895  0.00  0.00    -0.294 NA
ATOM     27  C   UNL     1       3.741  -3.014  -0.887  0.00  0.00    +0.104 C 
ATOM     28  C   UNL     1       2.667  -3.424  -1.900  0.00  0.00    +0.123 C 
ATOM     29  N   UNL     1       3.010  -2.840  -3.206  0.00  0.00    -0.295 N 
ATOM     30  C   UNL     1       3.303  -1.400  -3.269  0.00  0.00    +0.123 C 
ATOM     31  C   UNL     1       4.352  -1.070  -2.202  0.00  0.00    +0.104 C 
ATOM     32  C   UNL     1       3.054  -3.604  -4.315  0.00  0.00    +0.253 C 
ATOM     33  O   UNL     1       2.771  -4.786  -4.252  0.00  0.00    -0.269 OA
BRANCH  32  34
ATOM     34  C   UNL     1       3.442  -3.012  -5.598  0.00  0.00    +0.074 A 
ATOM     35  C   UNL     1       4.113  -3.595  -6.663  0.00  0.00    +0.021 A 
ATOM     36  C   UNL     1       4.338  -2.779  -7.745  0.00  0.00    +0.008 A 
ATOM     37  C   UNL     1       3.903  -1.495  -7.705  0.00  0.00    +0.046 A 
ATOM     38  S   UNL     1       3.168  -1.356  -6.201  0.00  0.00    -0.092 S 
ENDBRANCH  32  34
ENDBRANCH  25  26
ENDBRANCH   2  25
TORSDOF 9
