REMARK  Name = ZINC64055449
REMARK  6 active torsions:
REMARK  status: ('A' for Active; 'I' for Inactive)
REMARK    1  A    between atoms: C_1  and  C_2
REMARK    2  A    between atoms: C_9  and  C_11
REMARK    3  A    between atoms: C_11  and  S_12
REMARK    4  A    between atoms: S_12  and  C_13
REMARK    5  A    between atoms: C_16  and  C_25
REMARK    6  A    between atoms: N_17  and  C_18
REMARK                            x       y       z     vdW  Elec       q    Type
REMARK                         _______ _______ _______ _____ _____    ______ ____
ROOT
ATOM      1  C   UNL     1       4.815  -7.295  -1.468  0.00  0.00    +0.197 A 
ATOM      2  N   UNL     1       4.806  -7.272  -2.792  0.00  0.00    -0.122 NA
ATOM      3  N   UNL     1       5.418  -8.302  -3.258  0.00  0.00    -0.128 NA
ATOM      4  C   UNL     1       5.859  -9.052  -2.257  0.00  0.00    +0.168 A 
ATOM      5  N   UNL     1       5.486  -8.418  -1.083  0.00  0.00    -0.270 N 
ENDROOT
BRANCH   4   6
ATOM      6  C   UNL     1       6.572 -10.255  -2.367  0.00  0.00    +0.025 C 
ATOM      7  C   UNL     1       6.965 -10.899  -3.540  0.00  0.00    +0.006 A 
ATOM      8  C   UNL     1       6.791 -10.583  -4.905  0.00  0.00    +0.010 A 
ATOM      9  C   UNL     1       7.292 -11.412  -5.857  0.00  0.00    +0.001 A 
ATOM     10  C   UNL     1       7.979 -12.581  -5.521  0.00  0.00    +0.002 A 
ATOM     11  C   UNL     1       8.183 -12.946  -4.231  0.00  0.00    +0.026 A 
ATOM     12  C   UNL     1       7.689 -12.129  -3.181  0.00  0.00    +0.043 A 
ATOM     13  N   UNL     1       7.754 -12.260  -1.871  0.00  0.00    -0.380 N 
ATOM     14  C   UNL     1       7.082 -11.122  -1.237  0.00  0.00    +0.152 C 
ATOM     15  H   UNL     1       8.182 -12.993  -1.400  0.00  0.00    +0.160 HD
ENDBRANCH   4   6
BRANCH   5  16
ATOM     16  C   UNL     1       5.741  -8.844   0.227  0.00  0.00    +0.051 A 
ATOM     17  C   UNL     1       7.046  -8.899   0.698  0.00  0.00    +0.028 A 
ATOM     18  C   UNL     1       7.296  -9.319   1.990  0.00  0.00    +0.022 A 
ATOM     19  C   UNL     1       6.247  -9.685   2.814  0.00  0.00    +0.041 A 
ATOM     20  C   UNL     1       4.945  -9.631   2.348  0.00  0.00    +0.022 A 
ATOM     21  C   UNL     1       4.690  -9.206   1.058  0.00  0.00    +0.028 A 
ATOM     22 CL   UNL     1       6.564 -10.213   4.437  0.00  0.00    -0.084 Cl
ENDBRANCH   5  16
BRANCH   1  23
ATOM     23  S   UNL     1       4.099  -6.091  -0.399  0.00  0.00    -0.076 S 
BRANCH  23  24
ATOM     24  C   UNL     1       3.372  -4.875  -1.533  0.00  0.00    +0.173 C 
BRANCH  24  32
ATOM     25  C   UNL     1      -0.019   1.526   0.010  0.00  0.00    +0.055 C 
ATOM     26  C   UNL     1       0.002  -0.004   0.002  0.00  0.00    +0.208 C 
ATOM     27  C   UNL     1       0.787  -0.541  -1.219  0.00  0.00    +0.122 C 
ATOM     28  C   UNL     1       1.507  -1.746  -0.643  0.00  0.00    +0.144 C 
ATOM     29  N   UNL     1       1.462  -1.668   0.642  0.00  0.00    -0.073 NA
ATOM     30  O   UNL     1       0.783  -0.516   1.101  0.00  0.00    -0.389 OA
ATOM     31  N   UNL     1       2.108  -2.755  -1.373  0.00  0.00    -0.270 N 
ATOM     32  C   UNL     1       2.717  -3.775  -0.737  0.00  0.00    +0.228 C 
ATOM     33  O   UNL     1       2.739  -3.808   0.475  0.00  0.00    -0.275 OA
ATOM     34  H   UNL     1       2.090  -2.729  -2.342  0.00  0.00    +0.156 HD
ENDBRANCH  24  32
ENDBRANCH  23  24
ENDBRANCH   1  23
TORSDOF 5
