REMARK  Name = ZINC22052624
REMARK  8 active torsions:
REMARK  status: ('A' for Active; 'I' for Inactive)
REMARK    1  A    between atoms: C_1  and  C_2
REMARK    2  A    between atoms: C_2  and  C_4
REMARK    3  A    between atoms: C_2  and  N_22
REMARK    4  A    between atoms: C_12  and  N_14
REMARK    5  A    between atoms: N_14  and  C_15
REMARK    6  A    between atoms: C_15  and  C_16
REMARK    7  A    between atoms: N_25  and  S_28
REMARK    8  A    between atoms: S_28  and  C_31
REMARK                            x       y       z     vdW  Elec       q    Type
REMARK                         _______ _______ _______ _____ _____    ______ ____
ROOT
ATOM      1  C   UNL     1       2.405   0.192  -0.209  0.00  0.00    +0.096 A 
ATOM      2  N   UNL     1       1.216  -0.361  -0.214  0.00  0.00    -0.344 N 
ATOM      3  C   UNL     1       0.116   0.392  -0.366  0.00  0.00    +0.051 A 
ATOM      4  C   UNL     1      -1.170  -0.165  -0.376  0.00  0.00    +0.026 A 
ATOM      5  C   UNL     1      -2.253   0.647  -0.532  0.00  0.00    +0.002 A 
ATOM      6  C   UNL     1      -2.104   2.022  -0.683  0.00  0.00    +0.001 A 
ATOM      7  C   UNL     1      -0.867   2.598  -0.674  0.00  0.00    +0.013 A 
ATOM      8  C   UNL     1       0.266   1.792  -0.520  0.00  0.00    +0.038 A 
ATOM      9  C   UNL     1       1.576   2.330  -0.506  0.00  0.00    +0.130 A 
ATOM     10  N   UNL     1       2.595   1.494  -0.349  0.00  0.00    -0.221 NA
ATOM     11  H   UNL     1       1.115  -1.450  -0.094  0.00  0.00    +0.167 HD
ENDROOT
BRANCH   1  13
ATOM     12  C   UNL     1       3.685  -1.177   1.414  0.00  0.00    -0.005 C 
ATOM     13  C   UNL     1       3.611  -0.696  -0.036  0.00  0.00    -0.004 C 
BRANCH  13  14
ATOM     14  N   UNL     1       3.498  -1.855  -0.931  0.00  0.00    +0.388 N 
ATOM     15  C   UNL     1       4.670  -2.732  -0.807  0.00  0.00    -0.060 C 
ATOM     16  C   UNL     1       4.433  -4.012  -1.615  0.00  0.00    +0.091 C 
ATOM     17  N   UNL     1       4.082  -3.637  -2.993  0.00  0.00    -0.180 NA
ATOM     18  C   UNL     1       3.006  -2.655  -3.193  0.00  0.00    +0.091 C 
ATOM     19  C   UNL     1       3.298  -1.428  -2.323  0.00  0.00    -0.060 C 
ATOM     20  H   UNL     1       2.613  -2.433  -0.629  0.00  0.00    -0.081 HD
BRANCH  17  21
ATOM     21  S   UNL     1       4.876  -4.303  -4.284  0.00  0.00    +0.061 S 
ATOM     22  O   UNL     1       5.405  -5.544  -3.839  0.00  0.00    -0.153 OA
ATOM     23  O   UNL     1       3.997  -4.205  -5.396  0.00  0.00    -0.153 OA
BRANCH  21  24
ATOM     24  C   UNL     1       6.255  -3.265  -4.639  0.00  0.00    +0.106 A 
ATOM     25  C   UNL     1       6.120  -2.218  -5.531  0.00  0.00    +0.030 A 
ATOM     26  C   UNL     1       7.200  -1.400  -5.806  0.00  0.00    +0.022 A 
ATOM     27  C   UNL     1       8.419  -1.637  -5.197  0.00  0.00    +0.041 A 
ATOM     28  C   UNL     1       8.555  -2.689  -4.308  0.00  0.00    +0.022 A 
ATOM     29  C   UNL     1       7.473  -3.502  -4.030  0.00  0.00    +0.030 A 
ATOM     30 CL   UNL     1       9.777  -0.614  -5.546  0.00  0.00    -0.084 Cl
ENDBRANCH  21  24
ENDBRANCH  17  21
ENDBRANCH  13  14
ENDBRANCH   1  13
BRANCH   9  31
ATOM     31  N   UNL     1       1.788   3.684  -0.652  0.00  0.00    -0.324 N 
ATOM     32  H   UNL     1       0.932   4.363  -0.781  0.00  0.00    +0.148 HD
BRANCH  31  33
ATOM     33  C   UNL     1       3.151   4.219  -0.635  0.00  0.00    +0.138 C 
BRANCH  33  34
ATOM     34  C   UNL     1       3.106   5.715  -0.812  0.00  0.00    -0.030 A 
ATOM     35  C   UNL     1       3.161   6.263  -2.080  0.00  0.00    +0.005 A 
ATOM     36  C   UNL     1       3.114   7.635  -2.243  0.00  0.00    +0.000 A 
ATOM     37  C   UNL     1       3.025   8.459  -1.137  0.00  0.00    +0.000 A 
ATOM     38  C   UNL     1       2.976   7.912   0.131  0.00  0.00    +0.000 A 
ATOM     39  C   UNL     1       3.017   6.539   0.294  0.00  0.00    +0.005 A 
ENDBRANCH  33  34
ENDBRANCH  31  33
ENDBRANCH   9  31
TORSDOF 7
