REMARK  Name = ZINC12190420
REMARK  13 active torsions:
REMARK  status: ('A' for Active; 'I' for Inactive)
REMARK    1  A    between atoms: C_1  and  C_2
REMARK    2  A    between atoms: C_2  and  C_3
REMARK    3  A    between atoms: C_2  and  C_4
REMARK    4  A    between atoms: C_4  and  C_5
REMARK    5  A    between atoms: C_5  and  C_7
REMARK    6  A    between atoms: C_5  and  N_28
REMARK    7  A    between atoms: C_16  and  C_17
REMARK    8  A    between atoms: C_16  and  N_73
REMARK    9  A    between atoms: C_20  and  C_22
REMARK   10  A    between atoms: C_22  and  N_75
REMARK   11  A    between atoms: C_29  and  C_31
REMARK   12  A    between atoms: C_31  and  O_32
REMARK   13  A    between atoms: O_32  and  C_33
REMARK                            x       y       z     vdW  Elec       q    Type
REMARK                         _______ _______ _______ _____ _____    ______ ____
ROOT
ATOM      1  C   UNL     1      -2.542  -7.863  -6.489  0.00  0.00    +0.154 A 
ATOM      2  N   UNL     1      -3.485  -7.173  -7.075  0.00  0.00    -0.132 NA
ATOM      3  N   UNL     1      -4.132  -6.488  -6.197  0.00  0.00    -0.134 NA
ATOM      4  C   UNL     1      -3.635  -6.715  -5.016  0.00  0.00    +0.132 A 
ATOM      5  N   UNL     1      -2.602  -7.579  -5.170  0.00  0.00    -0.315 N 
ATOM      6  C   UNL     1      -1.728  -8.073  -4.106  0.00  0.00    +0.106 C 
ATOM      7  C   UNL     1      -2.495  -8.068  -2.781  0.00  0.00    -0.056 C 
ATOM      8  C   UNL     1      -2.870  -5.667  -2.912  0.00  0.00    -0.071 C 
ATOM      9  C   UNL     1      -4.095  -6.148  -3.698  0.00  0.00    +0.058 C 
ATOM     10  N   UNL     1      -2.345  -6.772  -2.080  0.00  0.00    +0.384 N 
ATOM     11  H   UNL     1      -2.877  -6.806  -1.203  0.00  0.00    -0.081 HD
ENDROOT
BRANCH   1  12
ATOM     12  C   UNL     1      -1.569  -8.799  -7.159  0.00  0.00    +0.141 C 
BRANCH  12  13
ATOM     13  N   UNL     1      -2.288  -9.651  -8.110  0.00  0.00    -0.304 N 
ATOM     14  C   UNL     1      -1.752 -10.824  -8.502  0.00  0.00    +0.239 C 
ATOM     15  O   UNL     1      -0.723 -11.219  -7.998  0.00  0.00    -0.273 OA
ATOM     16  H   UNL     1      -3.149  -9.370  -8.457  0.00  0.00    +0.149 HD
BRANCH  14  17
ATOM     17  C   UNL     1      -2.433 -11.644  -9.568  0.00  0.00    +0.255 C 
BRANCH  17  18
ATOM     18  O   UNL     1      -1.679 -12.834  -9.807  0.00  0.00    -0.374 OA
ATOM     19  C   UNL     1      -2.241 -13.687 -10.806  0.00  0.00    +0.194 C 
ENDBRANCH  17  18
ENDBRANCH  14  17
ENDBRANCH  12  13
BRANCH  12  20
ATOM     20  C   UNL     1      -0.508  -7.986  -7.903  0.00  0.00    +0.033 C 
BRANCH  20  22
ATOM     21  C   UNL     1       1.120  -8.123  -6.012  0.00  0.00    +0.007 C 
ATOM     22  C   UNL     1       0.310  -7.173  -6.897  0.00  0.00    -0.015 C 
ATOM     23  C   UNL     1       1.262  -6.241  -7.649  0.00  0.00    +0.007 C 
ENDBRANCH  20  22
ENDBRANCH  12  20
ENDBRANCH   1  12
BRANCH  10  24
ATOM     24  C   UNL     1      -0.924  -6.532  -1.768  0.00  0.00    -0.036 C 
BRANCH  24  25
ATOM     25  C   UNL     1      -0.830  -5.344  -0.845  0.00  0.00    -0.027 A 
ATOM     26  C   UNL     1      -0.873  -5.310   0.509  0.00  0.00    +0.009 A 
ATOM     27  C   UNL     1      -0.766  -4.092   1.153  0.00  0.00    +0.009 A 
ATOM     28  C   UNL     1      -0.621  -2.967   0.411  0.00  0.00    -0.027 A 
ATOM     29  S   UNL     1      -0.639  -3.616  -1.252  0.00  0.00    -0.102 S 
BRANCH  28  30
ATOM     30  C   UNL     1      -0.485  -1.538   0.870  0.00  0.00    -0.036 C 
BRANCH  30  36
ATOM     31  C   UNL     1       1.127   0.220   1.283  0.00  0.00    -0.078 C 
ATOM     32  C   UNL     1       2.623   0.534   1.340  0.00  0.00    -0.019 C 
ATOM     33  C   UNL     1       3.264  -0.261   2.480  0.00  0.00    -0.004 C 
ATOM     34  C   UNL     1       3.009  -1.754   2.256  0.00  0.00    -0.019 C 
ATOM     35  C   UNL     1       1.501  -2.002   2.173  0.00  0.00    -0.078 C 
ATOM     36  N   UNL     1       0.949  -1.227   1.042  0.00  0.00    +0.383 N 
ATOM     37  H   UNL     1       1.451  -1.486   0.184  0.00  0.00    -0.081 HD
ENDBRANCH  30  36
ENDBRANCH  28  30
ENDBRANCH  24  25
ENDBRANCH  10  24
TORSDOF 10
