REMARK  Name = ZINC59488503
REMARK  9 active torsions:
REMARK  status: ('A' for Active; 'I' for Inactive)
REMARK    1  A    between atoms: C_1  and  C_2
REMARK    2  A    between atoms: C_2  and  C_3
REMARK    3  A    between atoms: C_3  and  C_4
REMARK    4  A    between atoms: C_4  and  C_5
REMARK    5  A    between atoms: C_8  and  N_11
REMARK    6  A    between atoms: C_12  and  C_23
REMARK    7  A    between atoms: C_26  and  O_29
REMARK    8  A    between atoms: O_29  and  C_30
REMARK    9  A    between atoms: C_30  and  C_31
REMARK                            x       y       z     vdW  Elec       q    Type
REMARK                         _______ _______ _______ _____ _____    ______ ____
ROOT
ATOM      1  N   UNL     1      -6.734  -4.027   0.045  0.00  0.00    -0.244 N 
ATOM      2  C   UNL     1      -7.455  -4.176  -1.220  0.00  0.00    +0.198 C 
ATOM      3  N   UNL     1      -8.887  -3.927  -1.022  0.00  0.00    -0.321 N 
ATOM      4  C   UNL     1      -9.514  -4.473   0.093  0.00  0.00    +0.041 A 
ATOM      5  C   UNL     1     -10.858  -4.804   0.085  0.00  0.00    +0.024 A 
ATOM      6  C   UNL     1     -11.439  -5.334   1.221  0.00  0.00    +0.002 A 
ATOM      7  C   UNL     1     -10.688  -5.536   2.368  0.00  0.00    +0.001 A 
ATOM      8  C   UNL     1      -9.346  -5.215   2.392  0.00  0.00    +0.015 A 
ATOM      9  C   UNL     1      -8.746  -4.685   1.252  0.00  0.00    +0.058 A 
ATOM     10  C   UNL     1      -7.310  -4.354   1.219  0.00  0.00    +0.254 C 
ATOM     11  O   UNL     1      -6.652  -4.372   2.241  0.00  0.00    -0.270 OA
ATOM     12  H   UNL     1      -9.388  -3.392  -1.657  0.00  0.00    +0.148 HD
ENDROOT
BRANCH   1  16
ATOM     13  C   UNL     1      -2.827  -2.583   0.016  0.00  0.00    -0.047 A 
ATOM     14  C   UNL     1      -3.848  -1.821  -0.522  0.00  0.00    +0.005 A 
ATOM     15  C   UNL     1      -5.144  -2.297  -0.514  0.00  0.00    +0.024 A 
ATOM     16  C   UNL     1      -5.422  -3.542   0.035  0.00  0.00    +0.039 A 
ATOM     17  C   UNL     1      -4.395  -4.305   0.574  0.00  0.00    +0.024 A 
ATOM     18  C   UNL     1      -3.099  -3.826   0.559  0.00  0.00    +0.005 A 
BRANCH  13  19
ATOM     19  C   UNL     1      -1.413  -2.061   0.006  0.00  0.00    +0.035 C 
BRANCH  19  20
ATOM     20  C   UNL     1      -0.719  -2.494  -1.286  0.00  0.00    +0.004 C 
BRANCH  20  22
ATOM     21  C   UNL     1       1.411  -2.397  -2.590  0.00  0.00    +0.004 C 
ATOM     22  C   UNL     1       0.716  -1.964  -1.297  0.00  0.00    -0.003 C 
ENDBRANCH  20  22
ENDBRANCH  19  20
ENDBRANCH  13  19
ENDBRANCH   1  16
BRANCH   2  23
ATOM     23  C   UNL     1      -7.263  -5.576  -1.742  0.00  0.00    -0.009 A 
ATOM     24  C   UNL     1      -6.101  -6.268  -1.451  0.00  0.00    +0.010 A 
ATOM     25  C   UNL     1      -5.922  -7.551  -1.929  0.00  0.00    +0.046 A 
ATOM     26  C   UNL     1      -6.909  -8.147  -2.701  0.00  0.00    +0.121 A 
ATOM     27  C   UNL     1      -8.074  -7.451  -2.991  0.00  0.00    +0.046 A 
ATOM     28  C   UNL     1      -8.250  -6.169  -2.506  0.00  0.00    +0.010 A 
BRANCH  26  29
ATOM     29  O   UNL     1      -6.735  -9.409  -3.173  0.00  0.00    -0.487 OA
BRANCH  29  30
ATOM     30  C   UNL     1      -7.793  -9.959  -3.961  0.00  0.00    +0.264 C 
BRANCH  30  31
ATOM     31  C   UNL     1      -7.425 -11.355  -4.392  0.00  0.00    -0.010 A 
ATOM     32  C   UNL     1      -6.742 -11.555  -5.577  0.00  0.00    +0.007 A 
ATOM     33  C   UNL     1      -6.404 -12.836  -5.973  0.00  0.00    +0.000 A 
ATOM     34  C   UNL     1      -6.749 -13.917  -5.183  0.00  0.00    +0.000 A 
ATOM     35  C   UNL     1      -7.431 -13.717  -3.997  0.00  0.00    +0.000 A 
ATOM     36  C   UNL     1      -7.765 -12.436  -3.599  0.00  0.00    +0.007 A 
ENDBRANCH  30  31
ENDBRANCH  29  30
ENDBRANCH  26  29
ENDBRANCH   2  23
TORSDOF 8
