REMARK  Name = ZINC36047341
REMARK  8 active torsions:
REMARK  status: ('A' for Active; 'I' for Inactive)
REMARK    1  A    between atoms: C_1  and  C_2
REMARK    2  A    between atoms: C_9  and  N_15
REMARK    3  A    between atoms: C_10  and  C_11
REMARK    4  A    between atoms: C_11  and  O_13
REMARK    5  A    between atoms: O_13  and  C_14
REMARK    6  A    between atoms: C_16  and  C_18
REMARK    7  A    between atoms: C_18  and  N_19
REMARK    8  A    between atoms: C_27  and  C_29
REMARK                            x       y       z     vdW  Elec       q    Type
REMARK                         _______ _______ _______ _____ _____    ______ ____
ROOT
ATOM      1  N   UNL     1       0.698  -5.847   2.435  0.00  0.00    -0.278 N 
ATOM      2  C   UNL     1       1.679  -6.094   3.325  0.00  0.00    +0.236 C 
ATOM      3  O   UNL     1       2.384  -5.189   3.717  0.00  0.00    -0.274 OA
ATOM      4  H   UNL     1       0.134  -6.571   2.121  0.00  0.00    +0.155 HD
ENDROOT
BRANCH   1  12
ATOM      5  C   UNL     1      -0.019   1.526   0.010  0.00  0.00    +0.008 C 
ATOM      6  C   UNL     1       0.002  -0.004   0.002  0.00  0.00    -0.009 C 
ATOM      7  C   UNL     1      -1.434  -0.537   0.019  0.00  0.00    +0.008 C 
ATOM      8  C   UNL     1      -1.432  -2.045  -0.237  0.00  0.00    +0.037 C 
ATOM      9  C   UNL     1      -0.464  -2.704   0.735  0.00  0.00    -0.021 A 
ATOM     10  C   UNL     1       0.485  -1.986   1.374  0.00  0.00    -0.004 A 
ATOM     11  S   UNL     1       1.344  -3.167   2.373  0.00  0.00    -0.077 S 
ATOM     12  C   UNL     1       0.494  -4.558   1.968  0.00  0.00    +0.086 A 
ATOM     13  C   UNL     1      -0.459  -4.120   1.061  0.00  0.00    +0.091 A 
ATOM     14  C   UNL     1       0.739  -0.515   1.248  0.00  0.00    +0.046 C 
BRANCH  13  15
ATOM     15  C   UNL     1      -1.419  -5.045   0.456  0.00  0.00    +0.342 C 
ATOM     16  O   UNL     1      -1.147  -5.610  -0.586  0.00  0.00    -0.245 OA
BRANCH  15  17
ATOM     17  O   UNL     1      -2.607  -5.272   1.056  0.00  0.00    -0.464 OA
ATOM     18  C   UNL     1      -3.495  -6.186   0.410  0.00  0.00    +0.280 C 
ENDBRANCH  15  17
ENDBRANCH  13  15
ENDBRANCH   1  12
BRANCH   2  19
ATOM     19  C   UNL     1       1.901  -7.496   3.832  0.00  0.00    +0.214 C 
BRANCH  19  20
ATOM     20  N   UNL     1       3.017  -7.501   4.781  0.00  0.00    -0.215 N 
ATOM     21  C   UNL     1       4.306  -7.690   4.433  0.00  0.00    +0.247 C 
ATOM     22  O   UNL     1       4.746  -7.880   3.320  0.00  0.00    -0.273 OA
ATOM     23  C   UNL     1       5.088  -7.614   5.725  0.00  0.00    +0.115 C 
ATOM     24  C   UNL     1       5.805  -8.932   5.991  0.00  0.00    +0.035 C 
ATOM     25  C   UNL     1       6.565  -8.845   7.317  0.00  0.00    +0.003 C 
ATOM     26  C   UNL     1       7.577  -7.699   7.249  0.00  0.00    +0.000 C 
ATOM     27  C   UNL     1       6.840  -6.380   7.005  0.00  0.00    +0.006 C 
ATOM     28  C   UNL     1       6.082  -6.458   5.678  0.00  0.00    +0.018 C 
ATOM     29  C   UNL     1       5.329  -5.147   5.443  0.00  0.00    +0.010 C 
ATOM     30  N   UNL     1       4.063  -7.370   6.748  0.00  0.00    -0.285 N 
ATOM     31  C   UNL     1       2.884  -7.314   6.100  0.00  0.00    +0.310 C 
ATOM     32  O   UNL     1       1.818  -7.120   6.651  0.00  0.00    -0.252 OA
ATOM     33  H   UNL     1       4.207  -7.266   7.701  0.00  0.00    +0.151 HD
ENDBRANCH  19  20
ENDBRANCH   2  19
TORSDOF 5
