REMARK  Name = ZINC34931186
REMARK  11 active torsions:
REMARK  status: ('A' for Active; 'I' for Inactive)
REMARK    1  A    between atoms: C_1  and  C_2
REMARK    2  A    between atoms: C_2  and  C_3
REMARK    3  A    between atoms: C_3  and  C_5
REMARK    4  A    between atoms: C_3  and  C_6
REMARK    5  A    between atoms: C_6  and  C_8
REMARK    6  A    between atoms: C_6  and  N_24
REMARK    7  A    between atoms: N_10  and  C_11
REMARK    8  A    between atoms: C_11  and  C_12
REMARK    9  A    between atoms: C_11  and  C_18
REMARK   10  A    between atoms: N_24  and  S_25
REMARK   11  A    between atoms: S_25  and  C_28
REMARK                            x       y       z     vdW  Elec       q    Type
REMARK                         _______ _______ _______ _____ _____    ______ ____
ROOT
ATOM      1  C   UNL     1      -1.773   0.003   1.488  0.00  0.00    +0.165 C 
ENDROOT
BRANCH   1   2
ATOM      2  C   UNL     1      -2.945  -0.929   1.655  0.00  0.00    +0.233 C 
ATOM      3  O   UNL     1      -4.068  -0.480   1.744  0.00  0.00    -0.274 OA
ATOM      4  N   UNL     1      -2.745  -2.261   1.707  0.00  0.00    -0.303 N 
ATOM      5  H   UNL     1      -1.843  -2.616   1.695  0.00  0.00    +0.150 HD
BRANCH   4   6
ATOM      6  C   UNL     1      -3.891  -3.171   1.780  0.00  0.00    +0.134 C 
BRANCH   6   7
ATOM      7  C   UNL     1      -4.403  -3.447   0.390  0.00  0.00    -0.023 A 
ATOM      8  C   UNL     1      -3.512  -3.637  -0.650  0.00  0.00    +0.006 A 
ATOM      9  C   UNL     1      -3.982  -3.890  -1.925  0.00  0.00    +0.000 A 
ATOM     10  C   UNL     1      -5.343  -3.954  -2.160  0.00  0.00    +0.000 A 
ATOM     11  C   UNL     1      -6.234  -3.765  -1.120  0.00  0.00    +0.000 A 
ATOM     12  C   UNL     1      -5.764  -3.516   0.156  0.00  0.00    +0.006 A 
ENDBRANCH   6   7
BRANCH   6  13
ATOM     13  C   UNL     1      -3.463  -4.465   2.424  0.00  0.00    -0.023 A 
ATOM     14  C   UNL     1      -2.231  -5.013   2.122  0.00  0.00    +0.006 A 
ATOM     15  C   UNL     1      -1.839  -6.200   2.713  0.00  0.00    +0.000 A 
ATOM     16  C   UNL     1      -2.680  -6.838   3.606  0.00  0.00    +0.000 A 
ATOM     17  C   UNL     1      -3.912  -6.289   3.909  0.00  0.00    +0.000 A 
ATOM     18  C   UNL     1      -4.301  -5.100   3.322  0.00  0.00    +0.006 A 
ENDBRANCH   6  13
ENDBRANCH   4   6
ENDBRANCH   1   2
BRANCH   1  19
ATOM     19  C   UNL     1      -1.526   0.249  -0.002  0.00  0.00    +0.013 C 
ATOM     20  C   UNL     1      -1.294  -1.088  -0.709  0.00  0.00    +0.009 C 
BRANCH  19  22
ATOM     21  C   UNL     1      -0.585   2.531   0.386  0.00  0.00    +0.004 C 
ATOM     22  C   UNL     1      -0.293   1.138  -0.175  0.00  0.00    +0.002 C 
ENDBRANCH  19  22
ENDBRANCH   1  19
BRANCH   1  23
ATOM     23  N   UNL     1      -2.062   1.276   2.152  0.00  0.00    -0.178 NA
ATOM     24  H   UNL     1      -2.554   1.968   1.682  0.00  0.00    +0.149 HD
BRANCH  23  25
ATOM     25  S   UNL     1      -1.550   1.535   3.705  0.00  0.00    +0.059 S 
ATOM     26  O   UNL     1      -1.904   2.872   4.032  0.00  0.00    -0.153 OA
ATOM     27  O   UNL     1      -1.992   0.422   4.469  0.00  0.00    -0.153 OA
BRANCH  25  28
ATOM     28  C   UNL     1       0.210   1.469   3.691  0.00  0.00    +0.105 A 
ATOM     29  C   UNL     1       0.857   0.251   3.785  0.00  0.00    +0.029 A 
ATOM     30  C   UNL     1       2.238   0.199   3.773  0.00  0.00    +0.017 A 
ATOM     31  C   UNL     1       2.974   1.366   3.668  0.00  0.00    +0.018 A 
ATOM     32  C   UNL     1       2.326   2.584   3.575  0.00  0.00    +0.017 A 
ATOM     33  C   UNL     1       0.945   2.635   3.581  0.00  0.00    +0.029 A 
ATOM     34 BR   UNL     1       4.863   1.295   3.653  0.00  0.00    -0.050 Br
ENDBRANCH  25  28
ENDBRANCH  23  25
ENDBRANCH   1  23
TORSDOF 9
