REMARK  Name = ZINC59020281
REMARK  11 active torsions:
REMARK  status: ('A' for Active; 'I' for Inactive)
REMARK    1  A    between atoms: C_1  and  C_2
REMARK    2  A    between atoms: C_2  and  O_3
REMARK    3  A    between atoms: O_3  and  C_4
REMARK    4  A    between atoms: C_4  and  C_6
REMARK    5  A    between atoms: C_10  and  N_11
REMARK    6  A    between atoms: C_12  and  C_14
REMARK    7  A    between atoms: C_14  and  S_15
REMARK    8  A    between atoms: S_15  and  C_16
REMARK    9  A    between atoms: N_21  and  N_22
REMARK   10  A    between atoms: C_23  and  C_24
REMARK   11  A    between atoms: C_23  and  C_25
REMARK                            x       y       z     vdW  Elec       q    Type
REMARK                         _______ _______ _______ _____ _____    ______ ____
ROOT
ATOM      1  C   UNL     1       8.268   1.248   2.014  0.00  0.00    +0.173 C 
ENDROOT
BRANCH   1   3
ATOM      2  N   UNL     1       6.705   2.478   3.484  0.00  0.00    -0.279 N 
ATOM      3  C   UNL     1       7.668   1.542   3.364  0.00  0.00    +0.228 C 
ATOM      4  O   UNL     1       8.052   0.938   4.343  0.00  0.00    -0.275 OA
ATOM      5  H   UNL     1       6.398   2.961   2.701  0.00  0.00    +0.155 HD
BRANCH   2  10
ATOM      6  C   UNL     1       5.163   3.668   5.038  0.00  0.00    +0.091 A 
ATOM      7  C   UNL     1       4.751   3.756   6.428  0.00  0.00    -0.021 A 
ATOM      8  C   UNL     1       5.409   2.913   7.253  0.00  0.00    -0.004 A 
ATOM      9  S   UNL     1       6.532   2.040   6.201  0.00  0.00    -0.077 S 
ATOM     10  C   UNL     1       6.153   2.748   4.727  0.00  0.00    +0.086 A 
ATOM     11  C   UNL     1       5.215   2.766   8.731  0.00  0.00    +0.043 C 
ATOM     12  C   UNL     1       4.423   3.981   9.236  0.00  0.00    +0.005 C 
ATOM     13  C   UNL     1       3.213   4.198   8.322  0.00  0.00    +0.005 C 
ATOM     14  C   UNL     1       3.678   4.698   6.953  0.00  0.00    +0.037 C 
BRANCH   6  15
ATOM     15  C   UNL     1       4.553   4.511   4.007  0.00  0.00    +0.342 C 
ATOM     16  O   UNL     1       3.565   4.126   3.412  0.00  0.00    -0.245 OA
BRANCH  15  17
ATOM     17  O   UNL     1       5.088   5.715   3.718  0.00  0.00    -0.461 OA
BRANCH  17  19
ATOM     18  C   UNL     1       5.185   7.809   2.514  0.00  0.00    +0.048 C 
ATOM     19  C   UNL     1       4.442   6.485   2.702  0.00  0.00    +0.229 C 
ENDBRANCH  17  19
ENDBRANCH  15  17
ENDBRANCH   6  15
ENDBRANCH   2  10
ENDBRANCH   1   3
BRANCH   1  20
ATOM     20  S   UNL     1       9.527  -0.048   2.180  0.00  0.00    -0.075 S 
BRANCH  20  21
ATOM     21  C   UNL     1      10.125  -0.275   0.539  0.00  0.00    +0.211 A 
ATOM     22  N   UNL     1      11.071  -1.145   0.170  0.00  0.00    -0.186 NA
ATOM     23  C   UNL     1      11.275  -1.054  -1.127  0.00  0.00    +0.232 A 
ATOM     24  N   UNL     1      10.447  -0.106  -1.614  0.00  0.00    -0.245 N 
ATOM     25  N   UNL     1       9.710   0.378  -0.521  0.00  0.00    -0.144 NA
ATOM     26  N   UNL     1      12.180  -1.798  -1.862  0.00  0.00    -0.205 N 
ATOM     27  H   UNL     1      12.260  -1.658  -2.819  0.00  0.00    +0.177 HD
ATOM     28  H   UNL     1      10.372   0.182  -2.537  0.00  0.00    +0.192 HD
BRANCH  26  29
ATOM     29  N   UNL     1      12.982  -2.754  -1.225  0.00  0.00    -0.184 NA
ATOM     30  C   UNL     1      13.910  -3.370  -1.891  0.00  0.00    +0.063 C 
ATOM     31  C   UNL     1      14.646  -4.527  -1.264  0.00  0.00    +0.068 C 
BRANCH  30  32
ATOM     32  C   UNL     1      14.245  -2.939  -3.261  0.00  0.00    -0.003 A 
ATOM     33  C   UNL     1      14.226  -1.583  -3.594  0.00  0.00    +0.010 A 
ATOM     34  C   UNL     1      14.541  -1.187  -4.877  0.00  0.00    +0.001 A 
ATOM     35  C   UNL     1      14.874  -2.129  -5.833  0.00  0.00    +0.000 A 
ATOM     36  C   UNL     1      14.895  -3.475  -5.511  0.00  0.00    +0.001 A 
ATOM     37  C   UNL     1      14.588  -3.885  -4.230  0.00  0.00    +0.010 A 
ENDBRANCH  30  32
ENDBRANCH  26  29
ENDBRANCH  20  21
ENDBRANCH   1  20
TORSDOF 9
