REMARK  Name = ZINC30977846
REMARK  14 active torsions:
REMARK  status: ('A' for Active; 'I' for Inactive)
REMARK    1  A    between atoms: C_1  and  C_2
REMARK    2  A    between atoms: C_2  and  C_3
REMARK    3  A    between atoms: C_2  and  C_4
REMARK    4  A    between atoms: C_2  and  C_5
REMARK    5  A    between atoms: C_8  and  C_11
REMARK    6  A    between atoms: C_13  and  C_16
REMARK    7  A    between atoms: C_16  and  N_17
REMARK    8  A    between atoms: C_20  and  C_23
REMARK    9  A    between atoms: N_25  and  C_26
REMARK   10  A    between atoms: C_26  and  C_27
REMARK   11  A    between atoms: C_27  and  C_28
REMARK   12  A    between atoms: C_28  and  S_29
REMARK   13  A    between atoms: S_29  and  C_30
REMARK   14  A    between atoms: C_30  and  C_31
REMARK                            x       y       z     vdW  Elec       q    Type
REMARK                         _______ _______ _______ _____ _____    ______ ____
ROOT
ATOM      1  N   UNL     1      -1.985   6.088   1.323  0.00  0.00    +0.386 N 
ATOM      2  C   UNL     1      -2.679   5.646   0.107  0.00  0.00    -0.077 C 
ATOM      3  C   UNL     1      -2.664   4.118   0.037  0.00  0.00    -0.006 C 
ATOM      4  C   UNL     1      -1.214   3.626   0.028  0.00  0.00    +0.071 C 
ATOM      5  C   UNL     1      -0.501   4.140   1.281  0.00  0.00    -0.006 C 
ATOM      6  C   UNL     1      -0.578   5.668   1.315  0.00  0.00    -0.077 C 
ATOM      7  H   UNL     1      -2.474   5.606   2.182  0.00  0.00    -0.081 HD
ENDROOT
BRANCH   4   8
ATOM      8  C   UNL     1      -1.194   2.119   0.019  0.00  0.00    +0.216 C 
ATOM      9  O   UNL     1      -2.236   1.498   0.021  0.00  0.00    -0.276 OA
ATOM     10  N   UNL     1      -0.018   1.461   0.010  0.00  0.00    -0.315 N 
ATOM     11  H   UNL     1       0.927   2.024   0.009  0.00  0.00    +0.149 HD
BRANCH  10  12
ATOM     12  C   UNL     1       0.002  -0.004   0.002  0.00  0.00    +0.105 C 
BRANCH  12  13
ATOM     13  C   UNL     1       1.451  -0.494  -0.015  0.00  0.00    +0.029 C 
BRANCH  13  14
ATOM     14  C   UNL     1       1.472  -2.024  -0.023  0.00  0.00    +0.071 C 
BRANCH  14  15
ATOM     15  S   UNL     1       3.190  -2.606  -0.042  0.00  0.00    -0.156 S 
BRANCH  15  16
ATOM     16  C   UNL     1       3.042  -4.413  -0.051  0.00  0.00    +0.104 C 
BRANCH  16  17
ATOM     17  C   UNL     1       4.417  -5.030  -0.067  0.00  0.00    -0.037 A 
ATOM     18  C   UNL     1       5.033  -5.312  -1.272  0.00  0.00    +0.007 A 
ATOM     19  C   UNL     1       6.296  -5.873  -1.288  0.00  0.00    +0.038 A 
ATOM     20  C   UNL     1       6.939  -6.163  -0.097  0.00  0.00    +0.123 A 
ATOM     21  C   UNL     1       6.319  -5.886   1.109  0.00  0.00    +0.038 A 
ATOM     22  C   UNL     1       5.058  -5.319   1.123  0.00  0.00    +0.007 A 
ATOM     23  F   UNL     1       8.172  -6.716  -0.112  0.00  0.00    -0.205 F 
ENDBRANCH  16  17
ENDBRANCH  15  16
ENDBRANCH  14  15
ENDBRANCH  13  14
ENDBRANCH  12  13
ENDBRANCH  10  12
ENDBRANCH   4   8
BRANCH   1  24
ATOM     24  C   UNL     1      -2.099   7.543   1.495  0.00  0.00    +0.022 C 
BRANCH  24  27
ATOM     25  C   UNL     1      -0.386   8.517   4.502  0.00  0.00    +0.202 A 
ATOM     26  N   UNL     1      -0.365   8.249   3.176  0.00  0.00    -0.193 NA
ATOM     27  C   UNL     1      -1.595   7.928   2.862  0.00  0.00    +0.211 A 
ATOM     28  O   UNL     1      -2.322   8.012   3.981  0.00  0.00    -0.340 OA
ATOM     29  N   UNL     1      -1.616   8.344   4.910  0.00  0.00    -0.056 NA
BRANCH  25  33
ATOM     30  C   UNL     1       2.927   9.695   6.893  0.00  0.00    -0.042 A 
ATOM     31  C   UNL     1       1.677   9.554   7.469  0.00  0.00    +0.005 A 
ATOM     32  C   UNL     1       0.598   9.171   6.697  0.00  0.00    +0.012 A 
ATOM     33  C   UNL     1       0.770   8.928   5.336  0.00  0.00    +0.022 A 
ATOM     34  C   UNL     1       2.032   9.067   4.762  0.00  0.00    +0.012 A 
ATOM     35  C   UNL     1       3.103   9.454   5.542  0.00  0.00    +0.005 A 
BRANCH  30  37
ATOM     36  C   UNL     1       4.318   9.083   8.852  0.00  0.00    +0.015 C 
ATOM     37  C   UNL     1       4.101  10.112   7.741  0.00  0.00    -0.013 C 
ATOM     38  C   UNL     1       5.356  10.193   6.869  0.00  0.00    +0.015 C 
ATOM     39  C   UNL     1       3.821  11.482   8.361  0.00  0.00    +0.015 C 
ENDBRANCH  30  37
ENDBRANCH  25  33
ENDBRANCH  24  27
ENDBRANCH   1  24
TORSDOF 11
