REMARK  Name = ZINC10988946
REMARK  8 active torsions:
REMARK  status: ('A' for Active; 'I' for Inactive)
REMARK    1  A    between atoms: C_7  and  C_11
REMARK    2  A    between atoms: C_11  and  C_12
REMARK    3  A    between atoms: C_12  and  N_13
REMARK    4  A    between atoms: C_14  and  C_16
REMARK    5  A    between atoms: C_16  and  N_56
REMARK    6  A    between atoms: C_19  and  N_22
REMARK    7  A    between atoms: N_22  and  S_23
REMARK    8  A    between atoms: S_23  and  C_26
REMARK                            x       y       z     vdW  Elec       q    Type
REMARK                         _______ _______ _______ _____ _____    ______ ____
ROOT
ATOM      1  C   UNL     1      -3.116   6.756  -3.134  0.00  0.00    +0.019 C 
ENDROOT
BRANCH   1   7
ATOM      2  C   UNL     1      -3.726   4.424  -3.348  0.00  0.00    -0.077 C 
ATOM      3  C   UNL     1      -3.395   3.011  -2.861  0.00  0.00    +0.002 C 
ATOM      4  C   UNL     1      -1.982   2.638  -3.316  0.00  0.00    +0.073 C 
ATOM      5  C   UNL     1      -0.990   3.669  -2.772  0.00  0.00    +0.002 C 
ATOM      6  C   UNL     1      -1.391   5.063  -3.262  0.00  0.00    -0.077 C 
ATOM      7  N   UNL     1      -2.750   5.372  -2.770  0.00  0.00    +0.385 N 
ATOM      8  H   UNL     1      -2.763   5.281  -1.748  0.00  0.00    -0.081 HD
BRANCH   4   9
ATOM      9  N   UNL     1      -1.637   1.309  -2.803  0.00  0.00    -0.187 NA
ATOM     10  H   UNL     1      -1.958   1.028  -1.932  0.00  0.00    +0.148 HD
BRANCH   9  11
ATOM     11  S   UNL     1      -0.700   0.289  -3.710  0.00  0.00    +0.065 S 
ATOM     12  O   UNL     1      -0.523  -0.892  -2.940  0.00  0.00    -0.153 OA
ATOM     13  O   UNL     1      -1.264   0.271  -5.014  0.00  0.00    -0.153 OA
BRANCH  11  14
ATOM     14  C   UNL     1       0.889   1.036  -3.859  0.00  0.00    +0.142 A 
ATOM     15  C   UNL     1       1.972   0.906  -3.054  0.00  0.00    +0.036 A 
ATOM     16  C   UNL     1       3.128   1.595  -3.370  0.00  0.00    +0.010 A 
ATOM     17  C   UNL     1       3.145   2.380  -4.475  0.00  0.00    +0.047 A 
ATOM     18  S   UNL     1       1.493   2.154  -5.113  0.00  0.00    -0.077 S 
ENDBRANCH  11  14
ENDBRANCH   9  11
ENDBRANCH   4   9
ENDBRANCH   1   7
BRANCH   1  20
ATOM     19  N   UNL     1      -4.993   8.302  -2.682  0.00  0.00    -0.317 N 
ATOM     20  C   UNL     1      -4.395   7.122  -2.426  0.00  0.00    +0.196 C 
ATOM     21  O   UNL     1      -4.887   6.353  -1.627  0.00  0.00    -0.278 OA
ATOM     22  H   UNL     1      -4.600   8.917  -3.321  0.00  0.00    +0.149 HD
BRANCH  19  23
ATOM     23  C   UNL     1      -6.237   8.657  -1.994  0.00  0.00    +0.109 C 
BRANCH  23  24
ATOM     24  C   UNL     1      -6.702  10.038  -2.461  0.00  0.00    +0.056 C 
BRANCH  24  31
ATOM     25  C   UNL     1      -7.620  12.007   1.693  0.00  0.00    +0.001 A 
ATOM     26  C   UNL     1      -8.980  12.155   1.932  0.00  0.00    +0.002 A 
ATOM     27  C   UNL     1      -9.906  11.744   0.999  0.00  0.00    +0.026 A 
ATOM     28  C   UNL     1      -9.478  11.174  -0.195  0.00  0.00    +0.047 A 
ATOM     29  C   UNL     1      -8.100  11.025  -0.433  0.00  0.00    +0.003 A 
ATOM     30  C   UNL     1      -7.178  11.449   0.527  0.00  0.00    +0.010 A 
ATOM     31  C   UNL     1      -7.981  10.403  -1.754  0.00  0.00    -0.021 A 
ATOM     32  C   UNL     1      -9.229  10.226  -2.217  0.00  0.00    +0.087 A 
ATOM     33  N   UNL     1     -10.136  10.675  -1.297  0.00  0.00    -0.360 N 
ATOM     34  H   UNL     1     -11.100  10.651  -1.407  0.00  0.00    +0.165 HD
ENDBRANCH  24  31
ENDBRANCH  23  24
ENDBRANCH  19  23
ENDBRANCH   1  20
TORSDOF 8
