REMARK  Name = ZINC62447626
REMARK  6 active torsions:
REMARK  status: ('A' for Active; 'I' for Inactive)
REMARK    1  A    between atoms: C_1  and  C_2
REMARK    2  A    between atoms: N_10  and  S_16
REMARK    3  A    between atoms: C_11  and  C_13
REMARK    4  A    between atoms: C_13  and  C_14
REMARK    5  A    between atoms: C_13  and  C_15
REMARK    6  A    between atoms: S_16  and  C_19
REMARK                            x       y       z     vdW  Elec       q    Type
REMARK                         _______ _______ _______ _____ _____    ______ ____
ROOT
ATOM      1  S   UNL     1      -1.170  -6.258   1.409  0.00  0.00    +0.061 S 
ATOM      2  O   UNL     1      -1.155  -6.946   0.166  0.00  0.00    -0.153 OA
ATOM      3  O   UNL     1      -0.782  -6.877   2.628  0.00  0.00    -0.153 OA
ENDROOT
BRANCH   1   4
ATOM      4  C   UNL     1      -2.816  -5.675   1.642  0.00  0.00    +0.108 A 
ATOM      5  C   UNL     1      -3.279  -5.408   2.920  0.00  0.00    +0.030 A 
ATOM      6  C   UNL     1      -4.568  -4.951   3.112  0.00  0.00    +0.030 A 
ATOM      7  C   UNL     1      -5.402  -4.758   2.022  0.00  0.00    +0.067 A 
ATOM      8  C   UNL     1      -4.935  -5.027   0.733  0.00  0.00    +0.069 A 
ATOM      9  C   UNL     1      -3.638  -5.481   0.549  0.00  0.00    +0.056 A 
ATOM     10  N   UNL     1      -5.982  -4.743  -0.141  0.00  0.00    -0.306 N 
ATOM     11  H   UNL     1      -5.955  -4.834  -1.106  0.00  0.00    +0.170 HD
ATOM     12  C   UNL     1      -7.036  -4.320   0.582  0.00  0.00    +0.325 A 
ATOM     13  O   UNL     1      -8.114  -3.990   0.123  0.00  0.00    -0.247 OA
ATOM     14  N   UNL     1      -6.717  -4.319   1.890  0.00  0.00    -0.306 N 
ATOM     15  H   UNL     1      -7.303  -4.057   2.617  0.00  0.00    +0.170 HD
ENDBRANCH   1   4
BRANCH   1  25
ATOM     16  C   UNL     1      -0.338   1.420  -0.015  0.00  0.00    +0.044 C 
ATOM     17  C   UNL     1      -0.242  -0.084  -0.024  0.00  0.00    -0.050 A 
ATOM     18  C   UNL     1      -0.180  -0.767  -1.224  0.00  0.00    +0.004 A 
ATOM     19  C   UNL     1      -0.087  -2.144  -1.224  0.00  0.00    +0.006 A 
ATOM     20  C   UNL     1      -0.059  -2.848  -0.028  0.00  0.00    -0.025 A 
ATOM     21  C   UNL     1      -0.131  -2.169   1.168  0.00  0.00    -0.041 A 
ATOM     22  C   UNL     1      -0.211  -0.782   1.165  0.00  0.00    +0.007 A 
ATOM     23  C   UNL     1      -0.137  -2.866   2.504  0.00  0.00    +0.052 C 
ATOM     24  C   UNL     1       0.435  -4.278   2.383  0.00  0.00    +0.115 C 
ATOM     25  N   UNL     1      -0.201  -4.927   1.226  0.00  0.00    -0.169 NA
ATOM     26  C   UNL     1       0.058  -4.349  -0.098  0.00  0.00    +0.113 C 
BRANCH  26  27
ATOM     27  C   UNL     1       1.469  -4.729  -0.552  0.00  0.00    +0.006 C 
ATOM     28  C   UNL     1       1.633  -6.249  -0.489  0.00  0.00    +0.009 C 
ATOM     29  C   UNL     1       1.689  -4.251  -1.988  0.00  0.00    +0.009 C 
ENDBRANCH  26  27
ENDBRANCH   1  25
TORSDOF 3
