REMARK  Name = ZINC49126047
REMARK  6 active torsions:
REMARK  status: ('A' for Active; 'I' for Inactive)
REMARK    1  A    between atoms: C_1  and  C_2
REMARK    2  A    between atoms: C_2  and  C_17
REMARK    3  A    between atoms: C_5  and  C_8
REMARK    4  A    between atoms: C_8  and  S_9
REMARK    5  A    between atoms: S_9  and  C_10
REMARK    6  A    between atoms: N_14  and  C_15
REMARK                            x       y       z     vdW  Elec       q    Type
REMARK                         _______ _______ _______ _____ _____    ______ ____
ROOT
ATOM      1  C   UNL     1      -0.019   1.526   0.010  0.00  0.00    +0.080 C 
ATOM      2  C   UNL     1       0.002  -0.004   0.002  0.00  0.00    +0.194 C 
ATOM      3  O   UNL     1       0.671  -0.470  -1.177  0.00  0.00    -0.342 OA
ATOM      4  C   UNL     1       1.816  -1.234  -0.747  0.00  0.00    +0.196 C 
ATOM      5  C   UNL     1       2.062  -0.715   0.692  0.00  0.00    +0.158 C 
ATOM      6  O   UNL     1       0.711  -0.484   1.157  0.00  0.00    -0.339 OA
ENDROOT
BRANCH   2   7
ATOM      7  C   UNL     1      -1.410  -0.530   0.020  0.00  0.00    +0.011 A 
ATOM      8  C   UNL     1      -2.037  -0.785   1.226  0.00  0.00    +0.009 A 
ATOM      9  C   UNL     1      -3.332  -1.267   1.242  0.00  0.00    +0.000 A 
ATOM     10  C   UNL     1      -4.001  -1.493   0.054  0.00  0.00    +0.000 A 
ATOM     11  C   UNL     1      -3.375  -1.237  -1.151  0.00  0.00    +0.000 A 
ATOM     12  C   UNL     1      -2.081  -0.751  -1.168  0.00  0.00    +0.009 A 
ENDBRANCH   2   7
BRANCH   5  13
ATOM     13  C   UNL     1       2.762  -1.776   1.545  0.00  0.00    +0.111 C 
BRANCH  13  14
ATOM     14  S   UNL     1       3.030  -1.127   3.217  0.00  0.00    -0.083 S 
BRANCH  14  15
ATOM     15  C   UNL     1       3.832  -2.448   4.063  0.00  0.00    +0.193 A 
ATOM     16  N   UNL     1       4.147  -3.613   3.551  0.00  0.00    -0.121 NA
ATOM     17  N   UNL     1       4.769  -4.372   4.551  0.00  0.00    -0.113 NA
ATOM     18  C   UNL     1       4.814  -3.646   5.641  0.00  0.00    +0.215 A 
ATOM     19  N   UNL     1       4.241  -2.437   5.367  0.00  0.00    -0.294 N 
ATOM     20  C   UNL     1       4.088  -1.323   6.308  0.00  0.00    +0.154 C 
ATOM     21  N   UNL     1       5.354  -4.036   6.860  0.00  0.00    -0.328 N 
ATOM     22  H   UNL     1       5.745  -4.919   6.957  0.00  0.00    +0.145 HD
ATOM     23  H   UNL     1       5.341  -3.426   7.614  0.00  0.00    +0.145 HD
ENDBRANCH  14  15
ENDBRANCH  13  14
ENDBRANCH   5  13
TORSDOF 4
