REMARK  Name = ZINC32943077
REMARK  12 active torsions:
REMARK  status: ('A' for Active; 'I' for Inactive)
REMARK    1  A    between atoms: C_1  and  C_2
REMARK    2  A    between atoms: C_4  and  C_36
REMARK    3  A    between atoms: C_6  and  N_8
REMARK    4  A    between atoms: N_10  and  C_11
REMARK    5  A    between atoms: C_11  and  C_12
REMARK    6  A    between atoms: C_12  and  C_13
REMARK    7  A    between atoms: N_23  and  C_24
REMARK    8  A    between atoms: C_24  and  C_26
REMARK    9  A    between atoms: C_28  and  O_34
REMARK   10  A    between atoms: C_30  and  O_32
REMARK   11  A    between atoms: O_32  and  C_33
REMARK   12  A    between atoms: O_34  and  C_35
REMARK                            x       y       z     vdW  Elec       q    Type
REMARK                         _______ _______ _______ _____ _____    ______ ____
ROOT
ATOM      1  N   UNL     1       0.830  -2.695   2.464  0.00  0.00    -0.328 N 
ATOM      2  C   UNL     1       0.275  -2.121   3.572  0.00  0.00    +0.194 C 
ATOM      3  N   UNL     1      -0.037  -2.890   4.654  0.00  0.00    -0.357 N 
ATOM      4  N   UNL     1       0.041  -0.818   3.595  0.00  0.00    -0.143 NA
ATOM      5  H   UNL     1      -0.430  -2.482   5.441  0.00  0.00    +0.162 HD
ATOM      6  H   UNL     1       0.576  -3.595   2.206  0.00  0.00    +0.169 HD
ENDROOT
BRANCH   1  12
ATOM      7  C   UNL     1       4.050   1.000   2.083  0.00  0.00    +0.044 C 
ATOM      8  C   UNL     1       3.339  -0.190   1.492  0.00  0.00    -0.048 A 
ATOM      9  C   UNL     1       3.610  -0.581   0.193  0.00  0.00    +0.006 A 
ATOM     10  C   UNL     1       2.959  -1.673  -0.353  0.00  0.00    -0.048 A 
ATOM     11  C   UNL     1       2.037  -2.376   0.397  0.00  0.00    +0.029 A 
ATOM     12  C   UNL     1       1.763  -1.986   1.702  0.00  0.00    +0.042 A 
ATOM     13  C   UNL     1       2.422  -0.892   2.249  0.00  0.00    +0.029 A 
ATOM     14  C   UNL     1       3.257  -2.095  -1.769  0.00  0.00    +0.044 C 
ENDBRANCH   1  12
BRANCH   4  15
ATOM     15  C   UNL     1      -0.074  -0.137   2.447  0.00  0.00    +0.270 C 
ATOM     16  O   UNL     1      -0.070  -0.732   1.384  0.00  0.00    -0.268 OA
BRANCH  15  17
ATOM     17  C   UNL     1      -0.205   1.338   2.471  0.00  0.00    +0.046 A 
ATOM     18  C   UNL     1      -0.098   2.030   3.677  0.00  0.00    +0.059 A 
ATOM     19  C   UNL     1      -0.221   3.410   3.695  0.00  0.00    +0.124 A 
ATOM     20  C   UNL     1      -0.451   4.103   2.515  0.00  0.00    +0.091 A 
ATOM     21  C   UNL     1      -0.559   3.418   1.314  0.00  0.00    +0.124 A 
ATOM     22  C   UNL     1      -0.430   2.039   1.287  0.00  0.00    +0.059 A 
BRANCH  21  23
ATOM     23  O   UNL     1      -0.784   4.101   0.161  0.00  0.00    -0.495 OA
ATOM     24  C   UNL     1      -0.900   5.522   0.261  0.00  0.00    +0.277 C 
ENDBRANCH  21  23
BRANCH  19  25
ATOM     25  O   UNL     1      -0.117   4.085   4.870  0.00  0.00    -0.495 OA
ATOM     26  C   UNL     1      -0.254   5.506   4.815  0.00  0.00    +0.277 C 
ENDBRANCH  19  25
ENDBRANCH  15  17
ENDBRANCH   4  15
BRANCH   3  27
ATOM     27  C   UNL     1       0.223  -4.332   4.628  0.00  0.00    +0.120 C 
BRANCH  27  28
ATOM     28  C   UNL     1      -0.215  -4.953   5.956  0.00  0.00    +0.058 C 
BRANCH  28  29
ATOM     29  C   UNL     1       0.052  -6.436   5.930  0.00  0.00    -0.021 A 
ATOM     30  C   UNL     1      -0.821  -7.398   5.594  0.00  0.00    +0.087 A 
ATOM     31  N   UNL     1      -0.222  -8.625   5.687  0.00  0.00    -0.360 N 
ATOM     32  H   UNL     1      -0.653  -9.472   5.494  0.00  0.00    +0.165 HD
ATOM     33  C   UNL     1       1.085  -8.478   6.095  0.00  0.00    +0.047 A 
ATOM     34  C   UNL     1       1.316  -7.099   6.259  0.00  0.00    +0.003 A 
ATOM     35  C   UNL     1       2.572  -6.647   6.667  0.00  0.00    +0.010 A 
ATOM     36  C   UNL     1       3.573  -7.547   6.902  0.00  0.00    +0.001 A 
ATOM     37  C   UNL     1       3.352  -8.907   6.738  0.00  0.00    +0.002 A 
ATOM     38  C   UNL     1       2.117  -9.376   6.345  0.00  0.00    +0.026 A 
ENDBRANCH  28  29
ENDBRANCH  27  28
ENDBRANCH   3  27
TORSDOF 8
