REMARK  Name = ZINC16029604
REMARK  6 active torsions:
REMARK  status: ('A' for Active; 'I' for Inactive)
REMARK    1  A    between atoms: C_1  and  C_2
REMARK    2  A    between atoms: C_2  and  C_33
REMARK    3  A    between atoms: C_19  and  C_32
REMARK    4  A    between atoms: C_21  and  O_30
REMARK    5  A    between atoms: C_24  and  C_29
REMARK    6  A    between atoms: C_25  and  C_27
REMARK                            x       y       z     vdW  Elec       q    Type
REMARK                         _______ _______ _______ _____ _____    ______ ____
ROOT
ATOM      1  C   UNL     1      -0.111   4.712   1.049  0.00  0.00    +0.074 C 
ATOM      2  C   UNL     1      -0.224   3.582   0.021  0.00  0.00    +0.166 C 
ATOM      3  O   UNL     1      -0.686   2.355   0.675  0.00  0.00    -0.342 OA
ATOM      4  C   UNL     1       0.059   1.407   0.041  0.00  0.00    +0.165 C 
ATOM      5  C   UNL     1       0.304  -0.068   0.016  0.00  0.00    +0.039 C 
ATOM      6  C   UNL     1       1.259  -0.023  -1.220  0.00  0.00    +0.007 C 
ATOM      7  C   UNL     1       1.889  -1.282  -1.690  0.00  0.00    +0.034 C 
ATOM      8  C   UNL     1       2.100  -2.411  -0.707  0.00  0.00    +0.011 C 
ATOM      9  C   UNL     1       2.939  -3.502  -1.409  0.00  0.00    +0.032 C 
ATOM     10  C   UNL     1       2.757  -3.314  -2.905  0.00  0.00    -0.053 C 
ATOM     11  C   UNL     1       2.085  -4.212  -3.605  0.00  0.00    +0.051 C 
ATOM     12  C   UNL     1       1.861  -3.989  -5.047  0.00  0.00    +0.179 C 
ATOM     13  O   UNL     1       1.545  -4.904  -5.784  0.00  0.00    -0.288 OA
ATOM     14  C   UNL     1       2.000  -2.605  -5.541  0.00  0.00    +0.047 C 
ATOM     15  C   UNL     1       2.685  -1.720  -4.824  0.00  0.00    -0.009 C 
ATOM     16  C   UNL     1       3.345  -2.065  -3.532  0.00  0.00    +0.044 C 
ATOM     17  C   UNL     1       3.183  -0.965  -2.470  0.00  0.00    +0.153 C 
ATOM     18  C   UNL     1       3.071   0.438  -3.066  0.00  0.00    +0.154 C 
ATOM     19  C   UNL     1       3.165   1.476  -1.921  0.00  0.00    +0.045 C 
ATOM     20  C   UNL     1       2.287   1.047  -0.782  0.00  0.00    +0.016 C 
ATOM     21  C   UNL     1       1.490   2.076   0.002  0.00  0.00    +0.204 C 
ATOM     22  O   UNL     1       1.071   3.307  -0.587  0.00  0.00    -0.328 OA
ATOM     23  C   UNL     1       3.202   0.448   0.293  0.00  0.00    +0.015 C 
ATOM     24  F   UNL     1       4.303  -1.042  -1.623  0.00  0.00    -0.238 F 
ATOM     25  C   UNL     1       4.842  -2.299  -3.783  0.00  0.00    +0.023 C 
ATOM     26  C   UNL     1      -1.226   3.997  -1.060  0.00  0.00    +0.074 C 
ENDROOT
BRANCH  21  27
ATOM     27  C   UNL     1       2.090   2.255   1.377  0.00  0.00    +0.390 C 
ATOM     28  O   UNL     1       1.690   1.590   2.302  0.00  0.00    -0.243 OA
ATOM     29  O   UNL     1       3.069   3.153   1.570  0.00  0.00    -0.243 OA
ENDBRANCH  21  27
BRANCH  18  30
ATOM     30  O   UNL     1       1.849   0.613  -3.784  0.00  0.00    -0.389 OA
ATOM     31  H   UNL     1       1.745   1.491  -4.175  0.00  0.00    +0.210 HD
ENDBRANCH  18  30
TORSDOF 2
