REMARK  Name = ZINC31158618
REMARK  9 active torsions:
REMARK  status: ('A' for Active; 'I' for Inactive)
REMARK    1  A    between atoms: C_1  and  C_2
REMARK    2  A    between atoms: C_7  and  C_34
REMARK    3  A    between atoms: C_8  and  C_10
REMARK    4  A    between atoms: C_10  and  C_11
REMARK    5  A    between atoms: C_12  and  O_25
REMARK    6  A    between atoms: C_14  and  O_24
REMARK    7  A    between atoms: C_18  and  O_23
REMARK    8  A    between atoms: C_29  and  C_30
REMARK    9  A    between atoms: C_29  and  C_31
REMARK                            x       y       z     vdW  Elec       q    Type
REMARK                         _______ _______ _______ _____ _____    ______ ____
ROOT
ATOM      1  C   UNL     1       4.479   4.531   0.680  0.00  0.00    +0.039 C 
ATOM      2  C   UNL     1       3.262   3.673   0.443  0.00  0.00    -0.073 C 
ATOM      3  C   UNL     1       2.144   4.049   0.970  0.00  0.00    -0.027 C 
ATOM      4  C   UNL     1       0.848   3.303   0.815  0.00  0.00    +0.032 C 
ATOM      5  C   UNL     1       1.114   1.881   0.315  0.00  0.00    +0.016 C 
ATOM      6  C   UNL     1       2.067   1.925  -0.872  0.00  0.00    -0.021 C 
ATOM      7  C   UNL     1       3.434   2.434  -0.387  0.00  0.00    +0.023 C 
ATOM      8  C   UNL     1       2.236   0.541  -1.497  0.00  0.00    +0.007 C 
ATOM      9  C   UNL     1       0.869  -0.022  -1.895  0.00  0.00    +0.002 C 
ATOM     10  C   UNL     1       0.037  -0.206  -0.628  0.00  0.00    +0.018 C 
ATOM     11  C   UNL     1      -0.185   1.132   0.075  0.00  0.00    +0.073 C 
ATOM     12  C   UNL     1      -1.210   1.950  -0.708  0.00  0.00    +0.023 C 
ATOM     13  C   UNL     1       1.578   2.903  -1.954  0.00  0.00    +0.012 C 
ENDROOT
BRANCH  11  14
ATOM     14  C   UNL     1      -0.803   0.816   1.432  0.00  0.00    +0.362 C 
ATOM     15  O   UNL     1      -0.236   1.147   2.446  0.00  0.00    -0.246 OA
ATOM     16  O   UNL     1      -1.977   0.170   1.500  0.00  0.00    -0.246 OA
ENDBRANCH  11  14
BRANCH   7  17
ATOM     17  C   UNL     1       4.168   1.385   0.441  0.00  0.00    +0.049 C 
BRANCH  17  18
ATOM     18  C   UNL     1       5.673   1.653   0.385  0.00  0.00    +0.128 C 
ATOM     19  C   UNL     1       6.175   2.095  -0.968  0.00  0.00    +0.182 C 
ATOM     20  C   UNL     1       7.674   2.040  -1.117  0.00  0.00    +0.174 C 
ATOM     21  C   UNL     1       8.268   0.829  -0.469  0.00  0.00    -0.015 C 
ATOM     22  C   UNL     1       9.070   0.062  -1.166  0.00  0.00    +0.013 C 
ATOM     23  C   UNL     1       7.971   0.469   0.955  0.00  0.00    +0.174 C 
ATOM     24  C   UNL     1       6.519   0.786   1.299  0.00  0.00    +0.186 C 
ATOM     25  O   UNL     1       6.240   2.170   1.577  0.00  0.00    -0.359 OA
BRANCH  23  26
ATOM     26  O   UNL     1       8.205  -0.928   1.145  0.00  0.00    -0.385 OA
ATOM     27  H   UNL     1       8.041  -1.384   2.133  0.00  0.00    +0.210 HD
ENDBRANCH  23  26
BRANCH  20  28
ATOM     28  O   UNL     1       8.012   2.037  -2.505  0.00  0.00    -0.385 OA
ATOM     29  H   UNL     1       9.067   2.000  -2.814  0.00  0.00    +0.210 HD
ENDBRANCH  20  28
BRANCH  19  30
ATOM     30  O   UNL     1       5.711   3.424  -1.216  0.00  0.00    -0.386 OA
ATOM     31  H   UNL     1       5.972   3.931  -2.156  0.00  0.00    +0.210 HD
ENDBRANCH  19  30
ENDBRANCH  17  18
ENDBRANCH   7  17
TORSDOF 6
