REMARK  Name = ZINC30589155
REMARK  9 active torsions:
REMARK  status: ('A' for Active; 'I' for Inactive)
REMARK    1  A    between atoms: C_1  and  C_2
REMARK    2  A    between atoms: C_2  and  O_3
REMARK    3  A    between atoms: O_3  and  C_4
REMARK    4  A    between atoms: C_4  and  C_6
REMARK    5  A    between atoms: C_7  and  C_8
REMARK    6  A    between atoms: C_11  and  N_14
REMARK    7  A    between atoms: C_15  and  C_17
REMARK    8  A    between atoms: C_17  and  N_18
REMARK    9  A    between atoms: C_26  and  C_28
REMARK                            x       y       z     vdW  Elec       q    Type
REMARK                         _______ _______ _______ _____ _____    ______ ____
ROOT
ATOM      1  N   UNL     1      -1.197  -0.716   0.010  0.00  0.00    -0.287 N 
ATOM      2  C   UNL     1      -1.185  -2.059  -0.099  0.00  0.00    +0.201 C 
ATOM      3  O   UNL     1      -0.129  -2.656  -0.113  0.00  0.00    -0.278 OA
ATOM      4  H   UNL     1      -2.154  -0.180   0.099  0.00  0.00    +0.155 HD
ENDROOT
BRANCH   1   8
ATOM      5  C   UNL     1       2.387   1.409   0.013  0.00  0.00    -0.025 A 
ATOM      6  C   UNL     1       1.248   1.955  -0.590  0.00  0.00    +0.010 A 
ATOM      7  C   UNL     1       0.066   1.250  -0.589  0.00  0.00    +0.024 A 
ATOM      8  C   UNL     1       0.003  -0.005   0.011  0.00  0.00    +0.033 A 
ATOM      9  C   UNL     1       1.133  -0.552   0.611  0.00  0.00    +0.024 A 
ATOM     10  C   UNL     1       2.319   0.146   0.615  0.00  0.00    +0.010 A 
BRANCH   5  12
ATOM     11  C   UNL     1       3.715   3.376  -0.568  0.00  0.00    +0.092 C 
ATOM     12  C   UNL     1       3.651   2.158   0.014  0.00  0.00    +0.015 C 
BRANCH  11  13
ATOM     13  C   UNL     1       4.935   4.098  -0.567  0.00  0.00    +0.332 C 
ATOM     14  O   UNL     1       5.924   3.622  -0.043  0.00  0.00    -0.246 OA
BRANCH  13  15
ATOM     15  O   UNL     1       4.999   5.315  -1.147  0.00  0.00    -0.462 OA
BRANCH  15  17
ATOM     16  C   UNL     1       6.138   7.340  -1.812  0.00  0.00    +0.048 C 
ATOM     17  C   UNL     1       6.260   5.986  -1.109  0.00  0.00    +0.229 C 
ENDBRANCH  15  17
ENDBRANCH  13  15
ENDBRANCH  11  13
ENDBRANCH   5  12
ENDBRANCH   1   8
BRANCH   2  18
ATOM     18  C   UNL     1      -2.482  -2.819  -0.204  0.00  0.00    +0.020 C 
BRANCH  18  19
ATOM     19  N   UNL     1      -2.200  -4.256  -0.312  0.00  0.00    +0.395 N 
ATOM     20  C   UNL     1      -1.507  -4.564  -1.570  0.00  0.00    -0.055 C 
ATOM     21  C   UNL     1      -0.892  -5.967  -1.495  0.00  0.00    +0.103 C 
ATOM     22  N   UNL     1      -1.929  -6.899  -1.038  0.00  0.00    -0.353 N 
ATOM     23  C   UNL     1      -1.931  -8.254  -1.121  0.00  0.00    +0.086 A 
ATOM     24  C   UNL     1      -3.085  -8.707  -0.585  0.00  0.00    +0.019 A 
ATOM     25  C   UNL     1      -3.822  -7.584  -0.153  0.00  0.00    +0.021 A 
ATOM     26  C   UNL     1      -3.094  -6.495  -0.440  0.00  0.00    +0.009 A 
ATOM     27  C   UNL     1      -3.436  -5.048  -0.177  0.00  0.00    +0.011 C 
ATOM     28  H   UNL     1      -1.529  -4.531   0.516  0.00  0.00    -0.080 HD
BRANCH  27  29
ATOM     29  C   UNL     1      -3.987  -4.899   1.218  0.00  0.00    -0.055 A 
ATOM     30  C   UNL     1      -3.129  -4.888   2.302  0.00  0.00    +0.002 A 
ATOM     31  C   UNL     1      -3.635  -4.747   3.581  0.00  0.00    +0.000 A 
ATOM     32  C   UNL     1      -4.998  -4.627   3.776  0.00  0.00    +0.000 A 
ATOM     33  C   UNL     1      -5.856  -4.644   2.692  0.00  0.00    +0.000 A 
ATOM     34  C   UNL     1      -5.350  -4.780   1.413  0.00  0.00    +0.002 A 
ENDBRANCH  27  29
ENDBRANCH  18  19
ENDBRANCH   2  18
TORSDOF 8
