REMARK  Name = ZINC44406570
REMARK  8 active torsions:
REMARK  status: ('A' for Active; 'I' for Inactive)
REMARK    1  A    between atoms: C_1  and  C_2
REMARK    2  A    between atoms: C_2  and  C_3
REMARK    3  A    between atoms: C_3  and  C_5
REMARK    4  A    between atoms: C_3  and  N_28
REMARK    5  A    between atoms: C_5  and  C_6
REMARK    6  A    between atoms: N_8  and  C_15
REMARK    7  A    between atoms: C_15  and  C_16
REMARK    8  A    between atoms: N_18  and  C_19
REMARK                            x       y       z     vdW  Elec       q    Type
REMARK                         _______ _______ _______ _____ _____    ______ ____
ROOT
ATOM      1  C   UNL     1       1.664  -2.499  -2.379  0.00  0.00    -0.024 A 
ATOM      2  C   UNL     1       1.182  -2.934  -3.555  0.00  0.00    +0.091 A 
ATOM      3  N   UNL     1       2.215  -3.275  -4.385  0.00  0.00    -0.338 N 
ATOM      4  C   UNL     1       3.417  -3.064  -3.748  0.00  0.00    +0.050 A 
ATOM      5  C   UNL     1       3.125  -2.563  -2.466  0.00  0.00    +0.003 A 
ATOM      6  C   UNL     1       4.163  -2.248  -1.587  0.00  0.00    +0.010 A 
ATOM      7  C   UNL     1       5.460  -2.425  -1.979  0.00  0.00    +0.001 A 
ATOM      8  C   UNL     1       5.754  -2.916  -3.244  0.00  0.00    +0.002 A 
ATOM      9  C   UNL     1       4.745  -3.241  -4.123  0.00  0.00    +0.026 A 
ENDROOT
BRANCH   1  10
ATOM     10  C   UNL     1       0.855  -2.030  -1.198  0.00  0.00    +0.021 C 
BRANCH  10  11
ATOM     11  C   UNL     1       0.716  -0.507  -1.248  0.00  0.00    -0.071 C 
BRANCH  11  12
ATOM     12  N   UNL     1      -0.068  -0.126  -2.431  0.00  0.00    +0.380 N 
ATOM     13  H   UNL     1      -0.160   0.878  -2.464  0.00  0.00    -0.090 HD
ATOM     14  H   UNL     1       0.402  -0.449  -3.264  0.00  0.00    -0.090 HD
ATOM     15  H   UNL     1      -0.984  -0.547  -2.377  0.00  0.00    -0.090 HD
ENDBRANCH  11  12
BRANCH  11  17
ATOM     16  C   UNL     1      -0.026   1.511   0.024  0.00  0.00    +0.002 C 
ATOM     17  C   UNL     1       0.003  -0.018   0.015  0.00  0.00    -0.019 C 
ENDBRANCH  11  17
ENDBRANCH  10  11
ENDBRANCH   1  10
BRANCH   3  18
ATOM     18  C   UNL     1       2.064  -3.790  -5.748  0.00  0.00    +0.217 C 
BRANCH  18  19
ATOM     19  C   UNL     1       2.101  -5.296  -5.724  0.00  0.00    +0.237 C 
ATOM     20  O   UNL     1       2.240  -5.882  -4.671  0.00  0.00    -0.274 OA
ATOM     21  N   UNL     1       1.980  -5.992  -6.872  0.00  0.00    -0.284 N 
ATOM     22  H   UNL     1       1.802  -5.526  -7.704  0.00  0.00    +0.155 HD
BRANCH  21  23
ATOM     23  C   UNL     1       2.111  -7.386  -6.863  0.00  0.00    +0.037 A 
ATOM     24  C   UNL     1       2.705  -8.035  -7.937  0.00  0.00    +0.027 A 
ATOM     25  C   UNL     1       2.836  -9.410  -7.930  0.00  0.00    +0.051 A 
ATOM     26  C   UNL     1       2.374 -10.146  -6.851  0.00  0.00    +0.166 A 
ATOM     27  C   UNL     1       1.777  -9.499  -5.772  0.00  0.00    +0.168 A 
ATOM     28  C   UNL     1       1.652  -8.120  -5.778  0.00  0.00    +0.072 A 
ATOM     29  O   UNL     1       1.411 -10.436  -4.849  0.00  0.00    -0.453 OA
ATOM     30  C   UNL     1       1.418 -11.692  -5.552  0.00  0.00    +0.466 C 
ATOM     31  O   UNL     1       2.381 -11.490  -6.603  0.00  0.00    -0.453 OA
ENDBRANCH  21  23
ENDBRANCH  18  19
ENDBRANCH   3  18
TORSDOF 7
