REMARK  Name = ZINC16774074
REMARK  11 active torsions:
REMARK  status: ('A' for Active; 'I' for Inactive)
REMARK    1  A    between atoms: C_1  and  C_2
REMARK    2  A    between atoms: C_2  and  C_4
REMARK    3  A    between atoms: C_2  and  S_14
REMARK    4  A    between atoms: N_9  and  C_10
REMARK    5  A    between atoms: C_10  and  C_11
REMARK    6  A    between atoms: C_10  and  C_12
REMARK    7  A    between atoms: C_10  and  C_13
REMARK    8  A    between atoms: S_14  and  C_15
REMARK    9  A    between atoms: C_18  and  C_27
REMARK   10  A    between atoms: N_19  and  C_20
REMARK   11  A    between atoms: C_20  and  C_21
REMARK                            x       y       z     vdW  Elec       q    Type
REMARK                         _______ _______ _______ _____ _____    ______ ____
ROOT
ATOM      1  C   UNL     1      -2.163   1.051  -1.333  0.00  0.00    +0.193 A 
ATOM      2  N   UNL     1      -2.192  -0.048  -0.612  0.00  0.00    -0.122 NA
ATOM      3  N   UNL     1      -3.388  -0.517  -0.571  0.00  0.00    -0.128 NA
ATOM      4  C   UNL     1      -4.195   0.253  -1.262  0.00  0.00    +0.165 A 
ATOM      5  N   UNL     1      -3.436   1.284  -1.767  0.00  0.00    -0.298 N 
ENDROOT
BRANCH   4   6
ATOM      6  C   UNL     1      -5.647   0.054  -1.457  0.00  0.00    +0.019 A 
ATOM      7  C   UNL     1      -6.251   0.430  -2.657  0.00  0.00    +0.014 A 
ATOM      8  C   UNL     1      -7.605   0.237  -2.836  0.00  0.00    +0.039 A 
ATOM      9  C   UNL     1      -8.367  -0.319  -1.821  0.00  0.00    +0.123 A 
ATOM     10  C   UNL     1      -7.774  -0.690  -0.625  0.00  0.00    +0.039 A 
ATOM     11  C   UNL     1      -6.420  -0.506  -0.438  0.00  0.00    +0.014 A 
ATOM     12  F   UNL     1      -9.694  -0.500  -1.998  0.00  0.00    -0.205 F 
ENDBRANCH   4   6
BRANCH   1  13
ATOM     13  S   UNL     1      -0.745   2.042  -1.669  0.00  0.00    -0.073 S 
BRANCH  13  15
ATOM     14  C   UNL     1       0.205   1.148   0.731  0.00  0.00    +0.029 C 
ATOM     15  C   UNL     1       0.514   1.107  -0.767  0.00  0.00    +0.137 C 
BRANCH  15  16
ATOM     16  C   UNL     1       1.869   1.718  -1.017  0.00  0.00    +0.233 C 
ATOM     17  O   UNL     1       1.959   2.887  -1.325  0.00  0.00    -0.274 OA
ATOM     18  N   UNL     1       2.980   0.965  -0.898  0.00  0.00    -0.239 N 
ATOM     19  C   UNL     1       4.192   1.511  -1.121  0.00  0.00    +0.306 C 
ATOM     20  O   UNL     1       4.282   2.683  -1.430  0.00  0.00    -0.252 OA
ATOM     21  N   UNL     1       5.303   0.758  -1.002  0.00  0.00    -0.294 N 
ATOM     22  H   UNL     1       2.908   0.029  -0.651  0.00  0.00    +0.159 HD
ATOM     23  H   UNL     1       5.231  -0.177  -0.756  0.00  0.00    +0.151 HD
BRANCH  21  24
ATOM     24  C   UNL     1       6.620   1.352  -1.245  0.00  0.00    +0.028 C 
ATOM     25  C   UNL     1       6.848   2.505  -0.266  0.00  0.00    +0.031 C 
ATOM     26  C   UNL     1       7.703   0.290  -1.045  0.00  0.00    +0.031 C 
ATOM     27  C   UNL     1       6.684   1.881  -2.680  0.00  0.00    +0.031 C 
ENDBRANCH  21  24
ENDBRANCH  15  16
ENDBRANCH  13  15
ENDBRANCH   1  13
BRANCH   5  28
ATOM     28  C   UNL     1      -3.898   2.397  -2.600  0.00  0.00    +0.161 C 
BRANCH  28  29
ATOM     29  C   UNL     1      -4.458   3.485  -1.719  0.00  0.00    -0.028 A 
ATOM     30  C   UNL     1      -5.813   3.523  -1.446  0.00  0.00    +0.005 A 
ATOM     31  C   UNL     1      -6.326   4.517  -0.634  0.00  0.00    +0.000 A 
ATOM     32  C   UNL     1      -5.487   5.479  -0.104  0.00  0.00    +0.000 A 
ATOM     33  C   UNL     1      -4.133   5.444  -0.382  0.00  0.00    +0.000 A 
ATOM     34  C   UNL     1      -3.619   4.447  -1.189  0.00  0.00    +0.005 A 
ENDBRANCH  28  29
ENDBRANCH   5  28
TORSDOF 7
