REMARK  Name = ZINC03009503
REMARK  10 active torsions:
REMARK  status: ('A' for Active; 'I' for Inactive)
REMARK    1  A    between atoms: C_1  and  C_2
REMARK    2  A    between atoms: C_3  and  C_25
REMARK    3  A    between atoms: C_4  and  C_24
REMARK    4  A    between atoms: C_7  and  C_8
REMARK    5  A    between atoms: N_10  and  N_11
REMARK    6  A    between atoms: C_12  and  C_13
REMARK    7  A    between atoms: C_22  and  O_23
REMARK    8  A    between atoms: N_27  and  N_28
REMARK    9  A    between atoms: C_29  and  C_30
REMARK   10  A    between atoms: C_39  and  O_40
REMARK                            x       y       z     vdW  Elec       q    Type
REMARK                         _______ _______ _______ _____ _____    ______ ____
ROOT
ATOM      1  C   UNL     1       6.304   3.082  -0.053  0.00  0.00    +0.047 C 
ATOM      2  C   UNL     1       6.002   1.605  -0.052  0.00  0.00    -0.008 A 
ATOM      3  C   UNL     1       6.947   0.554  -0.062  0.00  0.00    +0.062 A 
ATOM      4  C   UNL     1       6.235  -0.631  -0.062  0.00  0.00    +0.026 A 
ATOM      5  N   UNL     1       4.925  -0.338  -0.047  0.00  0.00    -0.354 N 
ATOM      6  H   UNL     1       4.204  -0.987  -0.044  0.00  0.00    +0.166 HD
ATOM      7  C   UNL     1       4.766   1.030  -0.038  0.00  0.00    +0.107 A 
ATOM      8  C   UNL     1       6.829  -2.016  -0.076  0.00  0.00    +0.064 C 
ENDROOT
BRANCH   7   9
ATOM      9  C   UNL     1       3.485   1.747  -0.022  0.00  0.00    +0.280 C 
ATOM     10  O   UNL     1       3.468   2.964  -0.015  0.00  0.00    -0.267 OA
ATOM     11  N   UNL     1       2.327   1.057  -0.015  0.00  0.00    -0.202 N 
ATOM     12  H   UNL     1       2.340   0.087  -0.020  0.00  0.00    +0.178 HD
BRANCH  11  13
ATOM     13  N   UNL     1       1.104   1.741   0.001  0.00  0.00    -0.187 NA
ATOM     14  C   UNL     1      -0.013   1.076   0.008  0.00  0.00    +0.142 C 
BRANCH  14  15
ATOM     15  C   UNL     1      -1.295   1.793   0.018  0.00  0.00    +0.044 A 
ATOM     16  C   UNL     1      -2.560   1.061   0.020  0.00  0.00    -0.006 A 
ATOM     17  C   UNL     1      -2.594  -0.339   0.013  0.00  0.00    +0.009 A 
ATOM     18  C   UNL     1      -3.795  -0.983   0.016  0.00  0.00    +0.001 A 
ATOM     19  C   UNL     1      -4.991  -0.269   0.025  0.00  0.00    +0.001 A 
ATOM     20  C   UNL     1      -4.994   1.093   0.032  0.00  0.00    +0.008 A 
ATOM     21  C   UNL     1      -3.774   1.791   0.029  0.00  0.00    -0.017 A 
ATOM     22  C   UNL     1      -3.737   3.197   0.037  0.00  0.00    +0.012 A 
ATOM     23  C   UNL     1      -2.552   3.862   0.036  0.00  0.00    +0.046 A 
ATOM     24  C   UNL     1      -1.332   3.187   0.032  0.00  0.00    +0.126 A 
BRANCH  24  25
ATOM     25  O   UNL     1      -0.171   3.893   0.036  0.00  0.00    -0.506 OA
ATOM     26  H   UNL     1       0.163   4.105  -0.846  0.00  0.00    +0.292 HD
ENDBRANCH  24  25
ENDBRANCH  14  15
ENDBRANCH  11  13
ENDBRANCH   7   9
BRANCH   3  27
ATOM     27  C   UNL     1       8.414   0.695  -0.075  0.00  0.00    +0.265 C 
ATOM     28  O   UNL     1       9.009   0.759  -1.134  0.00  0.00    -0.268 OA
ATOM     29  N   UNL     1       9.096   0.753   1.086  0.00  0.00    -0.203 N 
ATOM     30  H   UNL     1       8.621   0.702   1.930  0.00  0.00    +0.178 HD
BRANCH  29  31
ATOM     31  N   UNL     1      10.490   0.887   1.073  0.00  0.00    -0.187 NA
ATOM     32  C   UNL     1      11.148   0.942   2.193  0.00  0.00    +0.142 C 
BRANCH  32  33
ATOM     33  C   UNL     1      12.611   1.083   2.180  0.00  0.00    +0.044 A 
ATOM     34  C   UNL     1      13.365   1.153   3.430  0.00  0.00    -0.006 A 
ATOM     35  C   UNL     1      12.727   1.078   4.674  0.00  0.00    +0.009 A 
ATOM     36  C   UNL     1      13.468   1.142   5.816  0.00  0.00    +0.001 A 
ATOM     37  C   UNL     1      14.854   1.276   5.763  0.00  0.00    +0.001 A 
ATOM     38  C   UNL     1      15.506   1.347   4.570  0.00  0.00    +0.008 A 
ATOM     39  C   UNL     1      14.774   1.284   3.372  0.00  0.00    -0.017 A 
ATOM     40  C   UNL     1      15.414   1.353   2.122  0.00  0.00    +0.012 A 
ATOM     41  C   UNL     1      14.696   1.292   0.969  0.00  0.00    +0.046 A 
ATOM     42  C   UNL     1      13.309   1.158   0.975  0.00  0.00    +0.126 A 
BRANCH  42  43
ATOM     43  O   UNL     1      12.632   1.101  -0.201  0.00  0.00    -0.506 OA
ATOM     44  H   UNL     1      12.352   1.964  -0.536  0.00  0.00    +0.292 HD
ENDBRANCH  42  43
ENDBRANCH  32  33
ENDBRANCH  29  31
ENDBRANCH   3  27
TORSDOF 8
