REMARK  Name = ZINC40691207
REMARK  5 active torsions:
REMARK  status: ('A' for Active; 'I' for Inactive)
REMARK    1  A    between atoms: C_1  and  C_2
REMARK    2  A    between atoms: C_2  and  O_3
REMARK    3  A    between atoms: O_3  and  C_4
REMARK    4  A    between atoms: C_7  and  C_11
REMARK    5  A    between atoms: C_9  and  N_10
REMARK                            x       y       z     vdW  Elec       q    Type
REMARK                         _______ _______ _______ _____ _____    ______ ____
ROOT
ATOM      1  C   UNL     1       0.801  -1.825   1.307  0.00  0.00    +0.141 A 
ATOM      2  C   UNL     1       0.089  -2.671   0.470  0.00  0.00    +0.048 A 
ATOM      3  C   UNL     1       0.197  -4.039   0.614  0.00  0.00    +0.015 A 
ATOM      4  C   UNL     1       1.024  -4.576   1.603  0.00  0.00    +0.022 A 
ATOM      5  C   UNL     1       1.741  -3.725   2.446  0.00  0.00    +0.038 A 
ATOM      6  C   UNL     1       1.633  -2.353   2.293  0.00  0.00    +0.068 A 
ENDROOT
BRANCH   4   7
ATOM      7  C   UNL     1       1.139  -6.041   1.757  0.00  0.00    +0.169 A 
ATOM      8  N   UNL     1       1.556  -6.683   2.830  0.00  0.00    -0.128 NA
ATOM      9  N   UNL     1       1.531  -7.953   2.623  0.00  0.00    -0.129 NA
ATOM     10  C   UNL     1       1.093  -8.199   1.398  0.00  0.00    +0.161 A 
ATOM     11  N   UNL     1       0.826  -6.983   0.815  0.00  0.00    -0.281 N 
ATOM     12  C   UNL     1       0.351  -6.917  -0.461  0.00  0.00    +0.110 A 
ATOM     13  C   UNL     1       0.132  -8.045  -1.171  0.00  0.00    +0.035 A 
ATOM     14  C   UNL     1       0.392  -9.304  -0.600  0.00  0.00    +0.020 A 
ATOM     15  C   UNL     1       0.874  -9.383   0.670  0.00  0.00    +0.050 A 
ATOM     16 BR   UNL     1      -0.528  -7.932  -2.939  0.00  0.00    -0.049 Br
ENDBRANCH   4   7
BRANCH   6  17
ATOM     17  N   UNL     1       2.355  -1.496   3.132  0.00  0.00    -0.355 N 
ATOM     18  H   UNL     1       2.277  -0.535   3.027  0.00  0.00    +0.142 HD
ATOM     19  H   UNL     1       2.934  -1.864   3.818  0.00  0.00    +0.142 HD
ENDBRANCH   6  17
BRANCH   1  20
ATOM     20  O   UNL     1       0.692  -0.477   1.161  0.00  0.00    -0.490 OA
BRANCH  20  22
ATOM     21  C   UNL     1      -0.172   1.525   0.120  0.00  0.00    +0.048 C 
ATOM     22  C   UNL     1      -0.179  -0.005   0.131  0.00  0.00    +0.226 C 
ENDBRANCH  20  22
ENDBRANCH   1  20
TORSDOF 4
