REMARK  Name = ZINC13000334
REMARK  3 active torsions:
REMARK  status: ('A' for Active; 'I' for Inactive)
REMARK    1  A    between atoms: C_8  and  C_22
REMARK    2  A    between atoms: N_10  and  S_12
REMARK    3  A    between atoms: S_12  and  C_15
REMARK                            x       y       z     vdW  Elec       q    Type
REMARK                         _______ _______ _______ _____ _____    ______ ____
ROOT
ATOM      1  C   UNL     1       1.333   1.992   0.352  0.00  0.00    +0.000 A 
ATOM      2  C   UNL     1       0.180   1.239   0.220  0.00  0.00    +0.000 A 
ATOM      3  C   UNL     1      -1.039   1.871   0.093  0.00  0.00    +0.005 A 
ATOM      4  C   UNL     1      -1.119   3.257   0.105  0.00  0.00    -0.028 A 
ATOM      5  C   UNL     1       0.027   4.008   0.244  0.00  0.00    -0.041 A 
ATOM      6  C   UNL     1       1.255   3.368   0.365  0.00  0.00    +0.004 A 
ATOM      7  C   UNL     1       0.018   5.514   0.281  0.00  0.00    +0.065 C 
ATOM      8  C   UNL     1      -1.269   6.065  -0.332  0.00  0.00    +0.170 C 
ATOM      9  N   UNL     1      -2.400   5.320   0.245  0.00  0.00    -0.160 NA
ATOM     10  C   UNL     1      -2.481   3.885  -0.049  0.00  0.00    +0.145 C 
ENDROOT
BRANCH   8  11
ATOM     11  C   UNL     1      -1.403   7.530  -0.004  0.00  0.00    +0.230 C 
ATOM     12  O   UNL     1      -1.458   7.890   1.153  0.00  0.00    -0.274 OA
ATOM     13  N   UNL     1      -1.460   8.440  -0.996  0.00  0.00    -0.328 N 
ATOM     14  H   UNL     1      -1.416   8.152  -1.922  0.00  0.00    +0.145 HD
ATOM     15  H   UNL     1      -1.546   9.383  -0.786  0.00  0.00    +0.145 HD
ENDBRANCH   8  11
BRANCH   9  16
ATOM     16  S   UNL     1      -3.536   6.071   1.188  0.00  0.00    +0.065 S 
ATOM     17  O   UNL     1      -3.650   7.402   0.703  0.00  0.00    -0.153 OA
ATOM     18  O   UNL     1      -4.648   5.190   1.264  0.00  0.00    -0.153 OA
BRANCH  16  19
ATOM     19  C   UNL     1      -2.870   6.184   2.815  0.00  0.00    +0.141 A 
ATOM     20  C   UNL     1      -2.636   7.422   3.382  0.00  0.00    +0.031 A 
ATOM     21  C   UNL     1      -2.119   7.511   4.661  0.00  0.00    +0.002 A 
ATOM     22  C   UNL     1      -1.825   6.361   5.370  0.00  0.00    +0.003 A 
ATOM     23  C   UNL     1      -2.053   5.122   4.803  0.00  0.00    +0.040 A 
ATOM     24  C   UNL     1      -2.576   5.032   3.524  0.00  0.00    +0.150 A 
ATOM     25  F   UNL     1      -2.799   3.821   2.969  0.00  0.00    -0.203 F 
ENDBRANCH  16  19
ENDBRANCH   9  16
TORSDOF 3
