REMARK  Name = ZINC20720991
REMARK  7 active torsions:
REMARK  status: ('A' for Active; 'I' for Inactive)
REMARK    1  A    between atoms: C_1  and  C_2
REMARK    2  A    between atoms: C_2  and  O_3
REMARK    3  A    between atoms: O_3  and  C_4
REMARK    4  A    between atoms: C_9  and  C_10
REMARK    5  A    between atoms: C_21  and  S_26
REMARK    6  A    between atoms: S_26  and  N_29
REMARK    7  A    between atoms: N_29  and  C_30
REMARK                            x       y       z     vdW  Elec       q    Type
REMARK                         _______ _______ _______ _____ _____    ______ ____
ROOT
ATOM      1  C   UNL     1      -2.557   3.865   0.047  0.00  0.00    +0.108 C 
ATOM      2  C   UNL     1      -2.968   4.235  -1.367  0.00  0.00    +0.029 C 
ATOM      3  C   UNL     1      -2.126   5.298  -2.086  0.00  0.00    +0.033 C 
ATOM      4  C   UNL     1      -3.159   5.928  -3.022  0.00  0.00    -0.030 C 
ATOM      5  C   UNL     1      -4.379   5.777  -2.519  0.00  0.00    -0.023 C 
ATOM      6  C   UNL     1      -4.271   5.077  -1.214  0.00  0.00    +0.049 C 
ATOM      7  C   UNL     1      -5.336   4.178  -0.718  0.00  0.00    -0.018 A 
ATOM      8  C   UNL     1      -6.653   4.309  -1.102  0.00  0.00    +0.034 A 
ATOM      9  C   UNL     1      -7.614   3.452  -0.599  0.00  0.00    +0.106 A 
ATOM     10  C   UNL     1      -7.256   2.459   0.294  0.00  0.00    +0.030 A 
ATOM     11  C   UNL     1      -5.939   2.316   0.680  0.00  0.00    +0.025 A 
ATOM     12  C   UNL     1      -4.964   3.168   0.176  0.00  0.00    +0.031 A 
ATOM     13  N   UNL     1      -3.629   2.981   0.555  0.00  0.00    -0.336 N 
ATOM     14  H   UNL     1      -3.384   2.158   1.243  0.00  0.00    +0.147 HD
ENDROOT
BRANCH   1  20
ATOM     15  C   UNL     1      -0.050   3.842   0.023  0.00  0.00    +0.125 A 
ATOM     16  C   UNL     1       1.160   3.163   0.007  0.00  0.00    +0.046 A 
ATOM     17  C   UNL     1       1.176   1.782   0.000  0.00  0.00    +0.004 A 
ATOM     18  C   UNL     1      -0.013   1.076   0.008  0.00  0.00    +0.001 A 
ATOM     19  C   UNL     1      -1.220   1.750   0.017  0.00  0.00    +0.009 A 
ATOM     20  C   UNL     1      -1.241   3.131   0.031  0.00  0.00    +0.015 A 
BRANCH  15  21
ATOM     21  O   UNL     1      -0.069   5.201   0.030  0.00  0.00    -0.492 OA
BRANCH  21  23
ATOM     22  C   UNL     1       0.975   7.381   0.032  0.00  0.00    +0.048 C 
ATOM     23  C   UNL     1       1.196   5.867   0.022  0.00  0.00    +0.225 C 
ENDBRANCH  21  23
ENDBRANCH  15  21
ENDBRANCH   1  20
BRANCH   9  24
ATOM     24  S   UNL     1      -9.296   3.626  -1.096  0.00  0.00    +0.059 S 
ATOM     25  O   UNL     1      -9.281   4.283  -2.356  0.00  0.00    -0.153 OA
ATOM     26  O   UNL     1      -9.909   2.359  -0.905  0.00  0.00    -0.153 OA
BRANCH  24  27
ATOM     27  N   UNL     1     -10.017   4.667  -0.029  0.00  0.00    -0.187 NA
ATOM     28  H   UNL     1     -10.700   4.266   0.735  0.00  0.00    +0.148 HD
BRANCH  27  29
ATOM     29  C   UNL     1      -9.582   6.064   0.039  0.00  0.00    +0.077 C 
ATOM     30  C   UNL     1      -8.543   6.222   1.151  0.00  0.00    +0.020 C 
ATOM     31  C   UNL     1      -8.090   7.682   1.221  0.00  0.00    +0.002 C 
ATOM     32  C   UNL     1      -9.295   8.577   1.518  0.00  0.00    +0.000 C 
ATOM     33  C   UNL     1     -10.334   8.419   0.406  0.00  0.00    +0.002 C 
ATOM     34  C   UNL     1     -10.787   6.959   0.336  0.00  0.00    +0.020 C 
ENDBRANCH  27  29
ENDBRANCH  24  27
ENDBRANCH   9  24
TORSDOF 6
