REMARK  Name = ZINC07884993
REMARK  6 active torsions:
REMARK  status: ('A' for Active; 'I' for Inactive)
REMARK    1  A    between atoms: C_1  and  O_2
REMARK    2  A    between atoms: O_2  and  C_3
REMARK    3  A    between atoms: C_6  and  C_11
REMARK    4  A    between atoms: C_8  and  O_9
REMARK    5  A    between atoms: O_9  and  C_10
REMARK    6  A    between atoms: N_22  and  C_23
REMARK                            x       y       z     vdW  Elec       q    Type
REMARK                         _______ _______ _______ _____ _____    ______ ____
ROOT
ATOM      1  C   UNL     1      -0.126   4.190  -0.086  0.00  0.00    +0.198 C 
ATOM      2  N   UNL     1       0.038   5.455  -0.811  0.00  0.00    -0.321 N 
ATOM      3  C   UNL     1       1.138   6.255  -0.521  0.00  0.00    +0.041 A 
ATOM      4  C   UNL     1       1.098   7.631  -0.667  0.00  0.00    +0.024 A 
ATOM      5  C   UNL     1       2.220   8.383  -0.377  0.00  0.00    +0.002 A 
ATOM      6  C   UNL     1       3.385   7.771   0.060  0.00  0.00    +0.001 A 
ATOM      7  C   UNL     1       3.440   6.401   0.215  0.00  0.00    +0.015 A 
ATOM      8  C   UNL     1       2.315   5.631  -0.069  0.00  0.00    +0.058 A 
ATOM      9  C   UNL     1       2.315   4.168   0.110  0.00  0.00    +0.254 C 
ATOM     10  O   UNL     1       3.353   3.578   0.343  0.00  0.00    -0.270 OA
ATOM     11  N   UNL     1       1.155   3.490   0.009  0.00  0.00    -0.244 N 
ATOM     12  H   UNL     1      -0.609   5.729  -1.480  0.00  0.00    +0.148 HD
ENDROOT
BRANCH  11  13
ATOM     13  C   UNL     1       1.175   2.090   0.002  0.00  0.00    +0.042 A 
ATOM     14  C   UNL     1       0.630   1.393  -1.068  0.00  0.00    +0.027 A 
ATOM     15  C   UNL     1       0.650   0.011  -1.077  0.00  0.00    +0.051 A 
ATOM     16  C   UNL     1       1.214  -0.683  -0.018  0.00  0.00    +0.166 A 
ATOM     17  C   UNL     1       1.762   0.013   1.056  0.00  0.00    +0.168 A 
ATOM     18  C   UNL     1       1.741   1.398   1.064  0.00  0.00    +0.073 A 
ATOM     19  O   UNL     1       2.248  -0.889   1.959  0.00  0.00    -0.453 OA
ATOM     20  C   UNL     1       2.360  -2.130   1.239  0.00  0.00    +0.466 C 
ATOM     21  O   UNL     1       1.357  -2.022   0.211  0.00  0.00    -0.453 OA
ENDBRANCH  11  13
BRANCH   1  25
ATOM     22  C   UNL     1      -1.595   4.987   3.850  0.00  0.00    +0.162 A 
ATOM     23  C   UNL     1      -0.805   3.873   3.615  0.00  0.00    +0.050 A 
ATOM     24  C   UNL     1      -0.332   3.618   2.341  0.00  0.00    +0.011 A 
ATOM     25  C   UNL     1      -0.645   4.473   1.300  0.00  0.00    -0.005 A 
ATOM     26  C   UNL     1      -1.428   5.589   1.530  0.00  0.00    +0.056 A 
ATOM     27  C   UNL     1      -1.910   5.847   2.803  0.00  0.00    +0.162 A 
BRANCH  22  29
ATOM     28  C   UNL     1      -1.700   4.313   6.128  0.00  0.00    +0.277 C 
ATOM     29  O   UNL     1      -2.062   5.239   5.102  0.00  0.00    -0.491 OA
ENDBRANCH  22  29
BRANCH  27  30
ATOM     30  O   UNL     1      -2.685   6.941   3.029  0.00  0.00    -0.491 OA
ATOM     31  C   UNL     1      -2.968   7.779   1.906  0.00  0.00    +0.277 C 
ENDBRANCH  27  30
ENDBRANCH   1  25
TORSDOF 4
