REMARK  Name = ZINC13033816
REMARK  9 active torsions:
REMARK  status: ('A' for Active; 'I' for Inactive)
REMARK    1  A    between atoms: C_1  and  O_2
REMARK    2  A    between atoms: O_2  and  C_3
REMARK    3  A    between atoms: C_6  and  C_9
REMARK    4  A    between atoms: C_9  and  N_10
REMARK    5  A    between atoms: C_11  and  C_15
REMARK    6  A    between atoms: C_15  and  N_70
REMARK    7  A    between atoms: C_16  and  C_17
REMARK    8  A    between atoms: C_16  and  N_70
REMARK    9  A    between atoms: C_33  and  N_70
REMARK                            x       y       z     vdW  Elec       q    Type
REMARK                         _______ _______ _______ _____ _____    ______ ____
ROOT
ATOM      1  N   UNL     1      -1.947   2.356   1.415  0.00  0.00    +0.389 N 
ATOM      2  H   UNL     1      -2.080   1.387   1.726  0.00  0.00    -0.080 HD
ENDROOT
BRANCH   1   3
ATOM      3  C   UNL     1      -0.897   2.987   2.242  0.00  0.00    -0.068 C 
ATOM      4  C   UNL     1      -0.455   4.315   1.625  0.00  0.00    -0.015 C 
ATOM      5  C   UNL     1       0.635   4.944   2.496  0.00  0.00    -0.002 C 
ATOM      6  C   UNL     1       1.833   3.996   2.577  0.00  0.00    -0.000 C 
ATOM      7  C   UNL     1       1.391   2.667   3.194  0.00  0.00    -0.002 C 
ATOM      8  C   UNL     1       0.301   2.038   2.323  0.00  0.00    -0.015 C 
ENDBRANCH   1   3
BRANCH   1   9
ATOM      9  C   UNL     1      -1.538   2.353  -0.005  0.00  0.00    +0.001 C 
BRANCH   9  11
ATOM     10  N   UNL     1      -3.521   1.747  -1.490  0.00  0.00    -0.227 N 
ATOM     11  C   UNL     1      -2.437   1.413  -0.766  0.00  0.00    +0.135 A 
ATOM     12  N   UNL     1      -2.317   0.110  -0.848  0.00  0.00    -0.115 NA
ATOM     13  N   UNL     1      -3.278  -0.333  -1.583  0.00  0.00    -0.023 NA
ATOM     14  N   UNL     1      -4.008   0.654  -1.972  0.00  0.00    -0.044 NA
BRANCH  10  15
ATOM     15  C   UNL     1      -4.050   3.098  -1.690  0.00  0.00    +0.182 C 
BRANCH  15  19
ATOM     16  C   UNL     1      -2.591   4.663  -5.390  0.00  0.00    +0.120 A 
ATOM     17  C   UNL     1      -3.807   3.996  -5.349  0.00  0.00    +0.046 A 
ATOM     18  C   UNL     1      -4.277   3.492  -4.152  0.00  0.00    +0.009 A 
ATOM     19  C   UNL     1      -3.536   3.650  -2.995  0.00  0.00    -0.026 A 
ATOM     20  C   UNL     1      -2.326   4.319  -3.032  0.00  0.00    +0.009 A 
ATOM     21  C   UNL     1      -1.850   4.822  -4.228  0.00  0.00    +0.046 A 
BRANCH  16  23
ATOM     22  C   UNL     1      -0.868   5.836  -6.533  0.00  0.00    +0.277 C 
ATOM     23  O   UNL     1      -2.127   5.161  -6.566  0.00  0.00    -0.495 OA
ENDBRANCH  16  23
ENDBRANCH  15  19
ENDBRANCH  10  15
ENDBRANCH   9  11
ENDBRANCH   1   9
BRANCH   1  24
ATOM     24  C   UNL     1      -3.221   3.089   1.571  0.00  0.00    -0.037 C 
BRANCH  24  25
ATOM     25  C   UNL     1      -3.727   2.891   2.977  0.00  0.00    +0.001 A 
ATOM     26  C   UNL     1      -3.455   3.819   3.930  0.00  0.00    +0.017 A 
ATOM     27  C   UNL     1      -3.964   3.600   5.284  0.00  0.00    +0.002 A 
ATOM     28  C   UNL     1      -3.719   4.525   6.306  0.00  0.00    +0.059 A 
ATOM     29  C   UNL     1      -4.209   4.291   7.573  0.00  0.00    +0.163 A 
ATOM     30  C   UNL     1      -4.947   3.134   7.840  0.00  0.00    +0.164 A 
ATOM     31  C   UNL     1      -5.193   2.213   6.836  0.00  0.00    +0.075 A 
ATOM     32  C   UNL     1      -4.707   2.434   5.554  0.00  0.00    +0.053 A 
ATOM     33  N   UNL     1      -4.942   1.527   4.541  0.00  0.00    -0.322 N 
ATOM     34  H   UNL     1      -5.453   0.724   4.728  0.00  0.00    +0.169 HD
ATOM     35  C   UNL     1      -4.474   1.740   3.299  0.00  0.00    +0.251 A 
ATOM     36  O   UNL     1      -4.702   0.917   2.429  0.00  0.00    -0.268 OA
ATOM     37  O   UNL     1      -5.437   2.897   9.087  0.00  0.00    -0.485 OA
ATOM     38  C   UNL     1      -4.859   3.649  10.159  0.00  0.00    +0.270 C 
ATOM     39  C   UNL     1      -4.780   5.119   9.728  0.00  0.00    +0.270 C 
ATOM     40  O   UNL     1      -3.960   5.199   8.557  0.00  0.00    -0.485 OA
ENDBRANCH  24  25
ENDBRANCH   1  24
TORSDOF 8
