REMARK  Name = ZINC23055547
REMARK  8 active torsions:
REMARK  status: ('A' for Active; 'I' for Inactive)
REMARK    1  A    between atoms: C_1  and  C_2
REMARK    2  A    between atoms: C_2  and  C_4
REMARK    3  A    between atoms: C_2  and  S_21
REMARK    4  A    between atoms: N_12  and  C_13
REMARK    5  A    between atoms: C_13  and  C_14
REMARK    6  A    between atoms: S_21  and  C_22
REMARK    7  A    between atoms: C_25  and  C_28
REMARK    8  A    between atoms: N_26  and  N_27
REMARK                            x       y       z     vdW  Elec       q    Type
REMARK                         _______ _______ _______ _____ _____    ______ ____
ROOT
ATOM      1  C   UNL     1      -3.715   1.522   2.169  0.00  0.00    +0.124 A 
ATOM      2  N   UNL     1      -3.881   0.989   3.345  0.00  0.00    -0.231 NA
ATOM      3  C   UNL     1      -3.211  -0.190   3.411  0.00  0.00    +0.091 A 
ATOM      4  C   UNL     1      -3.051  -1.152   4.412  0.00  0.00    +0.050 A 
ATOM      5  C   UNL     1      -2.288  -2.272   4.168  0.00  0.00    +0.043 A 
ATOM      6  C   UNL     1      -1.676  -2.453   2.934  0.00  0.00    +0.022 A 
ATOM      7  C   UNL     1      -1.823  -1.513   1.937  0.00  0.00    +0.029 A 
ATOM      8  C   UNL     1      -2.593  -0.380   2.163  0.00  0.00    +0.069 A 
ATOM      9  N   UNL     1      -2.927   0.722   1.401  0.00  0.00    -0.322 N 
ATOM     10 CL   UNL     1      -2.091  -3.468   5.411  0.00  0.00    -0.083 Cl
ENDROOT
BRANCH   1  12
ATOM     11  C   UNL     1      -5.801   2.648   1.444  0.00  0.00    +0.027 C 
ATOM     12  C   UNL     1      -4.309   2.833   1.724  0.00  0.00    +0.117 C 
BRANCH  12  13
ATOM     13  S   UNL     1      -4.087   4.069   3.027  0.00  0.00    -0.074 S 
BRANCH  13  14
ATOM     14  C   UNL     1      -4.714   5.496   2.205  0.00  0.00    +0.209 A 
ATOM     15  N   UNL     1      -5.190   5.544   0.981  0.00  0.00    -0.120 NA
ATOM     16  N   UNL     1      -5.562   6.741   0.697  0.00  0.00    -0.123 NA
ATOM     17  C   UNL     1      -5.346   7.533   1.724  0.00  0.00    +0.217 A 
ATOM     18  N   UNL     1      -4.802   6.758   2.724  0.00  0.00    -0.221 N 
BRANCH  17  19
ATOM     19  C   UNL     1      -5.638   8.974   1.795  0.00  0.00    +0.173 A 
ATOM     20  C   UNL     1      -6.426   9.674   0.932  0.00  0.00    +0.053 A 
ATOM     21  C   UNL     1      -6.427  11.010   1.376  0.00  0.00    +0.042 A 
ATOM     22  C   UNL     1      -5.641  11.063   2.470  0.00  0.00    +0.196 A 
ATOM     23  O   UNL     1      -5.166   9.832   2.720  0.00  0.00    -0.460 OA
ENDBRANCH  17  19
BRANCH  18  24
ATOM     24  N   UNL     1      -4.426   7.165   3.973  0.00  0.00    -0.294 N 
ATOM     25  H   UNL     1      -4.550   8.217   4.269  0.00  0.00    +0.163 HD
ATOM     26  H   UNL     1      -3.998   6.440   4.682  0.00  0.00    +0.163 HD
ENDBRANCH  18  24
ENDBRANCH  13  14
ENDBRANCH  12  13
ENDBRANCH   1  12
BRANCH   9  27
ATOM     27  C   UNL     1      -2.514   0.980   0.019  0.00  0.00    +0.158 C 
BRANCH  27  28
ATOM     28  C   UNL     1      -1.219   1.751   0.017  0.00  0.00    -0.028 A 
ATOM     29  C   UNL     1      -0.013   1.076   0.008  0.00  0.00    +0.005 A 
ATOM     30  C   UNL     1       1.175   1.783   0.000  0.00  0.00    +0.000 A 
ATOM     31  C   UNL     1       1.156   3.165   0.008  0.00  0.00    +0.000 A 
ATOM     32  C   UNL     1      -0.050   3.840   0.022  0.00  0.00    +0.000 A 
ATOM     33  C   UNL     1      -1.238   3.133   0.030  0.00  0.00    +0.005 A 
ENDBRANCH  27  28
ENDBRANCH   9  27
TORSDOF 7
