REMARK  Name = ZINC17051063
REMARK  5 active torsions:
REMARK  status: ('A' for Active; 'I' for Inactive)
REMARK    1  A    between atoms: C_1  and  C_2
REMARK    2  A    between atoms: C_5  and  S_8
REMARK    3  A    between atoms: S_8  and  N_11
REMARK    4  A    between atoms: C_14  and  C_17
REMARK    5  A    between atoms: C_17  and  N_18
REMARK                            x       y       z     vdW  Elec       q    Type
REMARK                         _______ _______ _______ _____ _____    ______ ____
ROOT
ATOM      1  N   UNL     1       1.674  -4.961  -0.045  0.00  0.00    -0.103 NA
ATOM      2  C   UNL     1       1.963  -6.239  -0.062  0.00  0.00    +0.192 A 
ATOM      3  N   UNL     1       3.196  -6.856  -0.060  0.00  0.00    -0.335 N 
ATOM      4  C   UNL     1       3.241  -8.219  -0.081  0.00  0.00    +0.039 A 
ATOM      5  C   UNL     1       2.112  -8.927  -0.101  0.00  0.00    +0.071 A 
ATOM      6  S   UNL     1       0.866  -7.648  -0.085  0.00  0.00    -0.056 S 
ATOM      7  H   UNL     1       4.012  -6.332  -0.046  0.00  0.00    +0.168 HD
ENDROOT
BRANCH   1   8
ATOM      8  S   UNL     1       0.092  -4.470  -0.044  0.00  0.00    +0.101 S 
ATOM      9  O   UNL     1      -0.463  -4.893   1.194  0.00  0.00    -0.146 OA
ATOM     10  O   UNL     1      -0.455  -4.859  -1.296  0.00  0.00    -0.146 OA
BRANCH   8  15
ATOM     11  C   UNL     1       0.093   1.563   0.040  0.00  0.00    +0.044 C 
ATOM     12  C   UNL     1       0.093   0.056   0.019  0.00  0.00    -0.050 A 
ATOM     13  C   UNL     1       0.098  -0.619  -1.188  0.00  0.00    +0.005 A 
ATOM     14  C   UNL     1       0.098  -2.001  -1.207  0.00  0.00    +0.029 A 
ATOM     15  C   UNL     1       0.093  -2.708  -0.019  0.00  0.00    +0.113 A 
ATOM     16  C   UNL     1       0.089  -2.034   1.187  0.00  0.00    +0.029 A 
ATOM     17  C   UNL     1       0.094  -0.652   1.207  0.00  0.00    +0.005 A 
ENDBRANCH   8  15
ENDBRANCH   1   8
BRANCH   4  18
ATOM     18  C   UNL     1       4.572  -8.926  -0.080  0.00  0.00    +0.138 C 
BRANCH  18  19
ATOM     19  N   UNL     1       5.290  -8.620  -1.324  0.00  0.00    -0.294 NA
ATOM     20  C   UNL     1       4.589  -9.181  -2.487  0.00  0.00    +0.104 C 
ATOM     21  C   UNL     1       5.264  -8.690  -3.772  0.00  0.00    +0.122 C 
ATOM     22  N   UNL     1       6.698  -9.009  -3.697  0.00  0.00    -0.314 N 
ATOM     23  C   UNL     1       7.440  -8.599  -2.495  0.00  0.00    +0.122 C 
ATOM     24  C   UNL     1       6.679  -9.094  -1.261  0.00  0.00    +0.104 C 
ATOM     25  C   UNL     1       7.335  -9.679  -4.735  0.00  0.00    +0.099 A 
ATOM     26  C   UNL     1       6.588 -10.161  -5.805  0.00  0.00    +0.042 A 
ATOM     27  C   UNL     1       7.235 -10.827  -6.831  0.00  0.00    +0.005 A 
ATOM     28  C   UNL     1       8.612 -10.989  -6.751  0.00  0.00    +0.018 A 
ATOM     29  C   UNL     1       9.290 -10.485  -5.660  0.00  0.00    +0.084 A 
ATOM     30  N   UNL     1       8.648  -9.849  -4.698  0.00  0.00    -0.350 N 
ATOM     31  H   UNL     1       9.149  -9.501  -3.944  0.00  0.00    +0.166 HD
ENDBRANCH  18  19
ENDBRANCH   4  18
TORSDOF 4
