REMARK  Name = ZINC36046196
REMARK  14 active torsions:
REMARK  status: ('A' for Active; 'I' for Inactive)
REMARK    1  A    between atoms: C_1  and  C_2
REMARK    2  A    between atoms: C_2  and  C_3
REMARK    3  A    between atoms: C_2  and  C_4
REMARK    4  A    between atoms: C_7  and  N_10
REMARK    5  A    between atoms: C_12  and  C_32
REMARK    6  A    between atoms: N_15  and  C_16
REMARK    7  A    between atoms: C_16  and  C_18
REMARK    8  A    between atoms: C_18  and  N_19
REMARK    9  A    between atoms: N_19  and  C_20
REMARK   10  A    between atoms: C_20  and  C_21
REMARK   11  A    between atoms: C_21  and  N_22
REMARK   12  A    between atoms: N_22  and  C_23
REMARK   13  A    between atoms: N_22  and  C_24
REMARK   14  A    between atoms: C_25  and  C_27
REMARK                            x       y       z     vdW  Elec       q    Type
REMARK                         _______ _______ _______ _____ _____    ______ ____
ROOT
ATOM      1  N   UNL     1       2.349  -2.254  -4.489  0.00  0.00    -0.287 N 
ATOM      2  C   UNL     1       1.834  -2.153  -5.765  0.00  0.00    +0.120 A 
ATOM      3  C   UNL     1       2.656  -2.813  -6.600  0.00  0.00    +0.066 A 
ATOM      4  N   UNL     1       3.701  -3.335  -5.847  0.00  0.00    -0.326 N 
ATOM      5  C   UNL     1       3.500  -2.977  -4.552  0.00  0.00    +0.205 A 
ATOM      6  N   UNL     1       4.289  -3.284  -3.523  0.00  0.00    -0.145 NA
ATOM      7  H   UNL     1       4.444  -3.858  -6.186  0.00  0.00    +0.169 HD
ENDROOT
BRANCH   1  11
ATOM      8  C   UNL     1       0.680  -0.613  -1.041  0.00  0.00    -0.045 A 
ATOM      9  C   UNL     1       0.053  -0.440  -2.261  0.00  0.00    +0.006 A 
ATOM     10  C   UNL     1       0.603  -0.982  -3.406  0.00  0.00    +0.026 A 
ATOM     11  C   UNL     1       1.788  -1.702  -3.330  0.00  0.00    +0.049 A 
ATOM     12  C   UNL     1       2.416  -1.874  -2.103  0.00  0.00    +0.026 A 
ATOM     13  C   UNL     1       1.863  -1.324  -0.964  0.00  0.00    +0.006 A 
BRANCH   8  15
ATOM     14  C   UNL     1      -0.028   1.499   0.049  0.00  0.00    +0.012 C 
ATOM     15  C   UNL     1       0.076  -0.019   0.205  0.00  0.00    +0.013 C 
ATOM     16  C   UNL     1      -1.320  -0.606   0.425  0.00  0.00    +0.012 C 
ENDBRANCH   8  15
ENDBRANCH   1  11
BRANCH   3  17
ATOM     17  C   UNL     1       2.480  -2.957  -8.062  0.00  0.00    -0.000 A 
ATOM     18  C   UNL     1       1.382  -2.375  -8.696  0.00  0.00    +0.010 A 
ATOM     19  C   UNL     1       1.223  -2.513 -10.060  0.00  0.00    +0.001 A 
ATOM     20  C   UNL     1       2.149  -3.228 -10.798  0.00  0.00    +0.000 A 
ATOM     21  C   UNL     1       3.240  -3.808 -10.175  0.00  0.00    +0.001 A 
ATOM     22  C   UNL     1       3.414  -3.671  -8.813  0.00  0.00    +0.010 A 
ENDBRANCH   3  17
BRANCH   6  23
ATOM     23  C   UNL     1       5.390  -4.000  -3.721  0.00  0.00    +0.256 C 
ATOM     24  O   UNL     1       5.677  -4.376  -4.842  0.00  0.00    -0.272 OA
BRANCH  23  25
ATOM     25  C   UNL     1       6.283  -4.347  -2.558  0.00  0.00    +0.205 C 
BRANCH  25  26
ATOM     26  N   UNL     1       7.421  -5.136  -3.035  0.00  0.00    -0.290 N 
ATOM     27  C   UNL     1       7.308  -6.473  -3.163  0.00  0.00    +0.254 C 
ATOM     28  O   UNL     1       8.281  -7.140  -3.463  0.00  0.00    -0.269 OA
BRANCH  27  29
ATOM     29  C   UNL     1       6.014  -7.124  -2.942  0.00  0.00    +0.074 A 
ATOM     30  C   UNL     1       5.710  -8.476  -2.909  0.00  0.00    +0.021 A 
ATOM     31  C   UNL     1       4.391  -8.786  -2.678  0.00  0.00    +0.008 A 
ATOM     32  C   UNL     1       3.498  -7.780  -2.503  0.00  0.00    +0.046 A 
ATOM     33  S   UNL     1       4.421  -6.383  -2.638  0.00  0.00    -0.092 S 
ENDBRANCH  27  29
BRANCH  26  34
ATOM     34  C   UNL     1       8.683  -4.472  -3.372  0.00  0.00    +0.090 C 
BRANCH  34  35
ATOM     35  C   UNL     1       9.574  -4.410  -2.130  0.00  0.00    -0.060 C 
BRANCH  35  36
ATOM     36  N   UNL     1      10.839  -3.744  -2.467  0.00  0.00    +0.377 N 
ATOM     37  C   UNL     1      10.575  -2.344  -2.827  0.00  0.00    -0.097 C 
ATOM     38  C   UNL     1      11.742  -3.790  -1.309  0.00  0.00    -0.097 C 
ATOM     39  H   UNL     1      11.270  -4.216  -3.248  0.00  0.00    -0.083 HD
ENDBRANCH  35  36
ENDBRANCH  34  35
ENDBRANCH  26  34
ENDBRANCH  25  26
ENDBRANCH  23  25
ENDBRANCH   6  23
TORSDOF 10
