REMARK  Name = ZINC12713395
REMARK  11 active torsions:
REMARK  status: ('A' for Active; 'I' for Inactive)
REMARK    1  A    between atoms: C_1  and  C_2
REMARK    2  A    between atoms: C_2  and  C_30
REMARK    3  A    between atoms: N_8  and  C_9
REMARK    4  A    between atoms: C_12  and  O_15
REMARK    5  A    between atoms: O_15  and  C_16
REMARK    6  A    between atoms: C_17  and  N_58
REMARK    7  A    between atoms: C_20  and  C_21
REMARK    8  A    between atoms: C_20  and  N_58
REMARK    9  A    between atoms: C_25  and  O_28
REMARK   10  A    between atoms: C_26  and  O_27
REMARK   11  A    between atoms: O_28  and  C_29
REMARK                            x       y       z     vdW  Elec       q    Type
REMARK                         _______ _______ _______ _____ _____    ______ ____
ROOT
ATOM      1  C   UNL     1       3.814   4.576   0.762  0.00  0.00    +0.011 C 
ATOM      2  C   UNL     1       3.202   3.175   0.809  0.00  0.00    -0.031 C 
ATOM      3  C   UNL     1       1.753   3.233   0.310  0.00  0.00    +0.062 C 
ATOM      4  C   UNL     1       1.255   1.821   0.130  0.00  0.00    +0.047 A 
ATOM      5  C   UNL     1       2.062   0.731   0.063  0.00  0.00    -0.020 A 
ATOM      6  C   UNL     1       1.256  -0.393  -0.101  0.00  0.00    +0.137 A 
ATOM      7  N   UNL     1       0.006   0.003  -0.134  0.00  0.00    -0.174 NA
ATOM      8  N   UNL     1      -0.017   1.399   0.010  0.00  0.00    -0.237 N 
ATOM      9  C   UNL     1       3.567   0.786   0.155  0.00  0.00    -0.037 C 
ATOM     10  C   UNL     1       4.013   2.234  -0.086  0.00  0.00    -0.005 C 
ATOM     11  C   UNL     1       3.226   2.656   2.248  0.00  0.00    +0.011 C 
ENDROOT
BRANCH   8  12
ATOM     12  C   UNL     1      -1.161   2.210   0.020  0.00  0.00    +0.066 A 
ATOM     13  C   UNL     1      -2.294   1.805   0.713  0.00  0.00    +0.031 A 
ATOM     14  C   UNL     1      -3.418   2.606   0.727  0.00  0.00    +0.048 A 
ATOM     15  C   UNL     1      -3.420   3.811   0.039  0.00  0.00    +0.120 A 
ATOM     16  C   UNL     1      -2.291   4.214  -0.659  0.00  0.00    +0.048 A 
ATOM     17  C   UNL     1      -1.164   3.416  -0.668  0.00  0.00    +0.031 A 
BRANCH  15  18
ATOM     18  O   UNL     1      -4.529   4.597   0.049  0.00  0.00    -0.495 OA
ATOM     19  C   UNL     1      -5.656   4.120   0.788  0.00  0.00    +0.277 C 
ENDBRANCH  15  18
ENDBRANCH   8  12
BRANCH   9  20
ATOM     20  N   UNL     1       4.161  -0.086  -0.875  0.00  0.00    +0.386 N 
ATOM     21  H   UNL     1       5.104   0.250  -1.102  0.00  0.00    -0.085 HD
ATOM     22  H   UNL     1       3.576  -0.060  -1.719  0.00  0.00    -0.085 HD
BRANCH  20  23
ATOM     23  C   UNL     1       4.244  -1.475  -0.385  0.00  0.00    -0.042 C 
BRANCH  23  24
ATOM     24  C   UNL     1       4.853  -2.342  -1.456  0.00  0.00    -0.019 A 
ATOM     25  C   UNL     1       4.041  -3.124  -2.257  0.00  0.00    +0.005 A 
ATOM     26  C   UNL     1       4.596  -3.919  -3.242  0.00  0.00    +0.004 A 
ATOM     27  C   UNL     1       5.966  -3.938  -3.429  0.00  0.00    +0.049 A 
ATOM     28  C   UNL     1       6.785  -3.157  -2.630  0.00  0.00    +0.161 A 
ATOM     29  C   UNL     1       6.226  -2.352  -1.642  0.00  0.00    +0.160 A 
BRANCH  29  30
ATOM     30  O   UNL     1       7.025  -1.580  -0.858  0.00  0.00    -0.503 OA
ATOM     31  H   UNL     1       7.330  -2.020  -0.053  0.00  0.00    +0.292 HD
ENDBRANCH  29  30
BRANCH  28  32
ATOM     32  O   UNL     1       8.133  -3.174  -2.813  0.00  0.00    -0.491 OA
ATOM     33  C   UNL     1       8.636  -4.019  -3.849  0.00  0.00    +0.277 C 
ENDBRANCH  28  32
ENDBRANCH  23  24
ENDBRANCH  20  23
ENDBRANCH   9  20
TORSDOF 7
