REMARK  Name = ZINC03882424
REMARK  2 active torsions:
REMARK  status: ('A' for Active; 'I' for Inactive)
REMARK    1  A    between atoms: C_4  and  N_6
REMARK    2  A    between atoms: C_14  and  C_20
REMARK                            x       y       z     vdW  Elec       q    Type
REMARK                         _______ _______ _______ _____ _____    ______ ____
ROOT
ATOM      1  N   UNL     1       1.136  -1.207  -1.821  0.00  0.00    -0.295 N 
ATOM      2  C   UNL     1       1.643  -2.596  -2.054  0.00  0.00    +0.148 C 
ATOM      3  C   UNL     1       1.694  -2.660  -3.549  0.00  0.00    +0.116 C 
ATOM      4  C   UNL     1       2.811  -1.818  -4.137  0.00  0.00    +0.008 C 
ATOM      5  C   UNL     1       2.733  -1.983  -5.450  0.00  0.00    +0.004 C 
ATOM      6  C   UNL     1       1.513  -2.888  -5.664  0.00  0.00    +0.157 C 
ATOM      7  O   UNL     1       1.564  -3.739  -4.444  0.00  0.00    -0.359 OA
ATOM      8  C   UNL     1       0.315  -1.907  -5.359  0.00  0.00    +0.150 C 
ATOM      9  C   UNL     1       0.316  -1.937  -3.830  0.00  0.00    +0.129 C 
ATOM     10  C   UNL     1       0.431  -0.782  -2.922  0.00  0.00    +0.223 C 
ATOM     11  O   UNL     1      -0.010   0.331  -3.111  0.00  0.00    -0.275 OA
ENDROOT
BRANCH   1  15
ATOM     12  C   UNL     1      -0.019   1.538   0.011  0.00  0.00    +0.002 C 
ATOM     13  C   UNL     1       1.477   1.939  -0.002  0.00  0.00    +0.002 C 
ATOM     14  C   UNL     1       2.107   0.881  -0.942  0.00  0.00    +0.022 C 
ATOM     15  C   UNL     1       1.353  -0.422  -0.604  0.00  0.00    +0.076 C 
ATOM     16  C   UNL     1       0.002  -0.004   0.002  0.00  0.00    +0.022 C 
ENDBRANCH   1  15
BRANCH   8  17
ATOM     17  C   UNL     1       0.596  -0.527  -5.892  0.00  0.00    +0.363 C 
ATOM     18  O   UNL     1       0.761  -0.357  -7.088  0.00  0.00    -0.246 OA
ATOM     19  O   UNL     1       0.658   0.421  -5.128  0.00  0.00    -0.246 OA
ENDBRANCH   8  17
TORSDOF 2
