REMARK  Name = ZINC20883885
REMARK  12 active torsions:
REMARK  status: ('A' for Active; 'I' for Inactive)
REMARK    1  A    between atoms: C_1  and  C_2
REMARK    2  A    between atoms: C_2  and  C_3
REMARK    3  A    between atoms: C_2  and  O_4
REMARK    4  A    between atoms: O_4  and  C_5
REMARK    5  A    between atoms: C_8  and  C_11
REMARK    6  A    between atoms: C_16  and  C_26
REMARK    7  A    between atoms: C_28  and  O_36
REMARK    8  A    between atoms: C_29  and  O_34
REMARK    9  A    between atoms: C_31  and  O_32
REMARK   10  A    between atoms: O_32  and  C_33
REMARK   11  A    between atoms: O_34  and  C_35
REMARK   12  A    between atoms: O_36  and  C_37
REMARK                            x       y       z     vdW  Elec       q    Type
REMARK                         _______ _______ _______ _____ _____    ______ ____
ROOT
ATOM      1  C   UNL     1      -3.631   6.809   0.812  0.00  0.00    +0.032 C 
ATOM      2  C   UNL     1      -2.787   7.982   0.317  0.00  0.00    +0.059 C 
ATOM      3  C   UNL     1      -3.666   9.206   0.116  0.00  0.00    +0.017 C 
ATOM      4  C   UNL     1      -4.949   9.069  -0.261  0.00  0.00    +0.037 C 
ATOM      5  C   UNL     1      -5.928  10.195  -0.495  0.00  0.00    +0.140 C 
ATOM      6  N   UNL     1      -5.329  11.512  -0.542  0.00  0.00    -0.331 N 
ATOM      7  C   UNL     1      -4.712  12.061   0.580  0.00  0.00    +0.049 A 
ATOM      8  C   UNL     1      -5.215  13.192   1.203  0.00  0.00    +0.025 A 
ATOM      9  C   UNL     1      -4.594  13.673   2.343  0.00  0.00    +0.002 A 
ATOM     10  C   UNL     1      -3.485  13.030   2.861  0.00  0.00    +0.002 A 
ATOM     11  C   UNL     1      -2.970  11.910   2.231  0.00  0.00    +0.025 A 
ATOM     12  C   UNL     1      -3.576  11.441   1.078  0.00  0.00    +0.052 A 
ATOM     13  N   UNL     1      -3.046  10.393   0.335  0.00  0.00    -0.316 N 
ATOM     14  C   UNL     1      -5.498   7.782  -0.465  0.00  0.00    +0.163 C 
ATOM     15  O   UNL     1      -6.653   7.688  -0.831  0.00  0.00    -0.292 OA
ATOM     16  C   UNL     1      -4.706   6.528  -0.245  0.00  0.00    +0.088 C 
ATOM     17  H   UNL     1      -5.357  12.096  -1.474  0.00  0.00    +0.147 HD
ATOM     18  H   UNL     1      -2.049  10.580  -0.089  0.00  0.00    +0.152 HD
ENDROOT
BRANCH   1  22
ATOM     19  C   UNL     1      -1.160   3.360   1.320  0.00  0.00    +0.121 A 
ATOM     20  C   UNL     1      -1.269   3.960   0.073  0.00  0.00    +0.046 A 
ATOM     21  C   UNL     1      -2.072   5.072  -0.089  0.00  0.00    +0.007 A 
ATOM     22  C   UNL     1      -2.760   5.593   0.991  0.00  0.00    -0.043 A 
ATOM     23  C   UNL     1      -2.649   5.000   2.235  0.00  0.00    +0.007 A 
ATOM     24  C   UNL     1      -1.851   3.885   2.402  0.00  0.00    +0.046 A 
BRANCH  19  25
ATOM     25  O   UNL     1      -0.375   2.263   1.481  0.00  0.00    -0.489 OA
BRANCH  25  27
ATOM     26  C   UNL     1       1.101   0.993   2.912  0.00  0.00    +0.051 C 
ATOM     27  C   UNL     1      -0.211   1.772   2.813  0.00  0.00    +0.167 C 
ATOM     28  C   UNL     1      -1.380   0.849   3.163  0.00  0.00    +0.051 C 
ENDBRANCH  25  27
ENDBRANCH  19  25
ENDBRANCH   1  22
BRANCH   5  29
ATOM     29  C   UNL     1      -6.952  10.175   0.610  0.00  0.00    +0.023 A 
ATOM     30  C   UNL     1      -6.698   9.475   1.774  0.00  0.00    +0.058 A 
ATOM     31  C   UNL     1      -7.638   9.455   2.791  0.00  0.00    +0.162 A 
ATOM     32  C   UNL     1      -8.839  10.141   2.640  0.00  0.00    +0.165 A 
ATOM     33  C   UNL     1      -9.092  10.842   1.473  0.00  0.00    +0.095 A 
ATOM     34  C   UNL     1      -8.146  10.864   0.459  0.00  0.00    +0.129 A 
BRANCH  34  35
ATOM     35  O   UNL     1      -8.391  11.557  -0.684  0.00  0.00    -0.495 OA
ATOM     36  C   UNL     1      -9.642  12.243  -0.772  0.00  0.00    +0.277 C 
ENDBRANCH  34  35
BRANCH  32  37
ATOM     37  O   UNL     1      -9.764  10.123   3.638  0.00  0.00    -0.491 OA
ATOM     38  C   UNL     1     -10.974  10.849   3.414  0.00  0.00    +0.277 C 
ENDBRANCH  32  37
BRANCH  31  39
ATOM     39  O   UNL     1      -7.387   8.766   3.937  0.00  0.00    -0.491 OA
ATOM     40  C   UNL     1      -6.133   8.085   4.024  0.00  0.00    +0.277 C 
ENDBRANCH  31  39
ENDBRANCH   5  29
TORSDOF 7
