REMARK  Name = ZINC12293574
REMARK  5 active torsions:
REMARK  status: ('A' for Active; 'I' for Inactive)
REMARK    1  A    between atoms: C_6  and  C_11
REMARK    2  A    between atoms: C_11  and  C_13
REMARK    3  A    between atoms: C_11  and  O_30
REMARK    4  A    between atoms: C_13  and  N_56
REMARK    5  A    between atoms: C_20  and  O_29
REMARK                            x       y       z     vdW  Elec       q    Type
REMARK                         _______ _______ _______ _____ _____    ______ ____
ROOT
ATOM      1  C   UNL     1       4.171  -1.022  -0.793  0.00  0.00    -0.075 C 
ATOM      2  C   UNL     1       5.549  -1.682  -0.698  0.00  0.00    +0.029 C 
ATOM      3  C   UNL     1       6.126  -1.854  -2.104  0.00  0.00    +0.110 C 
ATOM      4  C   UNL     1       6.198  -0.491  -2.795  0.00  0.00    +0.029 C 
ATOM      5  C   UNL     1       4.801   0.134  -2.828  0.00  0.00    -0.075 C 
ATOM      6  C   UNL     1       7.532  -2.457  -2.010  0.00  0.00    +0.084 C 
ATOM      7  C   UNL     1       8.126  -2.517  -3.420  0.00  0.00    +0.152 C 
ATOM      8  C   UNL     1       7.122  -3.119  -4.370  0.00  0.00    +0.023 A 
ATOM      9  C   UNL     1       7.566  -3.602  -5.590  0.00  0.00    +0.010 A 
ATOM     10  C   UNL     1       6.673  -4.149  -6.490  0.00  0.00    +0.001 A 
ATOM     11  C   UNL     1       5.328  -4.215  -6.176  0.00  0.00    +0.004 A 
ATOM     12  C   UNL     1       4.880  -3.738  -4.961  0.00  0.00    +0.046 A 
ATOM     13  C   UNL     1       5.778  -3.190  -4.050  0.00  0.00    +0.127 A 
ATOM     14  O   UNL     1       5.300  -2.736  -2.862  0.00  0.00    -0.485 OA
ATOM     15  N   UNL     1       4.317   0.299  -1.441  0.00  0.00    +0.382 N 
ATOM     16  H   UNL     1       5.000   0.856  -0.914  0.00  0.00    -0.082 HD
ENDROOT
BRANCH   7  17
ATOM     17  O   UNL     1       9.307  -3.322  -3.404  0.00  0.00    -0.387 OA
ATOM     18  H   UNL     1       9.740  -3.401  -4.264  0.00  0.00    +0.210 HD
ENDBRANCH   7  17
BRANCH  15  19
ATOM     19  C   UNL     1       3.019   1.006  -1.442  0.00  0.00    -0.042 C 
BRANCH  19  20
ATOM     20  C   UNL     1       2.480   1.058  -0.011  0.00  0.00    +0.128 C 
BRANCH  20  26
ATOM     21  C   UNL     1      -3.570   3.317   0.095  0.00  0.00    +0.001 A 
ATOM     22  C   UNL     1      -3.598   1.923   0.101  0.00  0.00    +0.001 A 
ATOM     23  C   UNL     1      -2.446   1.199   0.081  0.00  0.00    +0.008 A 
ATOM     24  C   UNL     1      -1.207   1.863   0.049  0.00  0.00    -0.018 A 
ATOM     25  C   UNL     1       0.003   1.149   0.035  0.00  0.00    +0.014 A 
ATOM     26  C   UNL     1       1.184   1.826   0.010  0.00  0.00    -0.020 A 
ATOM     27  C   UNL     1       1.212   3.220   0.004  0.00  0.00    +0.007 A 
ATOM     28  C   UNL     1       0.060   3.944   0.022  0.00  0.00    +0.009 A 
ATOM     29  C   UNL     1      -1.179   3.280   0.049  0.00  0.00    -0.018 A 
ATOM     30  C   UNL     1      -2.389   3.994   0.069  0.00  0.00    +0.008 A 
ENDBRANCH  20  26
BRANCH  20  31
ATOM     31  O   UNL     1       3.432   1.706   0.835  0.00  0.00    -0.389 OA
ATOM     32  H   UNL     1       3.635   2.615   0.573  0.00  0.00    +0.210 HD
ENDBRANCH  20  31
ENDBRANCH  19  20
ENDBRANCH  15  19
TORSDOF 5
