REMARK  Name = ZINC38702162
REMARK  12 active torsions:
REMARK  status: ('A' for Active; 'I' for Inactive)
REMARK    1  A    between atoms: C_1  and  C_2
REMARK    2  A    between atoms: C_2  and  C_3
REMARK    3  A    between atoms: C_3  and  C_4
REMARK    4  A    between atoms: C_4  and  C_5
REMARK    5  A    between atoms: C_5  and  O_6
REMARK    6  A    between atoms: O_6  and  C_7
REMARK    7  A    between atoms: C_11  and  C_13
REMARK    8  A    between atoms: C_16  and  C_32
REMARK    9  A    between atoms: N_23  and  C_24
REMARK   10  A    between atoms: C_34  and  C_40
REMARK   11  A    between atoms: C_36  and  C_39
REMARK   12  A    between atoms: C_37  and  O_38
REMARK                            x       y       z     vdW  Elec       q    Type
REMARK                         _______ _______ _______ _____ _____    ______ ____
ROOT
ATOM      1  C   UNL     1       2.775  -7.640  -5.117  0.00  0.00    +0.142 C 
ATOM      2  C   UNL     1       1.678  -8.386  -5.826  0.00  0.00    +0.035 A 
ATOM      3  C   UNL     1       0.310  -8.663  -5.920  0.00  0.00    +0.102 A 
ATOM      4  N   UNL     1       0.146  -9.512  -6.915  0.00  0.00    -0.173 NA
ATOM      5  N   UNL     1       1.276  -9.798  -7.459  0.00  0.00    -0.272 N 
ATOM      6  H   UNL     1       1.395 -10.402  -8.209  0.00  0.00    +0.189 HD
ATOM      7  C   UNL     1       2.281  -9.126  -6.824  0.00  0.00    +0.126 A 
ATOM      8  C   UNL     1       3.727  -8.879  -6.780  0.00  0.00    +0.266 C 
ATOM      9  O   UNL     1       4.541  -9.383  -7.530  0.00  0.00    -0.268 OA
ATOM     10  N   UNL     1       4.025  -8.016  -5.790  0.00  0.00    -0.280 N 
ENDROOT
BRANCH   3  11
ATOM     11  C   UNL     1      -0.761  -8.104  -5.057  0.00  0.00    +0.044 A 
ATOM     12  C   UNL     1      -0.433  -7.308  -3.962  0.00  0.00    +0.017 A 
ATOM     13  C   UNL     1      -1.432  -6.791  -3.163  0.00  0.00    -0.049 A 
ATOM     14  C   UNL     1      -2.760  -7.060  -3.445  0.00  0.00    +0.010 A 
ATOM     15  C   UNL     1      -3.096  -7.849  -4.529  0.00  0.00    -0.008 A 
ATOM     16  C   UNL     1      -2.103  -8.369  -5.343  0.00  0.00    +0.129 A 
ATOM     17  C   UNL     1      -4.544  -8.137  -4.829  0.00  0.00    +0.047 C 
ATOM     18  C   UNL     1      -1.075  -5.930  -1.978  0.00  0.00    +0.044 C 
BRANCH  16  19
ATOM     19  O   UNL     1      -2.432  -9.139  -6.413  0.00  0.00    -0.506 OA
ATOM     20  H   UNL     1      -2.494 -10.084  -6.213  0.00  0.00    +0.292 HD
ENDBRANCH  16  19
ENDBRANCH   3  11
BRANCH  10  21
ATOM     21  C   UNL     1       5.365  -7.535  -5.444  0.00  0.00    +0.100 C 
ATOM     22  C   UNL     1       5.996  -6.837  -6.659  0.00  0.00    +0.047 C 
ATOM     23  C   UNL     1       7.508  -6.613  -6.413  0.00  0.00    +0.168 C 
ATOM     24  S   UNL     1       7.939  -7.989  -5.272  0.00  0.00    -0.029 S 
ATOM     25  O   UNL     1       8.774  -8.913  -5.957  0.00  0.00    -0.174 OA
ATOM     26  O   UNL     1       8.370  -7.444  -4.032  0.00  0.00    -0.174 OA
ATOM     27  C   UNL     1       6.270  -8.738  -5.053  0.00  0.00    +0.188 C 
ENDBRANCH  10  21
BRANCH   1  32
ATOM     28  C   UNL     1       2.005  -4.050  -4.224  0.00  0.00    +0.121 A 
ATOM     29  C   UNL     1       2.139  -3.425  -5.456  0.00  0.00    +0.045 A 
ATOM     30  C   UNL     1       2.479  -4.167  -6.571  0.00  0.00    +0.004 A 
ATOM     31  C   UNL     1       2.685  -5.529  -6.460  0.00  0.00    +0.006 A 
ATOM     32  C   UNL     1       2.551  -6.154  -5.234  0.00  0.00    -0.019 A 
ATOM     33  C   UNL     1       2.217  -5.416  -4.115  0.00  0.00    +0.051 A 
BRANCH  28  34
ATOM     34  O   UNL     1       1.671  -3.323  -3.125  0.00  0.00    -0.492 OA
BRANCH  34  35
ATOM     35  C   UNL     1       1.468  -1.921  -3.312  0.00  0.00    +0.229 C 
BRANCH  35  36
ATOM     36  C   UNL     1       1.102  -1.276  -1.974  0.00  0.00    +0.041 C 
BRANCH  36  37
ATOM     37  C   UNL     1       0.885   0.226  -2.174  0.00  0.00    +0.003 C 
BRANCH  37  39
ATOM     38  C   UNL     1       0.301   2.372  -1.036  0.00  0.00    +0.004 C 
ATOM     39  C   UNL     1       0.519   0.871  -0.836  0.00  0.00    -0.003 C 
ENDBRANCH  37  39
ENDBRANCH  36  37
ENDBRANCH  35  36
ENDBRANCH  34  35
ENDBRANCH  28  34
ENDBRANCH   1  32
TORSDOF 9
