REMARK  Name = ZINC00635629
REMARK  8 active torsions:
REMARK  status: ('A' for Active; 'I' for Inactive)
REMARK    1  A    between atoms: C_1  and  C_2
REMARK    2  A    between atoms: C_4  and  C_18
REMARK    3  A    between atoms: C_5  and  C_17
REMARK    4  A    between atoms: N_6  and  C_7
REMARK    5  A    between atoms: C_10  and  S_13
REMARK    6  A    between atoms: S_13  and  N_16
REMARK    7  A    between atoms: C_20  and  C_31
REMARK    8  A    between atoms: N_22  and  C_25
REMARK                            x       y       z     vdW  Elec       q    Type
REMARK                         _______ _______ _______ _____ _____    ______ ____
ROOT
ATOM      1  C   UNL     1       2.435   7.003   2.037  0.00  0.00    +0.064 C 
ATOM      2  C   UNL     1       1.455   7.275   0.924  0.00  0.00    +0.022 A 
ATOM      3  C   UNL     1       1.070   8.492   0.508  0.00  0.00    +0.031 A 
ATOM      4  C   UNL     1       0.109   8.273  -0.583  0.00  0.00    -0.003 A 
ATOM      5  C   UNL     1       0.007   6.897  -0.729  0.00  0.00    +0.028 A 
ATOM      6  N   UNL     1       0.821   6.320   0.177  0.00  0.00    -0.317 N 
ATOM      7  C   UNL     1      -0.861   6.173  -1.725  0.00  0.00    +0.064 C 
ENDROOT
BRANCH   4   8
ATOM      8  C   UNL     1      -0.573   9.262  -1.331  0.00  0.00    +0.024 C 
ATOM      9  C   UNL     1      -1.158  10.340  -0.683  0.00  0.00    +0.062 C 
ATOM     10  C   UNL     1      -1.346  10.522   0.763  0.00  0.00    +0.069 C 
ATOM     11  N   UNL     1      -1.929  11.668   0.942  0.00  0.00    -0.177 NA
ATOM     12  N   UNL     1      -2.178  12.306  -0.273  0.00  0.00    -0.156 N 
ATOM     13  C   UNL     1      -1.732  11.548  -1.295  0.00  0.00    +0.272 C 
ATOM     14  O   UNL     1      -1.792  11.811  -2.484  0.00  0.00    -0.268 OA
ATOM     15  C   UNL     1      -0.933   9.555   1.843  0.00  0.00    +0.068 C 
BRANCH  12  16
ATOM     16  C   UNL     1      -2.800  13.553  -0.411  0.00  0.00    +0.060 A 
ATOM     17  C   UNL     1      -2.992  14.099  -1.673  0.00  0.00    +0.025 A 
ATOM     18  C   UNL     1      -3.610  15.327  -1.806  0.00  0.00    +0.002 A 
ATOM     19  C   UNL     1      -4.028  16.018  -0.683  0.00  0.00    +0.000 A 
ATOM     20  C   UNL     1      -3.833  15.479   0.576  0.00  0.00    +0.002 A 
ATOM     21  C   UNL     1      -3.221  14.249   0.715  0.00  0.00    +0.025 A 
ENDBRANCH  12  16
ENDBRANCH   4   8
BRANCH   6  22
ATOM     22  C   UNL     1       0.989   4.938   0.336  0.00  0.00    +0.047 A 
ATOM     23  C   UNL     1       2.218   4.352   0.069  0.00  0.00    +0.028 A 
ATOM     24  C   UNL     1       2.381   2.989   0.227  0.00  0.00    +0.030 A 
ATOM     25  C   UNL     1       1.320   2.209   0.651  0.00  0.00    +0.105 A 
ATOM     26  C   UNL     1       0.093   2.790   0.912  0.00  0.00    +0.030 A 
ATOM     27  C   UNL     1      -0.074   4.153   0.761  0.00  0.00    +0.028 A 
BRANCH  25  28
ATOM     28  S   UNL     1       1.532   0.472   0.851  0.00  0.00    +0.056 S 
ATOM     29  O   UNL     1       0.241  -0.111   0.732  0.00  0.00    -0.153 OA
ATOM     30  O   UNL     1       2.617   0.096   0.015  0.00  0.00    -0.153 OA
BRANCH  28  31
ATOM     31  N   UNL     1       2.025   0.215   2.411  0.00  0.00    -0.204 NA
ATOM     32  H   UNL     1       1.793  -0.611   2.863  0.00  0.00    +0.144 HD
ATOM     33  H   UNL     1       2.546   0.891   2.872  0.00  0.00    +0.144 HD
ENDBRANCH  28  31
ENDBRANCH  25  28
ENDBRANCH   6  22
TORSDOF 5
