REMARK  Name = ZINC64636470
REMARK  9 active torsions:
REMARK  status: ('A' for Active; 'I' for Inactive)
REMARK    1  A    between atoms: C_1  and  O_2
REMARK    2  A    between atoms: O_2  and  C_3
REMARK    3  A    between atoms: C_7  and  C_9
REMARK    4  A    between atoms: C_9  and  N_10
REMARK    5  A    between atoms: C_14  and  C_32
REMARK    6  A    between atoms: N_19  and  C_22
REMARK    7  A    between atoms: C_22  and  C_23
REMARK    8  A    between atoms: C_32  and  O_34
REMARK    9  A    between atoms: O_34  and  C_35
REMARK                            x       y       z     vdW  Elec       q    Type
REMARK                         _______ _______ _______ _____ _____    ______ ____
ROOT
ATOM      1  N   UNL     1       0.146  -4.685   2.649  0.00  0.00    -0.291 N 
ATOM      2  C   UNL     1       0.386  -4.666   3.973  0.00  0.00    +0.217 C 
ATOM      3  O   UNL     1       1.418  -4.289   4.486  0.00  0.00    -0.276 OA
ATOM      4  C   UNL     1      -0.820  -5.181   4.728  0.00  0.00    +0.112 C 
ATOM      5  C   UNL     1      -1.969  -5.124   3.693  0.00  0.00    +0.130 C 
ATOM      6  C   UNL     1      -1.197  -5.194   2.363  0.00  0.00    +0.048 C 
ATOM      7  C   UNL     1      -1.130  -6.641   1.882  0.00  0.00    +0.008 C 
ATOM      8  C   UNL     1      -0.429  -6.691   0.522  0.00  0.00    -0.076 C 
ATOM      9  N   UNL     1      -1.170  -5.871  -0.444  0.00  0.00    +0.382 N 
ATOM     10  C   UNL     1      -1.155  -4.465  -0.022  0.00  0.00    -0.076 C 
ATOM     11  C   UNL     1      -1.887  -4.323   1.315  0.00  0.00    +0.008 C 
ATOM     12  H   UNL     1      -2.124  -6.195  -0.495  0.00  0.00    -0.081 HD
ENDROOT
BRANCH   5  13
ATOM     13  C   UNL     1      -2.730  -3.828   3.803  0.00  0.00    +0.312 C 
ATOM     14  O   UNL     1      -2.192  -2.849   4.265  0.00  0.00    -0.250 OA
BRANCH  13  15
ATOM     15  O   UNL     1      -4.005  -3.760   3.389  0.00  0.00    -0.468 OA
ATOM     16  C   UNL     1      -4.665  -2.500   3.523  0.00  0.00    +0.280 C 
ENDBRANCH  13  15
ENDBRANCH   5  13
BRANCH   1  17
ATOM     17  C   UNL     1       1.101  -4.249   1.627  0.00  0.00    +0.143 C 
BRANCH  17  22
ATOM     18  C   UNL     1       1.177  -0.861  -0.044  0.00  0.00    +0.120 A 
ATOM     19  C   UNL     1       0.633  -0.054   0.946  0.00  0.00    +0.045 A 
ATOM     20  C   UNL     1       0.243  -0.608   2.150  0.00  0.00    +0.004 A 
ATOM     21  C   UNL     1       0.395  -1.965   2.369  0.00  0.00    +0.005 A 
ATOM     22  C   UNL     1       0.937  -2.771   1.385  0.00  0.00    -0.027 A 
ATOM     23  C   UNL     1       1.323  -2.222   0.177  0.00  0.00    +0.050 A 
BRANCH  18  25
ATOM     24  C   UNL     1       1.380   1.091  -1.386  0.00  0.00    +0.277 C 
ATOM     25  O   UNL     1       1.560  -0.318  -1.229  0.00  0.00    -0.495 OA
ENDBRANCH  18  25
ENDBRANCH  17  22
ENDBRANCH   1  17
BRANCH   9  26
ATOM     26  C   UNL     1      -0.544  -5.990  -1.767  0.00  0.00    -0.045 C 
BRANCH  26  27
ATOM     27  C   UNL     1      -1.374  -5.249  -2.784  0.00  0.00    -0.058 C 
ATOM     28  C   UNL     1      -1.189  -3.981  -3.216  0.00  0.00    -0.003 A 
ATOM     29  C   UNL     1      -0.199  -2.950  -2.880  0.00  0.00    +0.010 A 
ATOM     30  C   UNL     1      -0.271  -1.746  -3.491  0.00  0.00    +0.001 A 
ATOM     31  C   UNL     1      -1.267  -1.458  -4.435  0.00  0.00    +0.002 A 
ATOM     32  C   UNL     1      -2.211  -2.353  -4.796  0.00  0.00    +0.026 A 
ATOM     33  C   UNL     1      -2.229  -3.652  -4.216  0.00  0.00    +0.043 A 
ATOM     34  N   UNL     1      -3.026  -4.677  -4.395  0.00  0.00    -0.380 N 
ATOM     35  C   UNL     1      -2.578  -5.775  -3.533  0.00  0.00    +0.142 C 
ATOM     36  H   UNL     1      -3.784  -4.705  -5.000  0.00  0.00    +0.160 HD
ENDBRANCH  26  27
ENDBRANCH   9  26
TORSDOF 7
