REMARK  Name = ZINC51336603
REMARK  13 active torsions:
REMARK  status: ('A' for Active; 'I' for Inactive)
REMARK    1  A    between atoms: C_1  and  C_2
REMARK    2  A    between atoms: C_2  and  N_3
REMARK    3  A    between atoms: N_3  and  C_4
REMARK    4  A    between atoms: N_3  and  C_6
REMARK    5  A    between atoms: C_4  and  C_5
REMARK    6  A    between atoms: C_6  and  C_7
REMARK    7  A    between atoms: C_7  and  N_8
REMARK    8  A    between atoms: C_9  and  C_11
REMARK    9  A    between atoms: C_11  and  O_12
REMARK   10  A    between atoms: O_12  and  N_13
REMARK   11  A    between atoms: C_17  and  C_37
REMARK   12  A    between atoms: C_22  and  C_36
REMARK   13  A    between atoms: C_33  and  O_35
REMARK                            x       y       z     vdW  Elec       q    Type
REMARK                         _______ _______ _______ _____ _____    ______ ____
ROOT
ATOM      1  N   UNL     1       0.001  -7.008   5.559  0.00  0.00    -0.089 NA
ATOM      2  C   UNL     1       0.608  -7.355   6.652  0.00  0.00    +0.080 C 
ATOM      3  C   UNL     1       1.230  -6.320   7.568  0.00  0.00    +0.059 C 
ATOM      4  C   UNL     1       2.585  -6.855   8.026  0.00  0.00    +0.017 C 
ATOM      5  C   UNL     1       2.454  -8.195   8.737  0.00  0.00    -0.007 C 
ATOM      6  C   UNL     1       3.836  -8.794   8.968  0.00  0.00    +0.002 C 
ATOM      7  C   UNL     1       4.749  -8.628   7.762  0.00  0.00    +0.005 C 
ATOM      8  C   UNL     1       6.168  -9.139   8.062  0.00  0.00    +0.010 C 
ATOM      9  C   UNL     1       6.103 -10.591   8.472  0.00  0.00    -0.003 C 
ATOM     10  C   UNL     1       5.155 -10.744   9.677  0.00  0.00    +0.001 C 
ATOM     11  C   UNL     1       3.761 -10.257   9.420  0.00  0.00    -0.003 C 
ATOM     12  C   UNL     1       2.979 -11.088   8.411  0.00  0.00    +0.008 C 
ATOM     13  C   UNL     1       1.519 -10.604   8.432  0.00  0.00    +0.031 C 
ATOM     14  C   UNL     1       1.530  -9.139   8.034  0.00  0.00    -0.062 C 
ATOM     15  C   UNL     1       0.697  -8.763   7.070  0.00  0.00    +0.026 C 
ATOM     16  C   UNL     1       5.373 -12.198  10.089  0.00  0.00    +0.007 C 
ATOM     17  C   UNL     1       6.890 -12.423   9.838  0.00  0.00    +0.032 C 
ATOM     18  C   UNL     1       7.401 -11.156   9.097  0.00  0.00    +0.121 C 
ATOM     19  C   UNL     1       5.747 -11.481   7.283  0.00  0.00    +0.014 C 
ATOM     20  C   UNL     1       1.847  -7.905  10.118  0.00  0.00    +0.016 C 
ENDROOT
BRANCH  18  21
ATOM     21  O   UNL     1       7.966 -10.221  10.013  0.00  0.00    -0.391 OA
ATOM     22  H   UNL     1       8.782 -10.525  10.433  0.00  0.00    +0.210 HD
ENDBRANCH  18  21
BRANCH   1  23
ATOM     23  O   UNL     1      -0.065  -5.643   5.189  0.00  0.00    -0.384 OA
BRANCH  23  24
ATOM     24  C   UNL     1      -0.762  -5.406   3.964  0.00  0.00    +0.358 C 
BRANCH  24  26
ATOM     25  N   UNL     1      -1.377  -3.467   2.557  0.00  0.00    -0.314 N 
ATOM     26  C   UNL     1      -0.771  -3.929   3.669  0.00  0.00    +0.253 C 
ATOM     27  O   UNL     1      -0.233  -3.155   4.431  0.00  0.00    -0.272 OA
ATOM     28  H   UNL     1      -1.807  -4.086   1.946  0.00  0.00    +0.149 HD
BRANCH  25  29
ATOM     29  C   UNL     1      -1.385  -2.030   2.269  0.00  0.00    +0.086 C 
BRANCH  29  30
ATOM     30  C   UNL     1      -2.132  -1.777   0.958  0.00  0.00    -0.060 C 
BRANCH  30  31
ATOM     31  N   UNL     1      -2.140  -0.336   0.670  0.00  0.00    +0.380 N 
ATOM     32  H   UNL     1      -2.528   0.162   1.457  0.00  0.00    -0.082 HD
BRANCH  31  34
ATOM     33  C   UNL     1      -0.757   1.644   0.269  0.00  0.00    -0.017 C 
ATOM     34  C   UNL     1      -0.765   0.123   0.430  0.00  0.00    -0.082 C 
ENDBRANCH  31  34
BRANCH  31  35
ATOM     35  C   UNL     1      -2.958  -0.080  -0.523  0.00  0.00    -0.082 C 
ATOM     36  C   UNL     1      -4.418  -0.426  -0.224  0.00  0.00    -0.017 C 
ENDBRANCH  31  35
ENDBRANCH  30  31
ENDBRANCH  29  30
ENDBRANCH  25  29
ENDBRANCH  24  26
ENDBRANCH  23  24
ENDBRANCH   1  23
TORSDOF 9
