REMARK  Name = ZINC07001670
REMARK  11 active torsions:
REMARK  status: ('A' for Active; 'I' for Inactive)
REMARK    1  A    between atoms: C_1  and  C_2
REMARK    2  A    between atoms: C_7  and  C_9
REMARK    3  A    between atoms: C_7  and  C_10
REMARK    4  A    between atoms: N_13  and  C_17
REMARK    5  A    between atoms: C_17  and  C_18
REMARK    6  A    between atoms: C_18  and  C_20
REMARK    7  A    between atoms: C_23  and  N_26
REMARK    8  A    between atoms: C_27  and  C_29
REMARK    9  A    between atoms: C_29  and  C_30
REMARK   10  A    between atoms: C_30  and  C_31
REMARK   11  A    between atoms: C_30  and  C_32
REMARK                            x       y       z     vdW  Elec       q    Type
REMARK                         _______ _______ _______ _____ _____    ______ ____
ROOT
ATOM      1  C   UNL     1      -2.232  -4.218  -2.995  0.00  0.00    +0.197 C 
ENDROOT
BRANCH   1  13
ATOM      2  C   UNL     1      -0.597   1.695  -0.204  0.00  0.00    +0.007 C 
ATOM      3  C   UNL     1      -0.401   0.176  -0.202  0.00  0.00    -0.011 C 
ATOM      4  C   UNL     1      -1.759  -0.509  -0.035  0.00  0.00    +0.038 C 
ATOM      5  C   UNL     1      -1.581  -2.020  -0.081  0.00  0.00    +0.113 C 
ATOM      6  C   UNL     1      -0.560  -2.523   0.920  0.00  0.00    +0.041 C 
ATOM      7  C   UNL     1       0.728  -1.723   1.000  0.00  0.00    -0.032 C 
ATOM      8  C   UNL     1       0.488  -0.218   0.976  0.00  0.00    +0.009 C 
ATOM      9  C   UNL     1       1.422  -2.067   2.336  0.00  0.00    +0.011 C 
ATOM     10  C   UNL     1       1.685  -2.121  -0.128  0.00  0.00    +0.011 C 
ATOM     11  C   UNL     1      -1.281  -2.485  -1.485  0.00  0.00    +0.247 C 
ATOM     12  O   UNL     1      -0.402  -2.106  -2.229  0.00  0.00    -0.273 OA
ATOM     13  N   UNL     1      -2.221  -3.411  -1.773  0.00  0.00    -0.217 N 
ATOM     14  C   UNL     1      -3.138  -3.497  -0.804  0.00  0.00    +0.310 C 
ATOM     15  O   UNL     1      -4.092  -4.250  -0.841  0.00  0.00    -0.252 OA
ATOM     16  N   UNL     1      -2.883  -2.659   0.216  0.00  0.00    -0.285 N 
ATOM     17  H   UNL     1      -3.432  -2.496   0.996  0.00  0.00    +0.151 HD
ENDBRANCH   1  13
BRANCH   1  18
ATOM     18  C   UNL     1      -1.455  -5.489  -2.765  0.00  0.00    +0.181 C 
ATOM     19  O   UNL     1      -0.943  -5.700  -1.686  0.00  0.00    -0.290 OA
BRANCH  18  20
ATOM     20  C   UNL     1      -1.318  -6.472  -3.847  0.00  0.00    +0.019 A 
ATOM     21  C   UNL     1      -1.903  -6.228  -5.096  0.00  0.00    +0.013 A 
ATOM     22  C   UNL     1      -1.772  -7.149  -6.103  0.00  0.00    +0.024 A 
ATOM     23  C   UNL     1      -1.059  -8.325  -5.886  0.00  0.00    +0.033 A 
ATOM     24  C   UNL     1      -0.476  -8.571  -4.646  0.00  0.00    +0.024 A 
ATOM     25  C   UNL     1      -0.597  -7.654  -3.635  0.00  0.00    +0.013 A 
BRANCH  23  26
ATOM     26  N   UNL     1      -0.928  -9.257  -6.913  0.00  0.00    -0.285 N 
ATOM     27  C   UNL     1      -0.846  -8.843  -8.193  0.00  0.00    +0.217 C 
ATOM     28  O   UNL     1      -0.789  -7.658  -8.445  0.00  0.00    -0.275 OA
ATOM     29  H   UNL     1      -0.896 -10.204  -6.707  0.00  0.00    +0.155 HD
BRANCH  27  30
ATOM     30  C   UNL     1      -0.825  -9.853  -9.312  0.00  0.00    +0.099 C 
BRANCH  30  31
ATOM     31  C   UNL     1      -0.728  -9.125 -10.654  0.00  0.00    -0.008 C 
ATOM     32  C   UNL     1       0.614  -8.394 -10.742  0.00  0.00    +0.008 C 
ATOM     33  C   UNL     1      -0.832 -10.140 -11.793  0.00  0.00    +0.008 C 
ENDBRANCH  30  31
ENDBRANCH  27  30
ENDBRANCH  23  26
ENDBRANCH  18  20
ENDBRANCH   1  18
TORSDOF 6
