REMARK  Name = ZINC00730502
REMARK  0 active torsions:
REMARK  status: ('A' for Active; 'I' for Inactive)
REMARK                            x       y       z     vdW  Elec       q    Type
REMARK                         _______ _______ _______ _____ _____    ______ ____
ROOT
ATOM      1  C   UNL     1      -1.240   3.142   0.027  0.00  0.00    +0.022 A 
ATOM      2  C   UNL     1      -0.062   3.866   0.025  0.00  0.00    +0.025 A 
ATOM      3  C   UNL     1       1.150   3.200   0.019  0.00  0.00    +0.041 A 
ATOM      4  C   UNL     1       1.180   1.794   0.000  0.00  0.00    +0.059 A 
ATOM      5  C   UNL     1      -0.013   1.076   0.008  0.00  0.00    +0.035 A 
ATOM      6  C   UNL     1      -1.215   1.756   0.017  0.00  0.00    +0.042 A 
ATOM      7 CL   UNL     1      -2.707   0.868   0.023  0.00  0.00    -0.084 Cl
ATOM      8  C   UNL     1       2.493   1.124  -0.035  0.00  0.00    +0.247 C 
ATOM      9  O   UNL     1       2.581  -0.045  -0.360  0.00  0.00    -0.270 OA
ATOM     10  N   UNL     1       3.596   1.826   0.299  0.00  0.00    -0.290 N 
ATOM     11  C   UNL     1       3.506   3.228   0.709  0.00  0.00    +0.099 C 
ATOM     12  N   UNL     1       2.367   3.875   0.043  0.00  0.00    -0.323 N 
ATOM     13  C   UNL     1       4.794   3.957   0.319  0.00  0.00    +0.045 C 
ATOM     14  C   UNL     1       5.985   3.298   1.017  0.00  0.00    +0.004 C 
ATOM     15  C   UNL     1       5.795   3.377   2.533  0.00  0.00    +0.000 C 
ATOM     16  C   UNL     1       4.507   2.649   2.924  0.00  0.00    +0.004 C 
ATOM     17  C   UNL     1       3.316   3.308   2.225  0.00  0.00    +0.045 C 
ATOM     18  H   UNL     1       4.464   1.394   0.267  0.00  0.00    +0.151 HD
ATOM     19  H   UNL     1       2.460   4.749  -0.368  0.00  0.00    +0.148 HD
ENDROOT
TORSDOF 0
