REMARK  Name = ZINC02130544
REMARK  5 active torsions:
REMARK  status: ('A' for Active; 'I' for Inactive)
REMARK    1  A    between atoms: C_1  and  C_2
REMARK    2  A    between atoms: C_7  and  C_8
REMARK    3  A    between atoms: C_17  and  C_19
REMARK    4  A    between atoms: C_19  and  C_20
REMARK    5  A    between atoms: N_25  and  C_28
REMARK                            x       y       z     vdW  Elec       q    Type
REMARK                         _______ _______ _______ _____ _____    ______ ____
ROOT
ATOM      1  C   UNL     1      -6.002  -0.801   0.472  0.00  0.00    +0.044 C 
ATOM      2  C   UNL     1      -4.540  -0.446   0.382  0.00  0.00    -0.046 A 
ATOM      3  C   UNL     1      -3.884   0.055   1.491  0.00  0.00    +0.004 A 
ATOM      4  C   UNL     1      -2.542   0.382   1.409  0.00  0.00    +0.005 A 
ATOM      5  C   UNL     1      -1.862   0.208   0.224  0.00  0.00    -0.027 A 
ATOM      6  C   UNL     1      -2.512  -0.298  -0.898  0.00  0.00    +0.039 A 
ATOM      7  C   UNL     1      -3.863  -0.624  -0.806  0.00  0.00    -0.026 A 
ATOM      8  C   UNL     1      -4.587  -1.172  -2.009  0.00  0.00    +0.046 C 
ATOM      9  N   UNL     1      -1.623  -0.386  -1.972  0.00  0.00    -0.286 N 
ATOM     10  C   UNL     1      -0.387   0.039  -1.645  0.00  0.00    +0.211 C 
ATOM     11  O   UNL     1       0.582   0.077  -2.373  0.00  0.00    -0.277 OA
ATOM     12  C   UNL     1      -0.443   0.455  -0.200  0.00  0.00    +0.050 C 
ATOM     13  C   UNL     1       0.548  -0.346   0.652  0.00  0.00    +0.088 C 
ATOM     14  C   UNL     1       1.784   0.585   0.794  0.00  0.00    +0.073 C 
ATOM     15  C   UNL     1       1.419   1.855  -0.002  0.00  0.00    -0.049 C 
ATOM     16  C   UNL     1       1.810   0.909   2.271  0.00  0.00    +0.224 C 
ATOM     17  O   UNL     1       2.619   1.627   2.817  0.00  0.00    -0.275 OA
ATOM     18  N   UNL     1       0.799   0.279   2.881  0.00  0.00    -0.239 N 
ATOM     19  C   UNL     1       0.029  -0.454   2.069  0.00  0.00    +0.225 C 
ATOM     20  O   UNL     1      -0.934  -1.103   2.414  0.00  0.00    -0.275 OA
ATOM     21  H   UNL     1      -1.867  -0.714  -2.852  0.00  0.00    +0.155 HD
ATOM     22  N   UNL     1      -0.046   1.843  -0.036  0.00  0.00    +0.394 N 
ATOM     23  H   UNL     1      -0.424   2.219   0.842  0.00  0.00    -0.083 HD
ATOM     24  H   UNL     1      -0.387   2.405  -0.824  0.00  0.00    -0.083 HD
ENDROOT
BRANCH  18  25
ATOM     25  C   UNL     1       0.554   0.385   4.322  0.00  0.00    +0.084 C 
ATOM     26  C   UNL     1       0.303   1.848   4.691  0.00  0.00    +0.023 C 
ATOM     27  C   UNL     1       0.048   1.958   6.195  0.00  0.00    +0.002 C 
ATOM     28  C   UNL     1       1.269   1.442   6.959  0.00  0.00    +0.000 C 
ATOM     29  C   UNL     1       1.520  -0.021   6.590  0.00  0.00    +0.002 C 
ATOM     30  C   UNL     1       1.776  -0.131   5.085  0.00  0.00    +0.023 C 
ENDBRANCH  18  25
BRANCH  15  31
ATOM     31  C   UNL     1       1.980   1.773  -1.422  0.00  0.00    +0.080 C 
BRANCH  31  32
ATOM     32  C   UNL     1       3.352   2.395  -1.457  0.00  0.00    +0.209 C 
ATOM     33  O   UNL     1       3.833   2.859  -0.445  0.00  0.00    -0.276 OA
ATOM     34  N   UNL     1       4.044   2.437  -2.613  0.00  0.00    -0.329 N 
ATOM     35  H   UNL     1       3.659   2.066  -3.422  0.00  0.00    +0.145 HD
ATOM     36  H   UNL     1       4.927   2.837  -2.635  0.00  0.00    +0.145 HD
ENDBRANCH  31  32
ENDBRANCH  15  31
TORSDOF 3
