REMARK  Name = ZINC08636232
REMARK  10 active torsions:
REMARK  status: ('A' for Active; 'I' for Inactive)
REMARK    1  A    between atoms: C_1  and  N_2
REMARK    2  A    between atoms: N_2  and  C_3
REMARK    3  A    between atoms: N_2  and  C_4
REMARK    4  A    between atoms: C_7  and  N_10
REMARK    5  A    between atoms: N_10  and  C_11
REMARK    6  A    between atoms: C_11  and  N_13
REMARK    7  A    between atoms: N_13  and  C_14
REMARK    8  A    between atoms: C_14  and  C_15
REMARK    9  A    between atoms: C_23  and  C_25
REMARK   10  A    between atoms: C_25  and  N_65
REMARK                            x       y       z     vdW  Elec       q    Type
REMARK                         _______ _______ _______ _____ _____    ______ ____
ROOT
ATOM      1  C   UNL     1      -3.729  -3.430   0.941  0.00  0.00    -0.051 C 
ATOM      2  C   UNL     1      -4.338  -2.724  -0.281  0.00  0.00    -0.010 C 
ATOM      3  C   UNL     1      -3.282  -2.660  -1.392  0.00  0.00    -0.015 C 
ATOM      4  C   UNL     1      -2.852  -4.091  -1.737  0.00  0.00    -0.015 C 
ATOM      5  C   UNL     1      -2.286  -4.758  -0.480  0.00  0.00    -0.078 C 
ATOM      6  C   UNL     1      -1.517  -2.624   0.370  0.00  0.00    -0.076 C 
ATOM      7  C   UNL     1      -2.062  -1.897  -0.863  0.00  0.00    -0.041 C 
ATOM      8  N   UNL     1      -2.331  -3.823   0.664  0.00  0.00    +0.383 N 
ATOM      9  H   UNL     1      -1.947  -4.292   1.493  0.00  0.00    -0.081 HD
ENDROOT
BRANCH   1  10
ATOM     10  C   UNL     1      -3.752  -2.483   2.143  0.00  0.00    +0.088 C 
BRANCH  10  11
ATOM     11  N   UNL     1      -3.061  -3.112   3.272  0.00  0.00    -0.328 N 
ATOM     12  H   UNL     1      -2.680  -3.998   3.174  0.00  0.00    +0.148 HD
BRANCH  11  13
ATOM     13  C   UNL     1      -2.956  -2.458   4.446  0.00  0.00    +0.134 C 
ATOM     14  S   UNL     1      -3.630  -0.893   4.617  0.00  0.00    -0.019 S 
BRANCH  13  15
ATOM     15  N   UNL     1      -2.321  -3.036   5.484  0.00  0.00    -0.297 N 
ATOM     16  H   UNL     1      -1.869  -3.886   5.364  0.00  0.00    +0.154 HD
BRANCH  15  20
ATOM     17  C   UNL     1      -2.299  -1.171   9.214  0.00  0.00    +0.029 A 
ATOM     18  C   UNL     1      -3.459  -1.185   8.452  0.00  0.00    +0.025 A 
ATOM     19  C   UNL     1      -3.467  -1.803   7.218  0.00  0.00    +0.025 A 
ATOM     20  C   UNL     1      -2.313  -2.409   6.738  0.00  0.00    +0.033 A 
ATOM     21  C   UNL     1      -1.154  -2.400   7.502  0.00  0.00    +0.025 A 
ATOM     22  C   UNL     1      -1.145  -1.777   8.734  0.00  0.00    +0.025 A 
BRANCH  17  24
ATOM     23  C   UNL     1      -3.508   0.094  10.973  0.00  0.00    +0.129 C 
ATOM     24  N   UNL     1      -2.291  -0.545  10.466  0.00  0.00    -0.336 N 
ATOM     25  C   UNL     1      -1.067  -0.530  11.270  0.00  0.00    +0.129 C 
ENDBRANCH  17  24
ENDBRANCH  15  20
ENDBRANCH  13  15
ENDBRANCH  11  13
ENDBRANCH  10  11
ENDBRANCH   1  10
BRANCH   7  26
ATOM     26  C   UNL     1      -2.474  -0.474  -0.479  0.00  0.00    -0.077 C 
BRANCH  26  32
ATOM     27  C   UNL     1      -0.442   0.660  -1.136  0.00  0.00    -0.068 C 
ATOM     28  C   UNL     1       0.962   1.007  -0.627  0.00  0.00    +0.050 C 
ATOM     29  S   UNL     1       0.824   2.413   0.520  0.00  0.00    -0.164 S 
ATOM     30  C   UNL     1      -0.491   1.876   1.657  0.00  0.00    +0.050 C 
ATOM     31  C   UNL     1      -1.688   1.406   0.823  0.00  0.00    -0.068 C 
ATOM     32  N   UNL     1      -1.280   0.237   0.011  0.00  0.00    +0.381 N 
ATOM     33  H   UNL     1      -0.733  -0.399   0.602  0.00  0.00    -0.082 HD
ENDBRANCH  26  32
ENDBRANCH   7  26
TORSDOF 8
