REMARK  Name = ZINC65109622
REMARK  7 active torsions:
REMARK  status: ('A' for Active; 'I' for Inactive)
REMARK    1  A    between atoms: C_1  and  C_2
REMARK    2  A    between atoms: C_3  and  C_27
REMARK    3  A    between atoms: C_9  and  C_12
REMARK    4  A    between atoms: C_12  and  N_13
REMARK    5  A    between atoms: C_14  and  C_16
REMARK    6  A    between atoms: C_20  and  N_23
REMARK    7  A    between atoms: C_21  and  N_22
REMARK                            x       y       z     vdW  Elec       q    Type
REMARK                         _______ _______ _______ _____ _____    ______ ____
ROOT
ATOM      1  N   UNL     1      -1.462  -0.389   5.294  0.00  0.00    -0.307 N 
ATOM      2  C   UNL     1      -1.684  -0.346   6.622  0.00  0.00    +0.246 C 
ATOM      3  O   UNL     1      -0.799   0.011   7.376  0.00  0.00    -0.270 OA
ATOM      4  H   UNL     1      -2.167  -0.674   4.693  0.00  0.00    +0.149 HD
ENDROOT
BRANCH   2   5
ATOM      5  C   UNL     1      -3.000  -0.733   7.162  0.00  0.00    +0.062 A 
ATOM      6  C   UNL     1      -4.056  -1.030   6.296  0.00  0.00    +0.053 A 
ATOM      7  C   UNL     1      -5.285  -1.391   6.807  0.00  0.00    +0.126 A 
ATOM      8  C   UNL     1      -5.478  -1.461   8.180  0.00  0.00    +0.073 A 
ATOM      9  C   UNL     1      -4.445  -1.171   9.046  0.00  0.00    +0.150 A 
ATOM     10  C   UNL     1      -3.199  -0.811   8.549  0.00  0.00    +0.068 A 
ATOM     11  F   UNL     1      -6.304  -1.678   5.969  0.00  0.00    -0.205 F 
BRANCH  10  12
ATOM     12  N   UNL     1      -2.155  -0.525   9.421  0.00  0.00    -0.356 N 
ATOM     13  H   UNL     1      -2.338  -0.098  10.273  0.00  0.00    +0.142 HD
ATOM     14  H   UNL     1      -1.244  -0.752   9.178  0.00  0.00    +0.142 HD
ENDBRANCH  10  12
BRANCH   9  15
ATOM     15  N   UNL     1      -4.663  -1.248  10.509  0.00  0.00    +0.058 N 
ATOM     16  O   UNL     1      -5.771  -1.457  10.944  0.00  0.00    -0.126 OA
ATOM     17  O   UNL     1      -3.733  -1.101  11.267  0.00  0.00    -0.126 OA
ENDBRANCH   9  15
ENDBRANCH   2   5
BRANCH   1  18
ATOM     18  C   UNL     1      -0.154  -0.004   4.757  0.00  0.00    +0.139 C 
BRANCH  18  27
ATOM     19  C   UNL     1      -1.355   3.134   0.118  0.00  0.00    +0.046 C 
ATOM     20  C   UNL     1      -0.894   1.705  -0.007  0.00  0.00    -0.022 A 
ATOM     21  C   UNL     1      -0.709   1.023  -1.148  0.00  0.00    +0.017 A 
ATOM     22  N   UNL     1      -0.285  -0.248  -0.869  0.00  0.00    -0.358 N 
ATOM     23  H   UNL     1      -0.085  -0.927  -1.532  0.00  0.00    +0.166 HD
ATOM     24  C   UNL     1      -0.185  -0.419   0.494  0.00  0.00    +0.047 A 
ATOM     25  C   UNL     1      -0.556   0.799   1.093  0.00  0.00    +0.003 A 
ATOM     26  C   UNL     1      -0.543   0.923   2.484  0.00  0.00    +0.015 A 
ATOM     27  C   UNL     1      -0.167  -0.139   3.256  0.00  0.00    -0.030 A 
ATOM     28  C   UNL     1       0.204  -1.341   2.670  0.00  0.00    +0.007 A 
ATOM     29  C   UNL     1       0.190  -1.489   1.300  0.00  0.00    +0.026 A 
ATOM     30  C   UNL     1      -0.934   1.574  -2.532  0.00  0.00    +0.063 C 
ENDBRANCH  18  27
ENDBRANCH   1  18
TORSDOF 5
