REMARK  Name = ZINC09679984
REMARK  9 active torsions:
REMARK  status: ('A' for Active; 'I' for Inactive)
REMARK    1  A    between atoms: C_1  and  C_2
REMARK    2  A    between atoms: C_3  and  C_30
REMARK    3  A    between atoms: C_4  and  C_21
REMARK    4  A    between atoms: C_10  and  C_15
REMARK    5  A    between atoms: C_30  and  O_32
REMARK    6  A    between atoms: O_32  and  C_33
REMARK    7  A    between atoms: C_33  and  C_34
REMARK    8  A    between atoms: C_34  and  O_35
REMARK    9  A    between atoms: O_35  and  C_36
REMARK                            x       y       z     vdW  Elec       q    Type
REMARK                         _______ _______ _______ _____ _____    ______ ____
ROOT
ATOM      1  C   UNL     1       3.737   5.054   2.484  0.00  0.00    +0.061 C 
ATOM      2  C   UNL     1       3.082   4.574   1.215  0.00  0.00    +0.031 C 
ATOM      3  C   UNL     1       1.830   4.087   1.252  0.00  0.00    +0.154 C 
ATOM      4  C   UNL     1       1.147   3.597   0.010  0.00  0.00    +0.073 C 
ATOM      5  C   UNL     1       1.840   4.109  -1.227  0.00  0.00    +0.025 C 
ATOM      6  C   UNL     1       3.099   4.592  -1.162  0.00  0.00    +0.049 C 
ATOM      7  N   UNL     1       3.765   4.636   0.033  0.00  0.00    -0.260 NA
ATOM      8  C   UNL     1       3.803   5.095  -2.398  0.00  0.00    +0.064 C 
ATOM      9  C   UNL     1       2.778   5.670  -3.377  0.00  0.00    +0.032 C 
ATOM     10  C   UNL     1       1.762   4.574  -3.719  0.00  0.00    +0.088 C 
ATOM     11  C   UNL     1       1.140   4.070  -2.446  0.00  0.00    +0.162 C 
ATOM     12  O   UNL     1       0.011   3.620  -2.471  0.00  0.00    -0.292 OA
ENDROOT
BRANCH   4  13
ATOM     13  C   UNL     1       1.170   2.090   0.002  0.00  0.00    -0.035 A 
ATOM     14  C   UNL     1       2.378   1.418  -0.012  0.00  0.00    +0.008 A 
ATOM     15  C   UNL     1       2.405   0.036  -0.021  0.00  0.00    +0.050 A 
ATOM     16  C   UNL     1       1.218  -0.680  -0.014  0.00  0.00    +0.166 A 
ATOM     17  C   UNL     1       0.001  -0.003   0.002  0.00  0.00    +0.167 A 
ATOM     18  C   UNL     1      -0.017   1.382   0.009  0.00  0.00    +0.053 A 
ATOM     19  O   UNL     1      -1.008  -0.922   0.005  0.00  0.00    -0.453 OA
ATOM     20  C   UNL     1      -0.397  -2.163   0.404  0.00  0.00    +0.466 C 
ATOM     21  O   UNL     1       0.971  -2.022  -0.020  0.00  0.00    -0.453 OA
ENDBRANCH   4  13
BRANCH   9  22
ATOM     22  C   UNL     1       3.475   6.124  -4.633  0.00  0.00    -0.044 A 
ATOM     23  C   UNL     1       4.191   5.216  -5.392  0.00  0.00    +0.004 A 
ATOM     24  C   UNL     1       4.827   5.632  -6.547  0.00  0.00    +0.000 A 
ATOM     25  C   UNL     1       4.756   6.956  -6.938  0.00  0.00    +0.000 A 
ATOM     26  C   UNL     1       4.045   7.864  -6.176  0.00  0.00    +0.000 A 
ATOM     27  C   UNL     1       3.405   7.448  -5.024  0.00  0.00    +0.004 A 
ENDBRANCH   9  22
BRANCH   3  28
ATOM     28  C   UNL     1       1.141   4.039   2.487  0.00  0.00    +0.317 C 
ATOM     29  O   UNL     1       1.682   4.436   3.502  0.00  0.00    -0.250 OA
BRANCH  28  30
ATOM     30  O   UNL     1      -0.117   3.553   2.539  0.00  0.00    -0.461 OA
BRANCH  30  31
ATOM     31  C   UNL     1      -0.753   3.535   3.819  0.00  0.00    +0.273 C 
BRANCH  31  32
ATOM     32  C   UNL     1      -2.162   2.954   3.680  0.00  0.00    +0.270 C 
BRANCH  32  33
ATOM     33  O   UNL     1      -2.076   1.585   3.281  0.00  0.00    -0.489 OA
BRANCH  33  34
ATOM     34  C   UNL     1      -3.247   0.917   3.112  0.00  0.00    +0.121 A 
ATOM     35  C   UNL     1      -4.454   1.565   3.331  0.00  0.00    +0.045 A 
ATOM     36  C   UNL     1      -5.644   0.885   3.153  0.00  0.00    +0.004 A 
ATOM     37  C   UNL     1      -5.632  -0.442   2.767  0.00  0.00    +0.000 A 
ATOM     38  C   UNL     1      -4.430  -1.092   2.553  0.00  0.00    +0.004 A 
ATOM     39  C   UNL     1      -3.238  -0.415   2.725  0.00  0.00    +0.045 A 
ENDBRANCH  33  34
ENDBRANCH  32  33
ENDBRANCH  31  32
ENDBRANCH  30  31
ENDBRANCH  28  30
ENDBRANCH   3  28
TORSDOF 8
