REMARK  Name = ZINC39696125
REMARK  8 active torsions:
REMARK  status: ('A' for Active; 'I' for Inactive)
REMARK    1  A    between atoms: C_1  and  C_2
REMARK    2  A    between atoms: C_2  and  C_3
REMARK    3  A    between atoms: C_6  and  C_9
REMARK    4  A    between atoms: C_9  and  C_11
REMARK    5  A    between atoms: C_9  and  N_12
REMARK    6  A    between atoms: C_13  and  C_15
REMARK    7  A    between atoms: C_26  and  C_28
REMARK    8  A    between atoms: N_32  and  C_33
REMARK                            x       y       z     vdW  Elec       q    Type
REMARK                         _______ _______ _______ _____ _____    ______ ____
ROOT
ATOM      1  C   UNL     1      -8.313  -0.101  -2.901  0.00  0.00    +0.100 C 
ATOM      2  C   UNL     1      -8.233  -1.074  -4.099  0.00  0.00    +0.121 C 
ATOM      3  N   UNL     1      -9.263  -2.101  -3.815  0.00  0.00    -0.295 N 
ATOM      4  C   UNL     1     -10.398  -1.338  -3.244  0.00  0.00    +0.115 C 
ATOM      5  C   UNL     1      -9.737  -0.274  -2.345  0.00  0.00    -0.004 C 
ATOM      6  C   UNL     1     -10.503   1.042  -2.434  0.00  0.00    -0.010 C 
ATOM      7  C   UNL     1     -11.894   0.860  -1.822  0.00  0.00    -0.082 C 
ATOM      8  N   UNL     1     -11.764   0.440  -0.421  0.00  0.00    +0.379 N 
ATOM      9  C   UNL     1     -11.109  -0.872  -0.351  0.00  0.00    -0.082 C 
ATOM     10  C   UNL     1      -9.684  -0.763  -0.901  0.00  0.00    -0.010 C 
ATOM     11  C   UNL     1      -9.185  -3.430  -4.029  0.00  0.00    +0.263 C 
ATOM     12  O   UNL     1     -10.180  -4.122  -3.924  0.00  0.00    -0.268 OA
ATOM     13  H   UNL     1     -11.211   1.118   0.082  0.00  0.00    -0.086 HD
ATOM     14  H   UNL     1     -12.680   0.379  -0.003  0.00  0.00    -0.086 HD
ENDROOT
BRANCH  11  15
ATOM     15  C   UNL     1      -7.901  -4.041  -4.388  0.00  0.00    +0.104 A 
ATOM     16  C   UNL     1      -6.653  -3.483  -4.205  0.00  0.00    +0.032 A 
ATOM     17  C   UNL     1      -5.717  -4.403  -4.686  0.00  0.00    +0.020 A 
ATOM     18  C   UNL     1      -6.394  -5.484  -5.143  0.00  0.00    +0.086 A 
ATOM     19  N   UNL     1      -7.721  -5.279  -4.963  0.00  0.00    -0.346 N 
ATOM     20  C   UNL     1      -8.787  -6.216  -5.322  0.00  0.00    +0.149 C 
ENDBRANCH  11  15
BRANCH   1  22
ATOM     21  N   UNL     1      -6.747   0.487  -1.079  0.00  0.00    -0.308 N 
ATOM     22  C   UNL     1      -7.293  -0.470  -1.856  0.00  0.00    +0.219 C 
ATOM     23  O   UNL     1      -6.963  -1.628  -1.713  0.00  0.00    -0.275 OA
ATOM     24  H   UNL     1      -7.011   1.413  -1.193  0.00  0.00    +0.149 HD
BRANCH  21  25
ATOM     25  C   UNL     1      -5.755   0.127  -0.063  0.00  0.00    +0.100 C 
ATOM     26  C   UNL     1      -4.368   0.063  -0.704  0.00  0.00    +0.033 C 
BRANCH  25  30
ATOM     27  C   UNL     1      -5.755   3.072   3.032  0.00  0.00    -0.048 A 
ATOM     28  C   UNL     1      -5.632   1.733   3.352  0.00  0.00    +0.004 A 
ATOM     29  C   UNL     1      -5.633   0.780   2.351  0.00  0.00    +0.006 A 
ATOM     30  C   UNL     1      -5.756   1.166   1.029  0.00  0.00    -0.027 A 
ATOM     31  C   UNL     1      -5.879   2.505   0.709  0.00  0.00    +0.006 A 
ATOM     32  C   UNL     1      -5.883   3.458   1.711  0.00  0.00    +0.004 A 
BRANCH  27  34
ATOM     33  C   UNL     1      -7.188   4.351   4.600  0.00  0.00    +0.009 C 
ATOM     34  C   UNL     1      -5.754   4.111   4.124  0.00  0.00    +0.032 C 
ENDBRANCH  27  34
ENDBRANCH  25  30
ENDBRANCH  21  25
ENDBRANCH   1  22
TORSDOF 5
