REMARK  Name = ZINC33770169
REMARK  9 active torsions:
REMARK  status: ('A' for Active; 'I' for Inactive)
REMARK    1  A    between atoms: C_1  and  C_2
REMARK    2  A    between atoms: C_5  and  C_22
REMARK    3  A    between atoms: C_6  and  C_7
REMARK    4  A    between atoms: C_6  and  C_8
REMARK    5  A    between atoms: C_15  and  N_19
REMARK    6  A    between atoms: N_24  and  N_25
REMARK    7  A    between atoms: C_26  and  C_28
REMARK    8  A    between atoms: C_28  and  O_29
REMARK    9  A    between atoms: O_29  and  C_30
REMARK                            x       y       z     vdW  Elec       q    Type
REMARK                         _______ _______ _______ _____ _____    ______ ____
ROOT
ATOM      1  C   UNL     1      -0.019   1.526   0.010  0.00  0.00    +0.018 C 
ATOM      2  C   UNL     1       0.002  -0.004   0.002  0.00  0.00    +0.018 C 
ATOM      3  C   UNL     1      -1.388  -0.713   0.060  0.00  0.00    +0.015 C 
ATOM      4  C   UNL     1      -1.056  -2.158   0.502  0.00  0.00    +0.024 C 
ATOM      5  C   UNL     1       0.497  -2.159   0.660  0.00  0.00    +0.098 C 
ATOM      6  C   UNL     1       0.727  -0.704   1.210  0.00  0.00    -0.005 C 
ATOM      7  C   UNL     1      -0.005  -0.480   2.535  0.00  0.00    +0.013 C 
ATOM      8  C   UNL     1       2.206  -0.323   1.300  0.00  0.00    +0.013 C 
ATOM      9  C   UNL     1       1.024  -1.991  -0.767  0.00  0.00    +0.079 A 
ATOM     10  C   UNL     1       0.736  -0.664  -1.168  0.00  0.00    +0.071 A 
ATOM     11  N   UNL     1       1.072  -0.222  -2.351  0.00  0.00    -0.248 NA
ATOM     12  C   UNL     1       1.725  -1.030  -3.196  0.00  0.00    +0.090 A 
ATOM     13  C   UNL     1       2.103  -0.587  -4.476  0.00  0.00    +0.032 A 
ATOM     14  C   UNL     1       2.768  -1.430  -5.312  0.00  0.00    +0.035 A 
ATOM     15  C   UNL     1       3.081  -2.730  -4.920  0.00  0.00    +0.128 A 
ATOM     16  C   UNL     1       2.731  -3.194  -3.689  0.00  0.00    +0.062 A 
ATOM     17  C   UNL     1       2.043  -2.353  -2.797  0.00  0.00    +0.092 A 
ATOM     18  N   UNL     1       1.645  -2.812  -1.573  0.00  0.00    -0.247 NA
ENDROOT
BRANCH   5  19
ATOM     19  C   UNL     1       1.082  -3.286   1.473  0.00  0.00    +0.242 C 
ATOM     20  O   UNL     1       1.707  -3.044   2.484  0.00  0.00    -0.273 OA
ATOM     21  N   UNL     1       0.910  -4.563   1.077  0.00  0.00    -0.234 N 
ATOM     22  H   UNL     1       0.410  -4.756   0.269  0.00  0.00    +0.173 HD
BRANCH  21  23
ATOM     23  N   UNL     1       1.454  -5.610   1.832  0.00  0.00    -0.232 N 
ATOM     24  C   UNL     1       1.282  -6.886   1.436  0.00  0.00    +0.267 C 
ATOM     25  O   UNL     1       0.657  -7.129   0.425  0.00  0.00    -0.271 OA
ATOM     26  H   UNL     1       1.954  -5.416   2.640  0.00  0.00    +0.173 HD
BRANCH  24  27
ATOM     27  C   UNL     1       1.866  -8.013   2.249  0.00  0.00    +0.326 C 
BRANCH  27  28
ATOM     28  O   UNL     1       1.551  -9.261   1.629  0.00  0.00    -0.483 OA
BRANCH  28  29
ATOM     29  C   UNL     1       2.007 -10.386   2.239  0.00  0.00    +0.121 A 
ATOM     30  C   UNL     1       2.739 -10.291   3.414  0.00  0.00    +0.045 A 
ATOM     31  C   UNL     1       3.202 -11.436   4.033  0.00  0.00    +0.004 A 
ATOM     32  C   UNL     1       2.937 -12.676   3.483  0.00  0.00    +0.000 A 
ATOM     33  C   UNL     1       2.208 -12.774   2.312  0.00  0.00    +0.004 A 
ATOM     34  C   UNL     1       1.738 -11.632   1.692  0.00  0.00    +0.045 A 
ENDBRANCH  28  29
ENDBRANCH  27  28
ENDBRANCH  24  27
ENDBRANCH  21  23
ENDBRANCH   5  19
BRANCH  15  35
ATOM     35  N   UNL     1       3.806  -3.619  -5.855  0.00  0.00    +0.056 N 
ATOM     36  O   UNL     1       4.121  -3.216  -6.950  0.00  0.00    -0.126 OA
ATOM     37  O   UNL     1       4.082  -4.749  -5.524  0.00  0.00    -0.126 OA
ENDBRANCH  15  35
TORSDOF 6
