REMARK  Name = ZINC49871967
REMARK  7 active torsions:
REMARK  status: ('A' for Active; 'I' for Inactive)
REMARK    1  A    between atoms: C_5  and  S_15
REMARK    2  A    between atoms: C_6  and  N_7
REMARK    3  A    between atoms: N_7  and  C_8
REMARK    4  A    between atoms: S_15  and  N_18
REMARK    5  A    between atoms: C_19  and  C_20
REMARK    6  A    between atoms: C_20  and  N_21
REMARK    7  A    between atoms: N_24  and  C_25
REMARK                            x       y       z     vdW  Elec       q    Type
REMARK                         _______ _______ _______ _____ _____    ______ ____
ROOT
ATOM      1  S   UNL     1       1.074  -2.457  -0.158  0.00  0.00    +0.103 S 
ATOM      2  O   UNL     1       0.196  -3.070  -1.092  0.00  0.00    -0.146 OA
ATOM      3  O   UNL     1       2.483  -2.632  -0.209  0.00  0.00    -0.146 OA
ENDROOT
BRANCH   1   8
ATOM      4  C   UNL     1      -0.704   1.157  -0.281  0.00  0.00    +0.042 A 
ATOM      5  C   UNL     1       0.402   1.972  -0.405  0.00  0.00    +0.084 A 
ATOM      6  N   UNL     1       1.617   1.461  -0.449  0.00  0.00    -0.365 N 
ATOM      7  C   UNL     1       1.830   0.160  -0.377  0.00  0.00    +0.113 A 
ATOM      8  C   UNL     1       0.778  -0.722  -0.252  0.00  0.00    +0.149 A 
ATOM      9  C   UNL     1      -0.523  -0.223  -0.202  0.00  0.00    +0.057 A 
ATOM     10  H   UNL     1       2.377   2.058  -0.537  0.00  0.00    +0.165 HD
BRANCH   9  11
ATOM     11  N   UNL     1      -1.612  -1.080  -0.076  0.00  0.00    -0.339 N 
ATOM     12  H   UNL     1      -1.472  -2.038  -0.022  0.00  0.00    +0.146 HD
BRANCH  11  13
ATOM     13  C   UNL     1      -2.971  -0.535  -0.025  0.00  0.00    +0.070 C 
ATOM     14  C   UNL     1      -3.268  -0.069   1.415  0.00  0.00    +0.022 C 
ATOM     15  C   UNL     1      -4.400   0.921   1.373  0.00  0.00    +0.002 C 
ATOM     16  C   UNL     1      -5.771   0.260   1.609  0.00  0.00    +0.000 C 
ATOM     17  C   UNL     1      -5.922  -1.084   0.871  0.00  0.00    +0.000 C 
ATOM     18  C   UNL     1      -5.359  -1.040  -0.524  0.00  0.00    +0.002 C 
ATOM     19  C   UNL     1      -3.905  -1.553  -0.483  0.00  0.00    +0.022 C 
ENDBRANCH  11  13
ENDBRANCH   9  11
ENDBRANCH   1   8
BRANCH   1  20
ATOM     20  N   UNL     1       0.590  -2.955   1.345  0.00  0.00    -0.116 NA
ATOM     21  C   UNL     1       0.635  -4.210   1.656  0.00  0.00    +0.144 C 
ATOM     22  N   UNL     1       0.302  -4.614   2.922  0.00  0.00    -0.327 N 
ATOM     23  H   UNL     1       0.415  -5.542   3.180  0.00  0.00    +0.148 HD
BRANCH  22  24
ATOM     24  C   UNL     1      -0.224  -3.644   3.886  0.00  0.00    +0.072 C 
ATOM     25  C   UNL     1       0.939  -2.930   4.578  0.00  0.00    +0.022 C 
ATOM     26  C   UNL     1       0.423  -1.669   5.273  0.00  0.00    +0.002 C 
ATOM     27  C   UNL     1      -0.539  -0.930   4.341  0.00  0.00    +0.000 C 
ATOM     28  C   UNL     1      -1.953  -0.980   4.922  0.00  0.00    +0.000 C 
ATOM     29  C   UNL     1      -2.548  -2.372   4.695  0.00  0.00    +0.000 C 
ATOM     30  C   UNL     1      -1.931  -3.358   5.688  0.00  0.00    +0.002 C 
ATOM     31  C   UNL     1      -1.070  -4.373   4.933  0.00  0.00    +0.022 C 
ENDBRANCH  22  24
BRANCH  21  32
ATOM     32  C   UNL     1       1.054  -5.227   0.626  0.00  0.00    +0.283 C 
BRANCH  32  33
ATOM     33  N   UNL     1       0.868  -6.575   1.168  0.00  0.00    +0.030 N 
ATOM     34  O   UNL     1      -0.204  -6.902   1.623  0.00  0.00    -0.131 OA
ATOM     35  O   UNL     1       1.786  -7.362   1.160  0.00  0.00    -0.131 OA
ENDBRANCH  32  33
ENDBRANCH  21  32
ENDBRANCH   1  20
TORSDOF 7
