REMARK  Name = ZINC04697954
REMARK  9 active torsions:
REMARK  status: ('A' for Active; 'I' for Inactive)
REMARK    1  A    between atoms: C_1  and  C_2
REMARK    2  A    between atoms: C_2  and  C_33
REMARK    3  A    between atoms: C_3  and  C_4
REMARK    4  A    between atoms: C_6  and  C_11
REMARK    5  A    between atoms: C_8  and  C_9
REMARK    6  A    between atoms: C_8  and  C_10
REMARK    7  A    between atoms: N_13  and  C_14
REMARK    8  A    between atoms: C_17  and  N_20
REMARK    9  A    between atoms: C_21  and  C_23
REMARK                            x       y       z     vdW  Elec       q    Type
REMARK                         _______ _______ _______ _____ _____    ______ ____
ROOT
ATOM      1  C   UNL     1      -0.252   1.236   0.106  0.00  0.00    +0.034 A 
ATOM      2  C   UNL     1      -1.407   2.006   0.077  0.00  0.00    +0.025 A 
ATOM      3  C   UNL     1      -1.318   3.383   0.040  0.00  0.00    +0.025 A 
ATOM      4  C   UNL     1      -0.073   3.998   0.019  0.00  0.00    +0.034 A 
ATOM      5  C   UNL     1       1.083   3.228   0.043  0.00  0.00    +0.025 A 
ATOM      6  C   UNL     1       0.993   1.851   0.086  0.00  0.00    +0.025 A 
ENDROOT
BRANCH   1   9
ATOM      7  C   UNL     1       0.661  -0.885   0.683  0.00  0.00    +0.221 C 
ATOM      8  O   UNL     1       1.594  -0.325   1.220  0.00  0.00    -0.275 OA
ATOM      9  N   UNL     1      -0.342  -0.161   0.150  0.00  0.00    -0.285 N 
ATOM     10  H   UNL     1      -1.127  -0.608  -0.204  0.00  0.00    +0.155 HD
BRANCH   7  12
ATOM     11  C   UNL     1       0.310  -3.150   1.903  0.00  0.00    +0.030 C 
ATOM     12  C   UNL     1       0.625  -2.390   0.613  0.00  0.00    +0.089 C 
ATOM     13  C   UNL     1       1.732  -3.158   1.337  0.00  0.00    -0.016 C 
ATOM     14  C   UNL     1       2.230  -4.454   0.695  0.00  0.00    +0.012 C 
ATOM     15  C   UNL     1       2.792  -2.339   2.078  0.00  0.00    +0.012 C 
BRANCH  11  18
ATOM     16  C   UNL     1      -0.640  -4.439   4.221  0.00  0.00    +0.038 C 
ATOM     17  C   UNL     1      -0.935  -5.019   2.861  0.00  0.00    -0.079 C 
ATOM     18  C   UNL     1      -0.493  -4.420   1.783  0.00  0.00    -0.023 C 
ATOM     19  C   UNL     1      -1.738  -6.289   2.742  0.00  0.00    +0.038 C 
ENDBRANCH  11  18
ENDBRANCH   7  12
ENDBRANCH   1   9
BRANCH   4  20
ATOM     20  N   UNL     1       0.018   5.395  -0.025  0.00  0.00    -0.285 N 
ATOM     21  C   UNL     1      -0.895   6.150   0.618  0.00  0.00    +0.223 C 
ATOM     22  O   UNL     1      -1.736   5.623   1.314  0.00  0.00    -0.275 OA
ATOM     23  H   UNL     1       0.737   5.819  -0.518  0.00  0.00    +0.155 HD
BRANCH  21  24
ATOM     24  C   UNL     1      -0.869   7.650   0.472  0.00  0.00    +0.048 C 
ATOM     25  C   UNL     1       0.473   8.188   0.971  0.00  0.00    +0.019 C 
ATOM     26  C   UNL     1       0.499   9.711   0.823  0.00  0.00    -0.009 C 
ATOM     27  C   UNL     1      -0.634  10.323   1.649  0.00  0.00    +0.007 C 
ATOM     28  C   UNL     1      -1.977   9.784   1.151  0.00  0.00    -0.009 C 
ATOM     29  C   UNL     1      -2.003   8.262   1.298  0.00  0.00    +0.019 C 
ATOM     30  C   UNL     1      -2.160  10.157  -0.322  0.00  0.00    +0.007 C 
ATOM     31  C   UNL     1      -1.027   9.545  -1.148  0.00  0.00    -0.009 C 
ATOM     32  C   UNL     1       0.316  10.083  -0.649  0.00  0.00    +0.007 C 
ATOM     33  C   UNL     1      -1.053   8.023  -1.000  0.00  0.00    +0.019 C 
ENDBRANCH  21  24
ENDBRANCH   4  20
TORSDOF 5
