REMARK  Name = ZINC06135313
REMARK  9 active torsions:
REMARK  status: ('A' for Active; 'I' for Inactive)
REMARK    1  A    between atoms: C_1  and  C_2
REMARK    2  A    between atoms: C_2  and  C_3
REMARK    3  A    between atoms: C_10  and  C_15
REMARK    4  A    between atoms: C_15  and  C_17
REMARK    5  A    between atoms: C_15  and  N_78
REMARK    6  A    between atoms: N_21  and  C_22
REMARK    7  A    between atoms: N_30  and  C_33
REMARK    8  A    between atoms: C_35  and  C_40
REMARK    9  A    between atoms: C_38  and  C_39
REMARK                            x       y       z     vdW  Elec       q    Type
REMARK                         _______ _______ _______ _____ _____    ______ ____
ROOT
ATOM      1  C   UNL     1       5.213   6.997   0.031  0.00  0.00    +0.039 C 
ENDROOT
BRANCH   1   9
ATOM      2  C   UNL     1       8.151   8.257   5.329  0.00  0.00    -0.047 A 
ATOM      3  C   UNL     1       7.154   9.055   5.874  0.00  0.00    +0.005 A 
ATOM      4  C   UNL     1       5.987   9.294   5.181  0.00  0.00    +0.026 A 
ATOM      5  C   UNL     1       5.803   8.729   3.923  0.00  0.00    +0.049 A 
ATOM      6  C   UNL     1       6.816   7.920   3.374  0.00  0.00    -0.001 A 
ATOM      7  C   UNL     1       7.992   7.692   4.095  0.00  0.00    +0.013 A 
ATOM      8  C   UNL     1       6.614   7.332   2.049  0.00  0.00    +0.017 A 
ATOM      9  C   UNL     1       5.453   7.588   1.397  0.00  0.00    +0.011 A 
ATOM     10  C   UNL     1       4.471   8.411   1.989  0.00  0.00    +0.251 A 
ATOM     11  O   UNL     1       3.437   8.633   1.383  0.00  0.00    -0.268 OA
ATOM     12  N   UNL     1       4.646   8.952   3.208  0.00  0.00    -0.322 N 
ATOM     13  H   UNL     1       3.926   9.524   3.601  0.00  0.00    +0.169 HD
BRANCH   2  15
ATOM     14  C   UNL     1      10.446   9.090   5.760  0.00  0.00    +0.009 C 
ATOM     15  C   UNL     1       9.418   8.011   6.106  0.00  0.00    +0.032 C 
ENDBRANCH   2  15
ENDBRANCH   1   9
BRANCH   1  21
ATOM     16  C   UNL     1       3.800   5.460  -1.195  0.00  0.00    -0.058 C 
ATOM     17  C   UNL     1       2.442   4.753  -1.183  0.00  0.00    +0.086 C 
ATOM     18  N   UNL     1       2.353   3.888   0.001  0.00  0.00    -0.333 N 
ATOM     19  C   UNL     1       2.506   4.671   1.235  0.00  0.00    +0.086 C 
ATOM     20  C   UNL     1       3.863   5.378   1.223  0.00  0.00    -0.058 C 
ATOM     21  N   UNL     1       3.931   6.261   0.040  0.00  0.00    +0.391 N 
ATOM     22  H   UNL     1       3.158   6.936   0.083  0.00  0.00    -0.080 HD
BRANCH  18  23
ATOM     23  C   UNL     1       1.155   3.171   0.008  0.00  0.00    +0.033 A 
ATOM     24  C   UNL     1      -0.060   3.845   0.023  0.00  0.00    +0.026 A 
ATOM     25  C   UNL     1      -1.243   3.133   0.031  0.00  0.00    -0.049 A 
ATOM     26  C   UNL     1      -1.220   1.750   0.017  0.00  0.00    +0.004 A 
ATOM     27  C   UNL     1      -0.013   1.076   0.008  0.00  0.00    +0.005 A 
ATOM     28  C   UNL     1       1.175   1.782   0.000  0.00  0.00    -0.029 A 
ATOM     29  C   UNL     1       2.490   1.046  -0.017  0.00  0.00    +0.045 C 
ATOM     30  C   UNL     1      -2.561   3.863   0.047  0.00  0.00    +0.044 C 
ENDBRANCH  18  23
ENDBRANCH   1  21
BRANCH   1  31
ATOM     31  C   UNL     1       5.130   8.105  -0.988  0.00  0.00    +0.143 A 
ATOM     32  N   UNL     1       4.125   8.926  -1.171  0.00  0.00    -0.115 NA
ATOM     33  N   UNL     1       4.435   9.726  -2.131  0.00  0.00    -0.023 NA
ATOM     34  N   UNL     1       5.612   9.437  -2.566  0.00  0.00    -0.044 NA
ATOM     35  N   UNL     1       6.075   8.446  -1.883  0.00  0.00    -0.227 N 
BRANCH  35  36
ATOM     36  C   UNL     1       7.384   7.809  -2.051  0.00  0.00    +0.111 C 
ATOM     37  C   UNL     1       8.488   8.843  -1.819  0.00  0.00    +0.027 C 
ATOM     38  C   UNL     1       9.854   8.178  -1.995  0.00  0.00    +0.002 C 
ATOM     39  C   UNL     1       9.970   7.619  -3.414  0.00  0.00    +0.000 C 
ATOM     40  C   UNL     1       8.866   6.585  -3.647  0.00  0.00    +0.002 C 
ATOM     41  C   UNL     1       7.500   7.250  -3.471  0.00  0.00    +0.027 C 
ENDBRANCH  35  36
ENDBRANCH   1  31
TORSDOF 6
