REMARK  Name = ZINC13788434
REMARK  7 active torsions:
REMARK  status: ('A' for Active; 'I' for Inactive)
REMARK    1  A    between atoms: C_4  and  C_7
REMARK    2  A    between atoms: C_7  and  C_8
REMARK    3  A    between atoms: C_13  and  C_14
REMARK    4  A    between atoms: C_13  and  N_62
REMARK    5  A    between atoms: C_15  and  C_25
REMARK    6  A    between atoms: N_27  and  N_28
REMARK    7  A    between atoms: C_29  and  C_30
REMARK                            x       y       z     vdW  Elec       q    Type
REMARK                         _______ _______ _______ _____ _____    ______ ____
ROOT
ATOM      1  C   UNL     1      -0.497   5.389   0.047  0.00  0.00    +0.063 A 
ATOM      2  C   UNL     1       0.764   5.914   0.055  0.00  0.00    +0.170 A 
ATOM      3  N   UNL     1       1.647   4.901   0.043  0.00  0.00    -0.124 NA
ATOM      4  N   UNL     1       1.016   3.778   0.033  0.00  0.00    -0.058 NA
ATOM      5  N   UNL     1      -0.360   4.045   0.039  0.00  0.00    -0.194 N 
ATOM      6  C   UNL     1      -1.393   3.100   0.031  0.00  0.00    +0.240 A 
ATOM      7  C   UNL     1      -1.224   1.645   0.017  0.00  0.00    +0.206 A 
ATOM      8  N   UNL     1      -2.408   1.094   0.020  0.00  0.00    -0.032 NA
ATOM      9  O   UNL     1      -3.369   2.134   0.030  0.00  0.00    -0.239 OA
ATOM     10  N   UNL     1      -2.669   3.366   0.033  0.00  0.00    -0.027 NA
ATOM     11  N   UNL     1      -0.011   0.966   0.007  0.00  0.00    -0.337 N 
ATOM     12  H   UNL     1       0.002  -0.004   0.002  0.00  0.00    +0.144 HD
ATOM     13  H   UNL     1       0.822   1.462   0.002  0.00  0.00    +0.144 HD
ENDROOT
BRANCH   2  14
ATOM     14  C   UNL     1       1.100   7.350   0.069  0.00  0.00    +0.285 C 
ATOM     15  O   UNL     1       0.213   8.182   0.079  0.00  0.00    -0.267 OA
ATOM     16  N   UNL     1       2.390   7.740   0.070  0.00  0.00    -0.202 N 
ATOM     17  H   UNL     1       3.097   7.077   0.062  0.00  0.00    +0.178 HD
BRANCH  16  18
ATOM     18  N   UNL     1       2.709   9.104   0.083  0.00  0.00    -0.187 NA
ATOM     19  C   UNL     1       3.951   9.480   0.085  0.00  0.00    +0.138 C 
BRANCH  19  20
ATOM     20  C   UNL     1       4.287  10.916   0.098  0.00  0.00    -0.003 A 
ATOM     21  C   UNL     1       3.281  11.891   0.104  0.00  0.00    +0.029 A 
ATOM     22  C   UNL     1       3.641  13.222   0.122  0.00  0.00    +0.111 A 
ATOM     23  N   UNL     1       4.911  13.581   0.124  0.00  0.00    -0.263 NA
ATOM     24  C   UNL     1       5.889  12.696   0.113  0.00  0.00    +0.111 A 
ATOM     25  C   UNL     1       5.621  11.344   0.100  0.00  0.00    +0.029 A 
ENDBRANCH  19  20
ENDBRANCH  16  18
ENDBRANCH   2  14
BRANCH   1  26
ATOM     26  C   UNL     1      -1.792   6.161   0.049  0.00  0.00    -0.020 C 
BRANCH  26  32
ATOM     27  C   UNL     1      -2.705   7.949   3.824  0.00  0.00    -0.010 C 
ATOM     28  C   UNL     1      -3.845   7.465   2.924  0.00  0.00    -0.015 C 
ATOM     29  C   UNL     1      -3.338   7.348   1.484  0.00  0.00    -0.078 C 
ATOM     30  C   UNL     1      -1.090   6.870   2.254  0.00  0.00    -0.078 C 
ATOM     31  C   UNL     1      -1.530   6.972   3.716  0.00  0.00    -0.015 C 
ATOM     32  N   UNL     1      -2.224   6.376   1.445  0.00  0.00    +0.383 N 
ATOM     33  H   UNL     1      -2.548   5.484   1.835  0.00  0.00    -0.081 HD
BRANCH  27  34
ATOM     34  C   UNL     1      -3.189   8.010   5.274  0.00  0.00    +0.038 C 
BRANCH  34  38
ATOM     35  C   UNL     1      -0.124   9.688   7.730  0.00  0.00    +0.000 A 
ATOM     36  C   UNL     1      -1.063  10.512   7.138  0.00  0.00    +0.000 A 
ATOM     37  C   UNL     1      -2.055   9.969   6.343  0.00  0.00    +0.003 A 
ATOM     38  C   UNL     1      -2.108   8.602   6.140  0.00  0.00    -0.047 A 
ATOM     39  C   UNL     1      -1.172   7.779   6.737  0.00  0.00    +0.003 A 
ATOM     40  C   UNL     1      -0.177   8.322   7.528  0.00  0.00    +0.000 A 
ENDBRANCH  34  38
ENDBRANCH  27  34
ENDBRANCH  26  32
ENDBRANCH   1  26
TORSDOF 7
