REMARK  Name = ZINC06494072
REMARK  2 active torsions:
REMARK  status: ('A' for Active; 'I' for Inactive)
REMARK    1  A    between atoms: C_1  and  C_2
REMARK    2  A    between atoms: C_14  and  C_16
REMARK                            x       y       z     vdW  Elec       q    Type
REMARK                         _______ _______ _______ _____ _____    ______ ____
ROOT
ATOM      1  C   UNL     1      -0.018   1.503   0.010  0.00  0.00    +0.086 C 
ATOM      2  C   UNL     1       0.002  -0.004   0.002  0.00  0.00    +0.105 A 
ATOM      3  N   UNL     1       0.007  -0.777  -1.119  0.00  0.00    -0.341 N 
ATOM      4  H   UNL     1      -0.001  -0.460  -2.036  0.00  0.00    +0.167 HD
ATOM      5  C   UNL     1       0.027  -2.098  -0.708  0.00  0.00    +0.084 A 
ATOM      6  C   UNL     1       0.033  -2.064   0.701  0.00  0.00    +0.106 A 
ATOM      7  N   UNL     1       0.023  -0.753   1.064  0.00  0.00    -0.232 NA
ATOM      8  C   UNL     1       0.053  -3.254   1.424  0.00  0.00    +0.073 A 
ATOM      9  C   UNL     1       0.066  -4.472   0.747  0.00  0.00    +0.109 A 
ATOM     10  C   UNL     1       0.060  -4.494  -0.661  0.00  0.00    +0.109 A 
ATOM     11  C   UNL     1       0.040  -3.309  -1.379  0.00  0.00    +0.071 A 
ATOM     12 BR   UNL     1       0.033  -3.346  -3.269  0.00  0.00    -0.046 Br
ATOM     13  N   UNL     1       0.076  -5.830  -1.020  0.00  0.00    -0.221 NA
ATOM     14  C   UNL     1       0.092  -6.558   0.130  0.00  0.00    +0.235 A 
ATOM     15  N   UNL     1       0.086  -5.768   1.162  0.00  0.00    -0.221 NA
ATOM     16 BR   UNL     1       0.062  -3.217   3.314  0.00  0.00    -0.046 Br
ENDROOT
BRANCH  14  17
ATOM     17  C   UNL     1       0.112  -8.063   0.197  0.00  0.00    +0.452 C 
ATOM     18  F   UNL     1       1.394  -8.497   0.553  0.00  0.00    -0.163 F 
ATOM     19  F   UNL     1      -0.810  -8.500   1.154  0.00  0.00    -0.163 F 
ATOM     20  F   UNL     1      -0.229  -8.591  -1.053  0.00  0.00    -0.163 F 
ENDBRANCH  14  17
TORSDOF 1
