REMARK  Name = ZINC35575536
REMARK  5 active torsions:
REMARK  status: ('A' for Active; 'I' for Inactive)
REMARK    1  A    between atoms: C_1  and  S_2
REMARK    2  A    between atoms: S_2  and  C_3
REMARK    3  A    between atoms: C_5  and  C_20
REMARK    4  A    between atoms: C_7  and  N_19
REMARK    5  A    between atoms: N_8  and  C_12
REMARK                            x       y       z     vdW  Elec       q    Type
REMARK                         _______ _______ _______ _____ _____    ______ ____
ROOT
ATOM      1  C   UNL     1      -1.654  -0.450  -0.079  0.00  0.00    +0.191 A 
ATOM      2  N   UNL     1      -1.940  -1.748  -0.025  0.00  0.00    -0.221 NA
ATOM      3  C   UNL     1      -3.159  -2.191   0.253  0.00  0.00    +0.091 A 
ATOM      4  C   UNL     1      -4.177  -1.241   0.498  0.00  0.00    +0.086 A 
ATOM      5  C   UNL     1      -5.529  -1.290   0.811  0.00  0.00    +0.131 A 
ATOM      6  N   UNL     1      -5.966  -0.021   0.924  0.00  0.00    -0.216 N 
ATOM      7  N   UNL     1      -4.911   0.868   0.688  0.00  0.00    -0.144 NA
ATOM      8  C   UNL     1      -3.817   0.187   0.428  0.00  0.00    +0.188 A 
ATOM      9  N   UNL     1      -2.539   0.501   0.141  0.00  0.00    -0.200 NA
ENDROOT
BRANCH   6  10
ATOM     10  C   UNL     1      -7.280   0.354   1.232  0.00  0.00    +0.068 A 
ATOM     11  C   UNL     1      -8.346  -0.406   0.768  0.00  0.00    +0.029 A 
ATOM     12  C   UNL     1      -9.641  -0.035   1.073  0.00  0.00    +0.022 A 
ATOM     13  C   UNL     1      -9.877   1.093   1.840  0.00  0.00    +0.041 A 
ATOM     14  C   UNL     1      -8.816   1.852   2.303  0.00  0.00    +0.022 A 
ATOM     15  C   UNL     1      -7.519   1.482   2.005  0.00  0.00    +0.029 A 
ATOM     16 CL   UNL     1     -11.505   1.557   2.221  0.00  0.00    -0.084 Cl
ENDBRANCH   6  10
BRANCH   3  17
ATOM     17  C   UNL     1      -3.446  -3.641   0.305  0.00  0.00    +0.036 A 
ATOM     18  C   UNL     1      -4.431  -4.191  -0.516  0.00  0.00    +0.013 A 
ATOM     19  C   UNL     1      -4.694  -5.544  -0.464  0.00  0.00    +0.001 A 
ATOM     20  C   UNL     1      -3.984  -6.358   0.402  0.00  0.00    +0.003 A 
ATOM     21  C   UNL     1      -3.007  -5.822   1.220  0.00  0.00    +0.039 A 
ATOM     22  C   UNL     1      -2.728  -4.468   1.173  0.00  0.00    +0.133 A 
ATOM     23  F   UNL     1      -1.769  -3.946   1.968  0.00  0.00    -0.205 F 
ENDBRANCH   3  17
BRANCH   5  24
ATOM     24  N   UNL     1      -6.289  -2.434   0.976  0.00  0.00    -0.342 N 
ATOM     25  H   UNL     1      -5.880  -3.307   0.869  0.00  0.00    +0.144 HD
ATOM     26  H   UNL     1      -7.230  -2.362   1.199  0.00  0.00    +0.144 HD
ENDBRANCH   5  24
BRANCH   1  28
ATOM     27  C   UNL     1      -0.043   1.837  -0.422  0.00  0.00    +0.093 C 
ATOM     28  S   UNL     1       0.001   0.023  -0.458  0.00  0.00    -0.089 S 
ENDBRANCH   1  28
TORSDOF 4
