REMARK  Name = ZINC00720550
REMARK  6 active torsions:
REMARK  status: ('A' for Active; 'I' for Inactive)
REMARK    1  A    between atoms: C_1  and  O_2
REMARK    2  A    between atoms: O_2  and  C_3
REMARK    3  A    between atoms: C_6  and  C_11
REMARK    4  A    between atoms: C_8  and  O_9
REMARK    5  A    between atoms: O_9  and  C_10
REMARK    6  A    between atoms: C_16  and  C_26
REMARK                            x       y       z     vdW  Elec       q    Type
REMARK                         _______ _______ _______ _____ _____    ______ ____
ROOT
ATOM      1  C   UNL     1       4.473   5.017  -2.654  0.00  0.00    +0.032 C 
ATOM      2  C   UNL     1       4.227   4.678  -1.185  0.00  0.00    +0.059 C 
ATOM      3  C   UNL     1       2.745   4.782  -0.869  0.00  0.00    +0.017 C 
ATOM      4  C   UNL     1       1.969   5.673  -1.512  0.00  0.00    +0.037 C 
ATOM      5  C   UNL     1       0.492   5.885  -1.287  0.00  0.00    +0.143 C 
ATOM      6  N   UNL     1      -0.041   5.230  -0.111  0.00  0.00    -0.331 N 
ATOM      7  C   UNL     1      -0.063   3.838  -0.012  0.00  0.00    +0.049 A 
ATOM      8  C   UNL     1      -1.254   3.131   0.013  0.00  0.00    +0.025 A 
ATOM      9  C   UNL     1      -1.222   1.747   0.017  0.00  0.00    +0.002 A 
ATOM     10  C   UNL     1      -0.013   1.076   0.008  0.00  0.00    +0.002 A 
ATOM     11  C   UNL     1       1.179   1.781   0.000  0.00  0.00    +0.025 A 
ATOM     12  C   UNL     1       1.149   3.165   0.009  0.00  0.00    +0.052 A 
ATOM     13  N   UNL     1       2.304   3.932   0.093  0.00  0.00    -0.316 N 
ATOM     14  C   UNL     1       2.526   6.516  -2.502  0.00  0.00    +0.163 C 
ATOM     15  O   UNL     1       1.807   7.325  -3.055  0.00  0.00    -0.292 OA
ATOM     16  C   UNL     1       3.971   6.446  -2.894  0.00  0.00    +0.088 C 
ATOM     17  H   UNL     1      -0.388   5.766   0.619  0.00  0.00    +0.147 HD
ATOM     18  H   UNL     1       2.835   3.854   0.901  0.00  0.00    +0.152 HD
ENDROOT
BRANCH   1  22
ATOM     19  C   UNL     1       8.656   4.789  -3.512  0.00  0.00    +0.161 A 
ATOM     20  C   UNL     1       8.194   5.650  -2.530  0.00  0.00    +0.049 A 
ATOM     21  C   UNL     1       6.841   5.721  -2.255  0.00  0.00    +0.008 A 
ATOM     22  C   UNL     1       5.947   4.936  -2.958  0.00  0.00    -0.040 A 
ATOM     23  C   UNL     1       6.402   4.071  -3.936  0.00  0.00    +0.053 A 
ATOM     24  C   UNL     1       7.756   3.998  -4.220  0.00  0.00    +0.162 A 
BRANCH  19  26
ATOM     25  C   UNL     1      10.852   5.557  -3.017  0.00  0.00    +0.277 C 
ATOM     26  O   UNL     1       9.987   4.716  -3.784  0.00  0.00    -0.491 OA
ENDBRANCH  19  26
BRANCH  24  27
ATOM     27  O   UNL     1       8.206   3.151  -5.185  0.00  0.00    -0.491 OA
ATOM     28  C   UNL     1       7.225   2.370  -5.871  0.00  0.00    +0.277 C 
ENDBRANCH  24  27
ENDBRANCH   1  22
BRANCH   5  29
ATOM     29  C   UNL     1      -0.249   5.374  -2.495  0.00  0.00    +0.016 A 
ATOM     30  C   UNL     1      -0.684   6.057  -3.581  0.00  0.00    +0.015 A 
ATOM     31  C   UNL     1      -1.346   5.372  -4.584  0.00  0.00    +0.028 A 
ATOM     32  C   UNL     1      -1.551   4.038  -4.443  0.00  0.00    +0.078 A 
ATOM     33  S   UNL     1      -0.789   3.712  -2.862  0.00  0.00    -0.080 S 
ATOM     34 CL   UNL     1      -2.348   2.936  -5.521  0.00  0.00    -0.076 Cl
ENDBRANCH   5  29
TORSDOF 4
