REMARK  Name = ZINC63372131
REMARK  3 active torsions:
REMARK  status: ('A' for Active; 'I' for Inactive)
REMARK    1  A    between atoms: C_1  and  C_2
REMARK    2  A    between atoms: C_7  and  N_8
REMARK    3  A    between atoms: C_11  and  C_18
REMARK                            x       y       z     vdW  Elec       q    Type
REMARK                         _______ _______ _______ _____ _____    ______ ____
ROOT
ATOM      1  N   UNL     1       0.026  -0.013   2.418  0.00  0.00    -0.228 N 
ATOM      2  C   UNL     1      -1.143   0.297   3.014  0.00  0.00    +0.270 A 
ATOM      3  O   UNL     1      -2.199  -0.022   2.497  0.00  0.00    -0.267 OA
ATOM      4  C   UNL     1      -1.135   0.992   4.237  0.00  0.00    +0.101 A 
ATOM      5  C   UNL     1       0.060   1.337   4.795  0.00  0.00    +0.263 A 
ATOM      6  N   UNL     1       1.226   1.002   4.155  0.00  0.00    -0.274 N 
ATOM      7  H   UNL     1       2.079   1.246   4.548  0.00  0.00    +0.173 HD
ATOM      8  C   UNL     1       1.195   0.333   2.988  0.00  0.00    +0.337 A 
ATOM      9  O   UNL     1       2.239   0.040   2.437  0.00  0.00    -0.246 OA
ATOM     10  O   UNL     1       0.095   2.005   5.968  0.00  0.00    -0.267 OA
ENDROOT
BRANCH   4  11
ATOM     11  C   UNL     1      -2.430   1.349   4.920  0.00  0.00    +0.121 C 
ATOM     12  C   UNL     1      -3.164   0.072   5.335  0.00  0.00    +0.128 C 
ATOM     13  C   UNL     1      -4.526   0.514   5.857  0.00  0.00    -0.035 C 
ATOM     14  C   UNL     1      -4.650  -0.006   7.070  0.00  0.00    -0.001 A 
ATOM     15  C   UNL     1      -5.765  -0.003   8.031  0.00  0.00    +0.010 A 
ATOM     16  C   UNL     1      -5.539  -0.634   9.214  0.00  0.00    +0.001 A 
ATOM     17  C   UNL     1      -4.330  -1.260   9.533  0.00  0.00    +0.002 A 
ATOM     18  C   UNL     1      -3.254  -1.317   8.709  0.00  0.00    +0.026 A 
ATOM     19  C   UNL     1      -3.372  -0.693   7.433  0.00  0.00    +0.043 A 
ATOM     20  N   UNL     1      -2.505  -0.622   6.441  0.00  0.00    -0.376 N 
ATOM     21  C   UNL     1      -5.410   1.451   5.070  0.00  0.00    +0.048 C 
ATOM     22  C   UNL     1      -4.509   2.615   4.620  0.00  0.00    +0.086 C 
ATOM     23  N   UNL     1      -3.291   2.098   3.991  0.00  0.00    -0.307 NA
ATOM     24  H   UNL     1      -2.776   2.837   3.537  0.00  0.00    +0.123 HD
ATOM     25  H   UNL     1      -1.596  -0.960   6.437  0.00  0.00    +0.160 HD
ENDBRANCH   4  11
BRANCH   1  32
ATOM     26  C   UNL     1      -0.018   1.503   0.010  0.00  0.00    +0.046 C 
ATOM     27  C   UNL     1       0.002  -0.004   0.002  0.00  0.00    -0.026 A 
ATOM     28  C   UNL     1       0.006  -0.689  -1.198  0.00  0.00    +0.007 A 
ATOM     29  C   UNL     1       0.024  -2.071  -1.207  0.00  0.00    +0.020 A 
ATOM     30  C   UNL     1       0.040  -2.773  -0.014  0.00  0.00    +0.043 A 
ATOM     31  C   UNL     1       0.036  -2.093   1.189  0.00  0.00    +0.046 A 
ATOM     32  C   UNL     1       0.023  -0.705   1.200  0.00  0.00    +0.059 A 
ATOM     33 CL   UNL     1       0.062  -4.509  -0.030  0.00  0.00    -0.083 Cl
ENDBRANCH   1  32
TORSDOF 2
