REMARK  Name = ZINC39491713
REMARK  15 active torsions:
REMARK  status: ('A' for Active; 'I' for Inactive)
REMARK    1  A    between atoms: C_1  and  C_2
REMARK    2  A    between atoms: C_2  and  C_3
REMARK    3  A    between atoms: C_2  and  C_4
REMARK    4  A    between atoms: C_4  and  N_5
REMARK    5  A    between atoms: N_5  and  C_6
REMARK    6  A    between atoms: C_6  and  C_7
REMARK    7  A    between atoms: N_9  and  C_20
REMARK    8  A    between atoms: C_13  and  C_16
REMARK    9  A    between atoms: C_16  and  O_18
REMARK   10  A    between atoms: O_18  and  C_19
REMARK   11  A    between atoms: C_20  and  C_21
REMARK   12  A    between atoms: C_21  and  C_23
REMARK   13  A    between atoms: C_21  and  S_29
REMARK   14  A    between atoms: S_29  and  O_32
REMARK   15  A    between atoms: O_32  and  C_33
REMARK                            x       y       z     vdW  Elec       q    Type
REMARK                         _______ _______ _______ _____ _____    ______ ____
ROOT
ATOM      1  C   UNL     1      -4.474  -0.227  -1.987  0.00  0.00    -0.039 A 
ATOM      2  C   UNL     1      -5.214   0.845  -2.311  0.00  0.00    +0.088 A 
ATOM      3  N   UNL     1      -5.426   0.875  -3.663  0.00  0.00    -0.344 N 
ATOM      4  C   UNL     1      -4.814  -0.202  -4.258  0.00  0.00    +0.049 A 
ATOM      5  C   UNL     1      -4.184  -0.938  -3.235  0.00  0.00    +0.002 A 
ATOM      6  C   UNL     1      -3.472  -2.094  -3.546  0.00  0.00    +0.025 A 
ATOM      7  C   UNL     1      -3.388  -2.508  -4.872  0.00  0.00    +0.060 A 
ATOM      8  C   UNL     1      -4.017  -1.765  -5.881  0.00  0.00    +0.017 A 
ATOM      9  C   UNL     1      -4.722  -0.638  -5.578  0.00  0.00    +0.027 A 
ENDROOT
BRANCH   7  10
ATOM     10  C   UNL     1      -2.637  -3.730  -5.216  0.00  0.00    +0.339 C 
ATOM     11  O   UNL     1      -2.092  -4.375  -4.343  0.00  0.00    -0.245 OA
BRANCH  10  12
ATOM     12  O   UNL     1      -2.555  -4.132  -6.500  0.00  0.00    -0.464 OA
ATOM     13  C   UNL     1      -1.812  -5.324  -6.761  0.00  0.00    +0.280 C 
ENDBRANCH  10  12
ENDBRANCH   7  10
BRANCH   1  14
ATOM     14  C   UNL     1      -4.022  -0.620  -0.604  0.00  0.00    -0.045 C 
BRANCH  14  15
ATOM     15  N   UNL     1      -2.629  -0.197  -0.406  0.00  0.00    +0.382 N 
ATOM     16  H   UNL     1      -2.563   0.804  -0.509  0.00  0.00    -0.085 HD
ATOM     17  H   UNL     1      -2.041  -0.646  -1.092  0.00  0.00    -0.085 HD
BRANCH  15  18
ATOM     18  C   UNL     1      -2.188  -0.580   0.942  0.00  0.00    -0.079 C 
BRANCH  18  20
ATOM     19  C   UNL     1      -0.658   1.387   1.116  0.00  0.00    +0.005 C 
ATOM     20  C   UNL     1      -0.737  -0.141   1.149  0.00  0.00    -0.034 C 
ATOM     21  C   UNL     1      -0.238  -0.648   2.503  0.00  0.00    +0.005 C 
ENDBRANCH  18  20
ENDBRANCH  15  18
ENDBRANCH  14  15
ENDBRANCH   1  14
BRANCH   3  22
ATOM     22  C   UNL     1      -6.194   1.902  -4.370  0.00  0.00    +0.156 C 
BRANCH  22  23
ATOM     23  C   UNL     1      -7.636   1.426  -4.554  0.00  0.00    +0.221 C 
BRANCH  23  24
ATOM     24  C   UNL     1      -8.455   2.530  -5.171  0.00  0.00    -0.018 A 
ATOM     25  C   UNL     1      -8.122   3.022  -6.420  0.00  0.00    +0.006 A 
ATOM     26  C   UNL     1      -8.873   4.035  -6.986  0.00  0.00    +0.000 A 
ATOM     27  C   UNL     1      -9.958   4.555  -6.304  0.00  0.00    +0.000 A 
ATOM     28  C   UNL     1     -10.291   4.062  -5.056  0.00  0.00    +0.000 A 
ATOM     29  C   UNL     1      -9.542   3.047  -4.492  0.00  0.00    +0.006 A 
ENDBRANCH  23  24
BRANCH  23  30
ATOM     30  S   UNL     1      -7.659  -0.025  -5.642  0.00  0.00    +0.129 S 
ATOM     31  O   UNL     1      -7.155   0.317  -6.926  0.00  0.00    -0.136 OA
ATOM     32  O   UNL     1      -7.166  -1.164  -4.950  0.00  0.00    -0.136 OA
BRANCH  30  33
ATOM     33  O   UNL     1      -9.135  -0.319  -5.871  0.00  0.00    -0.346 OA
BRANCH  33  34
ATOM     34  C   UNL     1      -9.745  -0.934  -4.824  0.00  0.00    +0.156 A 
ATOM     35  C   UNL     1      -9.819  -2.319  -4.780  0.00  0.00    +0.048 A 
ATOM     36  C   UNL     1     -10.439  -2.942  -3.714  0.00  0.00    +0.004 A 
ATOM     37  C   UNL     1     -10.986  -2.187  -2.693  0.00  0.00    +0.000 A 
ATOM     38  C   UNL     1     -10.914  -0.807  -2.735  0.00  0.00    +0.004 A 
ATOM     39  C   UNL     1     -10.289  -0.179  -3.796  0.00  0.00    +0.048 A 
ENDBRANCH  33  34
ENDBRANCH  30  33
ENDBRANCH  23  30
ENDBRANCH  22  23
ENDBRANCH   3  22
TORSDOF 12
