REMARK  Name = ZINC09014886
REMARK  6 active torsions:
REMARK  status: ('A' for Active; 'I' for Inactive)
REMARK    1  A    between atoms: C_1  and  C_2
REMARK    2  A    between atoms: C_5  and  C_8
REMARK    3  A    between atoms: C_8  and  C_27
REMARK    4  A    between atoms: N_9  and  N_10
REMARK    5  A    between atoms: C_11  and  C_13
REMARK    6  A    between atoms: C_15  and  C_19
REMARK                            x       y       z     vdW  Elec       q    Type
REMARK                         _______ _______ _______ _____ _____    ______ ____
ROOT
ATOM      1  N   UNL     1      -1.156  -0.694   0.009  0.00  0.00    -0.201 N 
ATOM      2  C   UNL     1       0.002  -0.004   0.002  0.00  0.00    +0.283 C 
ATOM      3  O   UNL     1       1.063  -0.598  -0.011  0.00  0.00    -0.267 OA
ATOM      4  H   UNL     1      -2.002  -0.220   0.020  0.00  0.00    +0.178 HD
ENDROOT
BRANCH   2   5
ATOM      5  C   UNL     1      -0.018   1.473   0.010  0.00  0.00    +0.149 A 
ATOM      6  C   UNL     1       1.108   2.325   0.004  0.00  0.00    +0.062 A 
ATOM      7  C   UNL     1       0.603   3.595   0.016  0.00  0.00    +0.067 A 
ATOM      8  N   UNL     1      -0.755   3.479   0.028  0.00  0.00    -0.276 N 
ATOM      9  H   UNL     1      -1.396   4.247   0.042  0.00  0.00    +0.189 HD
ATOM     10  N   UNL     1      -1.091   2.239   0.019  0.00  0.00    -0.169 NA
BRANCH   7  11
ATOM     11  C   UNL     1       1.382   4.854   0.014  0.00  0.00    +0.001 A 
ATOM     12  C   UNL     1       2.776   4.814   0.006  0.00  0.00    +0.011 A 
ATOM     13  C   UNL     1       3.498   5.990  -0.001  0.00  0.00    +0.022 A 
ATOM     14  C   UNL     1       2.840   7.209   0.011  0.00  0.00    +0.059 A 
ATOM     15  C   UNL     1       1.456   7.255   0.026  0.00  0.00    +0.060 A 
ATOM     16  C   UNL     1       0.724   6.083   0.027  0.00  0.00    +0.031 A 
ATOM     17 CL   UNL     1       0.639   8.786   0.041  0.00  0.00    -0.082 Cl
ATOM     18 CL   UNL     1       3.755   8.684   0.010  0.00  0.00    -0.082 Cl
ENDBRANCH   7  11
ENDBRANCH   2   5
BRANCH   1  20
ATOM     19  C   UNL     1      -2.252  -2.759   0.009  0.00  0.00    +0.063 C 
ATOM     20  N   UNL     1      -1.137  -2.095   0.002  0.00  0.00    -0.184 NA
ATOM     21  C   UNL     1      -3.567  -2.023   0.025  0.00  0.00    +0.068 C 
BRANCH  19  26
ATOM     22  C   UNL     1      -2.174  -8.509  -0.023  0.00  0.00    +0.044 C 
ATOM     23  C   UNL     1      -2.194  -7.003  -0.015  0.00  0.00    -0.050 A 
ATOM     24  C   UNL     1      -1.004  -6.298  -0.022  0.00  0.00    +0.004 A 
ATOM     25  C   UNL     1      -1.015  -4.919  -0.015  0.00  0.00    +0.010 A 
ATOM     26  C   UNL     1      -2.232  -4.233   0.001  0.00  0.00    -0.003 A 
ATOM     27  C   UNL     1      -3.430  -4.952   0.014  0.00  0.00    +0.010 A 
ATOM     28  C   UNL     1      -3.404  -6.330   0.000  0.00  0.00    +0.004 A 
ENDBRANCH  19  26
ENDBRANCH   1  20
TORSDOF 4
