REMARK  Name = ZINC39761028
REMARK  14 active torsions:
REMARK  status: ('A' for Active; 'I' for Inactive)
REMARK    1  A    between atoms: C_1  and  C_2
REMARK    2  A    between atoms: C_5  and  N_9
REMARK    3  A    between atoms: C_6  and  C_8
REMARK    4  A    between atoms: C_10  and  C_12
REMARK    5  A    between atoms: C_12  and  C_13
REMARK    6  A    between atoms: C_16  and  S_22
REMARK    7  A    between atoms: N_17  and  C_18
REMARK    8  A    between atoms: C_18  and  C_19
REMARK    9  A    between atoms: C_19  and  C_20
REMARK   10  A    between atoms: C_19  and  C_21
REMARK   11  A    between atoms: S_22  and  C_23
REMARK   12  A    between atoms: C_23  and  C_24
REMARK   13  A    between atoms: N_26  and  C_27
REMARK   14  A    between atoms: C_30  and  C_33
REMARK                            x       y       z     vdW  Elec       q    Type
REMARK                         _______ _______ _______ _____ _____    ______ ____
ROOT
ATOM      1  C   UNL     1      -0.224  -6.846  -2.604  0.00  0.00    +0.143 A 
ATOM      2  N   UNL     1      -1.324  -7.058  -3.270  0.00  0.00    -0.133 NA
ATOM      3  N   UNL     1      -1.049  -7.479  -4.453  0.00  0.00    -0.122 NA
ATOM      4  C   UNL     1       0.253  -7.559  -4.607  0.00  0.00    +0.192 A 
ATOM      5  N   UNL     1       0.820  -7.152  -3.433  0.00  0.00    -0.305 N 
ENDROOT
BRANCH   1   6
ATOM      6  C   UNL     1      -0.121  -6.349  -1.185  0.00  0.00    +0.172 C 
BRANCH   6   8
ATOM      7  N   UNL     1       0.027  -4.173  -0.017  0.00  0.00    -0.285 N 
ATOM      8  C   UNL     1      -0.067  -4.843  -1.183  0.00  0.00    +0.225 C 
ATOM      9  O   UNL     1      -0.109  -4.233  -2.231  0.00  0.00    -0.275 OA
ATOM     10  H   UNL     1       0.128  -4.661   0.815  0.00  0.00    +0.155 HD
BRANCH   7  15
ATOM     11  C   UNL     1      -0.170   1.496   0.021  0.00  0.00    +0.044 C 
ATOM     12  C   UNL     1      -0.118  -0.010   0.011  0.00  0.00    -0.050 A 
ATOM     13  C   UNL     1       0.488  -0.672  -1.041  0.00  0.00    +0.005 A 
ATOM     14  C   UNL     1       0.538  -2.052  -1.054  0.00  0.00    +0.024 A 
ATOM     15  C   UNL     1      -0.021  -2.775  -0.008  0.00  0.00    +0.036 A 
ATOM     16  C   UNL     1      -0.629  -2.107   1.047  0.00  0.00    -0.029 A 
ATOM     17  C   UNL     1      -0.671  -0.726   1.056  0.00  0.00    +0.008 A 
ATOM     18  C   UNL     1      -1.237  -2.887   2.184  0.00  0.00    +0.045 C 
ENDBRANCH   7  15
ENDBRANCH   6   8
ENDBRANCH   1   6
BRANCH   5  19
ATOM     19  C   UNL     1       2.249  -7.066  -3.125  0.00  0.00    +0.128 C 
BRANCH  19  20
ATOM     20  C   UNL     1       2.727  -8.396  -2.540  0.00  0.00    +0.003 C 
ATOM     21  C   UNL     1       4.242  -8.349  -2.334  0.00  0.00    +0.009 C 
ATOM     22  C   UNL     1       2.037  -8.640  -1.196  0.00  0.00    +0.009 C 
ENDBRANCH  19  20
ENDBRANCH   5  19
BRANCH   4  23
ATOM     23  S   UNL     1       1.106  -8.085  -6.056  0.00  0.00    -0.077 S 
BRANCH  23  24
ATOM     24  C   UNL     1      -0.221  -8.470  -7.231  0.00  0.00    +0.173 C 
BRANCH  24  25
ATOM     25  C   UNL     1       0.380  -8.939  -8.531  0.00  0.00    +0.227 C 
ATOM     26  O   UNL     1       1.584  -9.006  -8.653  0.00  0.00    -0.275 OA
ATOM     27  N   UNL     1      -0.422  -9.283  -9.559  0.00  0.00    -0.285 N 
ATOM     28  H   UNL     1      -1.380  -9.150  -9.492  0.00  0.00    +0.155 HD
BRANCH  27  29
ATOM     29  C   UNL     1       0.127  -9.832 -10.718  0.00  0.00    +0.033 A 
ATOM     30  C   UNL     1       1.334 -10.522 -10.656  0.00  0.00    +0.024 A 
ATOM     31  C   UNL     1       1.879 -11.064 -11.798  0.00  0.00    +0.020 A 
ATOM     32  C   UNL     1       1.218 -10.922 -13.021  0.00  0.00    +0.052 A 
ATOM     33  C   UNL     1       0.005 -10.229 -13.080  0.00  0.00    +0.020 A 
ATOM     34  C   UNL     1      -0.536  -9.693 -11.933  0.00  0.00    +0.024 A 
BRANCH  32  35
ATOM     35  C   UNL     1       1.781 -11.484 -14.212  0.00  0.00    +0.099 C 
ATOM     36  N   UNL     1       2.229 -11.930 -15.156  0.00  0.00    -0.191 NA
ENDBRANCH  32  35
ENDBRANCH  27  29
ENDBRANCH  24  25
ENDBRANCH  23  24
ENDBRANCH   4  23
TORSDOF 10
