REMARK  Name = ZINC40400434
REMARK  7 active torsions:
REMARK  status: ('A' for Active; 'I' for Inactive)
REMARK    1  A    between atoms: C_1  and  C_2
REMARK    2  A    between atoms: C_5  and  N_8
REMARK    3  A    between atoms: C_21  and  C_23
REMARK    4  A    between atoms: N_25  and  C_26
REMARK    5  A    between atoms: C_29  and  C_32
REMARK    6  A    between atoms: C_32  and  C_33
REMARK    7  A    between atoms: C_32  and  C_34
REMARK                            x       y       z     vdW  Elec       q    Type
REMARK                         _______ _______ _______ _____ _____    ______ ____
ROOT
ATOM      1  N   UNL     1       0.013  -3.383   0.488  0.00  0.00    -0.285 N 
ATOM      2  C   UNL     1       0.139  -4.228   1.560  0.00  0.00    +0.202 A 
ATOM      3  N   UNL     1       0.205  -5.571   1.345  0.00  0.00    -0.295 N 
ATOM      4  H   UNL     1       0.175  -5.918   0.440  0.00  0.00    +0.172 HD
ATOM      5  C   UNL     1       0.312  -6.418   2.391  0.00  0.00    +0.258 A 
ATOM      6  O   UNL     1       0.356  -7.625   2.212  0.00  0.00    -0.267 OA
ATOM      7  C   UNL     1       0.371  -5.885   3.682  0.00  0.00    +0.069 A 
ATOM      8  C   UNL     1       0.320  -4.513   3.848  0.00  0.00    +0.138 A 
ATOM      9  N   UNL     1       0.198  -3.722   2.774  0.00  0.00    -0.200 NA
ATOM     10  N   UNL     1       0.420  -3.958   5.112  0.00  0.00    -0.270 N 
ATOM     11  C   UNL     1       0.825  -4.695   6.160  0.00  0.00    +0.219 C 
ATOM     12  O   UNL     1       0.801  -4.217   7.274  0.00  0.00    -0.275 OA
ATOM     13  C   UNL     1       1.305  -6.110   5.968  0.00  0.00    +0.114 C 
ATOM     14  C   UNL     1       0.477  -6.793   4.878  0.00  0.00    +0.122 C 
ATOM     15  H   UNL     1      -0.116  -3.746  -0.402  0.00  0.00    +0.155 HD
ATOM     16  H   UNL     1       0.196  -3.023   5.243  0.00  0.00    +0.156 HD
ENDROOT
BRANCH   1  21
ATOM     17  C   UNL     1       0.246   2.232   1.258  0.00  0.00    +0.044 C 
ATOM     18  C   UNL     1       0.184   0.740   1.053  0.00  0.00    -0.050 A 
ATOM     19  C   UNL     1       0.945  -0.097   1.848  0.00  0.00    +0.005 A 
ATOM     20  C   UNL     1       0.890  -1.465   1.663  0.00  0.00    +0.023 A 
ATOM     21  C   UNL     1       0.070  -1.999   0.678  0.00  0.00    +0.034 A 
ATOM     22  C   UNL     1      -0.694  -1.155  -0.118  0.00  0.00    +0.023 A 
ATOM     23  C   UNL     1      -0.639   0.212   0.075  0.00  0.00    +0.005 A 
ENDBRANCH   1  21
BRANCH  14  24
ATOM     24  C   UNL     1      -0.902  -7.090   5.407  0.00  0.00    +0.225 C 
ATOM     25  O   UNL     1      -1.876  -6.610   4.866  0.00  0.00    -0.275 OA
ATOM     26  N   UNL     1      -1.054  -7.888   6.483  0.00  0.00    -0.285 N 
ATOM     27  H   UNL     1      -0.274  -8.216   6.957  0.00  0.00    +0.155 HD
BRANCH  26  28
ATOM     28  C   UNL     1      -2.337  -8.242   6.915  0.00  0.00    +0.033 A 
ATOM     29  C   UNL     1      -3.359  -8.416   5.991  0.00  0.00    +0.023 A 
ATOM     30  C   UNL     1      -4.624  -8.766   6.421  0.00  0.00    +0.006 A 
ATOM     31  C   UNL     1      -4.873  -8.944   7.770  0.00  0.00    -0.045 A 
ATOM     32  C   UNL     1      -3.857  -8.772   8.692  0.00  0.00    +0.006 A 
ATOM     33  C   UNL     1      -2.589  -8.428   8.268  0.00  0.00    +0.023 A 
BRANCH  31  34
ATOM     34  C   UNL     1      -6.255  -9.326   8.235  0.00  0.00    +0.013 C 
ATOM     35  C   UNL     1      -6.192 -10.666   8.972  0.00  0.00    +0.012 C 
ATOM     36  C   UNL     1      -6.790  -8.249   9.180  0.00  0.00    +0.012 C 
ENDBRANCH  31  34
ENDBRANCH  26  28
ENDBRANCH  14  24
TORSDOF 4
