REMARK  Name = ZINC39678481
REMARK  7 active torsions:
REMARK  status: ('A' for Active; 'I' for Inactive)
REMARK    1  A    between atoms: C_3  and  C_11
REMARK    2  A    between atoms: C_5  and  O_7
REMARK    3  A    between atoms: O_7  and  C_8
REMARK    4  A    between atoms: C_11  and  N_12
REMARK    5  A    between atoms: C_13  and  C_15
REMARK    6  A    between atoms: C_26  and  C_28
REMARK    7  A    between atoms: C_28  and  C_29
REMARK                            x       y       z     vdW  Elec       q    Type
REMARK                         _______ _______ _______ _____ _____    ______ ____
ROOT
ATOM      1  C   UNL     1       5.686   3.366   3.014  0.00  0.00    +0.100 C 
ATOM      2  C   UNL     1       5.857   2.028   3.769  0.00  0.00    +0.121 C 
ATOM      3  N   UNL     1       7.298   1.707   3.638  0.00  0.00    -0.300 N 
ATOM      4  C   UNL     1       7.982   3.014   3.788  0.00  0.00    +0.115 C 
ATOM      5  C   UNL     1       7.082   4.011   3.032  0.00  0.00    -0.004 C 
ATOM      6  C   UNL     1       7.037   5.346   3.769  0.00  0.00    -0.010 C 
ATOM      7  C   UNL     1       8.423   5.996   3.723  0.00  0.00    -0.082 C 
ATOM      8  N   UNL     1       8.824   6.199   2.325  0.00  0.00    +0.379 N 
ATOM      9  C   UNL     1       8.954   4.903   1.649  0.00  0.00    -0.082 C 
ATOM     10  C   UNL     1       7.591   4.207   1.607  0.00  0.00    -0.010 C 
ATOM     11  C   UNL     1       7.860   0.500   3.431  0.00  0.00    +0.220 C 
ATOM     12  O   UNL     1       9.065   0.398   3.347  0.00  0.00    -0.275 OA
ATOM     13  H   UNL     1       8.126   6.754   1.854  0.00  0.00    -0.086 HD
ATOM     14  H   UNL     1       9.709   6.682   2.297  0.00  0.00    -0.086 HD
ENDROOT
BRANCH   1  16
ATOM     15  N   UNL     1       4.506   4.039   0.947  0.00  0.00    -0.311 N 
ATOM     16  C   UNL     1       5.242   3.115   1.596  0.00  0.00    +0.218 C 
ATOM     17  O   UNL     1       5.545   2.081   1.040  0.00  0.00    -0.275 OA
ATOM     18  H   UNL     1       4.263   4.866   1.392  0.00  0.00    +0.149 HD
BRANCH  15  19
ATOM     19  C   UNL     1       4.074   3.795  -0.431  0.00  0.00    +0.139 C 
BRANCH  19  22
ATOM     20  C   UNL     1       3.177   7.109  -2.005  0.00  0.00    +0.004 A 
ATOM     21  C   UNL     1       3.909   6.026  -1.553  0.00  0.00    +0.005 A 
ATOM     22  C   UNL     1       3.273   4.973  -0.923  0.00  0.00    -0.027 A 
ATOM     23  C   UNL     1       1.903   4.999  -0.743  0.00  0.00    +0.051 A 
ATOM     24  C   UNL     1       1.167   6.084  -1.196  0.00  0.00    +0.127 A 
ATOM     25  C   UNL     1       1.807   7.140  -1.828  0.00  0.00    +0.046 A 
BRANCH  24  26
ATOM     26  O   UNL     1      -0.181   6.112  -1.021  0.00  0.00    -0.434 OA
BRANCH  26  27
ATOM     27  C   UNL     1      -0.875   7.261  -1.512  0.00  0.00    +0.541 C 
ATOM     28  F   UNL     1      -0.389   8.407  -0.875  0.00  0.00    -0.166 F 
ATOM     29  F   UNL     1      -0.673   7.373  -2.892  0.00  0.00    -0.166 F 
ENDBRANCH  26  27
ENDBRANCH  24  26
ENDBRANCH  19  22
ENDBRANCH  15  19
ENDBRANCH   1  16
BRANCH  11  30
ATOM     30  C   UNL     1       6.990  -0.724   3.305  0.00  0.00    +0.131 C 
BRANCH  30  31
ATOM     31  C   UNL     1       7.857  -1.936   3.080  0.00  0.00    -0.039 A 
ATOM     32  C   UNL     1       8.191  -2.317   1.793  0.00  0.00    +0.005 A 
ATOM     33  C   UNL     1       8.986  -3.429   1.586  0.00  0.00    +0.020 A 
ATOM     34  C   UNL     1       9.448  -4.159   2.666  0.00  0.00    +0.041 A 
ATOM     35  C   UNL     1       9.114  -3.777   3.953  0.00  0.00    +0.020 A 
ATOM     36  C   UNL     1       8.323  -2.663   4.159  0.00  0.00    +0.005 A 
ATOM     37 CL   UNL     1      10.447  -5.555   2.406  0.00  0.00    -0.084 Cl
ENDBRANCH  30  31
ENDBRANCH  11  30
TORSDOF 7
