REMARK  Name = ZINC15074566
REMARK  12 active torsions:
REMARK  status: ('A' for Active; 'I' for Inactive)
REMARK    1  A    between atoms: C_2  and  C_3
REMARK    2  A    between atoms: C_3  and  C_4
REMARK    3  A    between atoms: C_4  and  C_26
REMARK    4  A    between atoms: C_8  and  C_9
REMARK    5  A    between atoms: C_8  and  N_64
REMARK    6  A    between atoms: C_14  and  O_15
REMARK    7  A    between atoms: O_15  and  C_16
REMARK    8  A    between atoms: C_16  and  C_17
REMARK    9  A    between atoms: C_17  and  C_19
REMARK   10  A    between atoms: C_17  and  O_25
REMARK   11  A    between atoms: C_19  and  N_66
REMARK   12  A    between atoms: C_26  and  C_27
REMARK                            x       y       z     vdW  Elec       q    Type
REMARK                         _______ _______ _______ _____ _____    ______ ____
ROOT
ATOM      1  C   UNL     1      -0.629  -3.940  -2.526  0.00  0.00    -0.022 A 
ATOM      2  C   UNL     1      -0.344  -4.819  -3.554  0.00  0.00    +0.005 A 
ATOM      3  C   UNL     1      -0.034  -4.337  -4.812  0.00  0.00    +0.000 A 
ATOM      4  C   UNL     1      -0.008  -2.974  -5.045  0.00  0.00    +0.004 A 
ATOM      5  C   UNL     1      -0.297  -2.091  -4.023  0.00  0.00    +0.046 A 
ATOM      6  C   UNL     1      -0.603  -2.573  -2.758  0.00  0.00    +0.122 A 
ENDROOT
BRANCH   1   7
ATOM      7  C   UNL     1      -0.968  -4.467  -1.156  0.00  0.00    -0.039 C 
BRANCH   7  12
ATOM      8  C   UNL     1      -2.800  -5.108   0.305  0.00  0.00    -0.058 C 
ATOM      9  C   UNL     1      -4.074  -4.390   0.787  0.00  0.00    -0.013 C 
ATOM     10  C   UNL     1      -4.376  -3.332  -0.300  0.00  0.00    -0.020 C 
ATOM     11  C   UNL     1      -3.000  -3.137  -0.985  0.00  0.00    -0.078 C 
ATOM     12  N   UNL     1      -2.451  -4.498  -0.983  0.00  0.00    +0.387 N 
ATOM     13  H   UNL     1      -2.868  -5.041  -1.748  0.00  0.00    -0.081 HD
BRANCH   8  14
ATOM     14  C   UNL     1      -3.079  -6.602   0.128  0.00  0.00    +0.015 C 
BRANCH  14  16
ATOM     15  C   UNL     1      -4.721  -7.808   1.473  0.00  0.00    +0.004 C 
ATOM     16  C   UNL     1      -3.573  -7.179   1.429  0.00  0.00    -0.036 C 
ENDBRANCH  14  16
ENDBRANCH   8  14
BRANCH   8  17
ATOM     17  C   UNL     1      -1.671  -4.902   1.318  0.00  0.00    +0.015 C 
BRANCH  17  18
ATOM     18  C   UNL     1      -1.514  -3.430   1.602  0.00  0.00    -0.036 C 
ATOM     19  C   UNL     1      -1.664  -2.980   2.823  0.00  0.00    +0.004 C 
ENDBRANCH  17  18
ENDBRANCH   8  17
ENDBRANCH   7  12
ENDBRANCH   1   7
BRANCH   6  20
ATOM     20  O   UNL     1      -0.883  -1.706  -1.749  0.00  0.00    -0.489 OA
BRANCH  20  21
ATOM     21  C   UNL     1      -0.940  -0.318  -2.083  0.00  0.00    +0.258 C 
BRANCH  21  22
ATOM     22  C   UNL     1      -1.370   0.485  -0.854  0.00  0.00    +0.135 C 
BRANCH  22  23
ATOM     23  O   UNL     1      -2.702   0.119  -0.487  0.00  0.00    -0.390 OA
ATOM     24  H   UNL     1      -3.369   0.351  -1.148  0.00  0.00    +0.210 HD
ENDBRANCH  22  23
BRANCH  22  25
ATOM     25  C   UNL     1      -1.322   1.979  -1.179  0.00  0.00    -0.044 C 
BRANCH  25  31
ATOM     26  C   UNL     1      -2.081   4.101  -0.302  0.00  0.00    -0.068 C 
ATOM     27  C   UNL     1      -2.802   4.717   0.903  0.00  0.00    +0.050 C 
ATOM     28  S   UNL     1      -1.616   4.838   2.278  0.00  0.00    -0.164 S 
ATOM     29  C   UNL     1      -0.913   3.161   2.350  0.00  0.00    +0.050 C 
ATOM     30  C   UNL     1      -0.462   2.766   0.939  0.00  0.00    -0.068 C 
ATOM     31  N   UNL     1      -1.645   2.730   0.047  0.00  0.00    +0.382 N 
ATOM     32  H   UNL     1      -2.412   2.255   0.536  0.00  0.00    -0.082 HD
ENDBRANCH  25  31
ENDBRANCH  22  25
ENDBRANCH  21  22
ENDBRANCH  20  21
ENDBRANCH   6  20
TORSDOF 12
