REMARK  Name = ZINC43263051
REMARK  12 active torsions:
REMARK  status: ('A' for Active; 'I' for Inactive)
REMARK    1  A    between atoms: C_1  and  C_2
REMARK    2  A    between atoms: C_2  and  C_3
REMARK    3  A    between atoms: C_3  and  C_5
REMARK    4  A    between atoms: C_3  and  N_22
REMARK    5  A    between atoms: C_5  and  C_7
REMARK    6  A    between atoms: C_5  and  N_13
REMARK    7  A    between atoms: N_13  and  C_14
REMARK    8  A    between atoms: N_13  and  C_18
REMARK    9  A    between atoms: C_14  and  C_15
REMARK   10  A    between atoms: C_15  and  C_16
REMARK   11  A    between atoms: C_15  and  C_17
REMARK   12  A    between atoms: C_18  and  C_19
REMARK                            x       y       z     vdW  Elec       q    Type
REMARK                         _______ _______ _______ _____ _____    ______ ____
ROOT
ATOM      1  C   UNL     1       0.541  -1.770  -1.571  0.00  0.00    -0.045 C 
ENDROOT
BRANCH   1   2
ATOM      2  C   UNL     1       1.557  -1.864  -0.463  0.00  0.00    -0.024 A 
ATOM      3  C   UNL     1       2.354  -0.895   0.049  0.00  0.00    +0.010 A 
ATOM      4  C   UNL     1       3.222  -1.213   1.077  0.00  0.00    +0.023 A 
ATOM      5  C   UNL     1       3.249  -2.487   1.543  0.00  0.00    +0.055 A 
ATOM      6  S   UNL     1       2.018  -3.280   0.523  0.00  0.00    -0.088 S 
ATOM      7 BR   UNL     1       4.311  -3.228   2.921  0.00  0.00    -0.043 Br
ENDBRANCH   1   2
BRANCH   1   8
ATOM      8  N   UNL     1      -0.748  -2.296  -1.101  0.00  0.00    +0.389 N 
ATOM      9  H   UNL     1      -1.448  -2.159  -1.814  0.00  0.00    -0.080 HD
BRANCH   8  10
ATOM     10  C   UNL     1      -1.149  -1.586   0.121  0.00  0.00    -0.074 C 
BRANCH  10  11
ATOM     11  C   UNL     1      -1.403  -0.113  -0.205  0.00  0.00    -0.034 C 
ATOM     12  C   UNL     1      -2.566  -0.003  -1.194  0.00  0.00    +0.005 C 
ATOM     13  C   UNL     1      -1.753   0.641   1.079  0.00  0.00    +0.005 C 
ENDBRANCH  10  11
ENDBRANCH   8  10
BRANCH   8  14
ATOM     14  C   UNL     1      -0.615  -3.730  -0.812  0.00  0.00    +0.019 C 
BRANCH  14  15
ATOM     15  C   UNL     1      -1.969  -4.302  -0.480  0.00  0.00    +0.194 C 
ATOM     16  O   UNL     1      -2.948  -3.586  -0.484  0.00  0.00    -0.278 OA
ATOM     17  N   UNL     1      -2.093  -5.611  -0.180  0.00  0.00    -0.331 N 
ATOM     18  H   UNL     1      -1.310  -6.183  -0.177  0.00  0.00    +0.145 HD
ATOM     19  H   UNL     1      -2.964  -5.979   0.034  0.00  0.00    +0.145 HD
ENDBRANCH  14  15
ENDBRANCH   8  14
ENDBRANCH   1   8
BRANCH   1  20
ATOM     20  C   UNL     1       1.018  -2.590  -2.772  0.00  0.00    -0.085 C 
BRANCH  20  21
ATOM     21  N   UNL     1       2.312  -2.072  -3.236  0.00  0.00    +0.379 N 
ATOM     22  H   UNL     1       2.989  -2.141  -2.490  0.00  0.00    -0.090 HD
ATOM     23  H   UNL     1       2.627  -2.613  -4.027  0.00  0.00    -0.090 HD
ATOM     24  H   UNL     1       2.209  -1.106  -3.508  0.00  0.00    -0.090 HD
ENDBRANCH  20  21
BRANCH  20  26
ATOM     25  C   UNL     1       0.410  -3.397  -5.057  0.00  0.00    +0.002 C 
ATOM     26  C   UNL     1      -0.008  -2.485  -3.902  0.00  0.00    -0.021 C 
ENDBRANCH  20  26
ENDBRANCH   1  20
TORSDOF 9
