REMARK  Name = ZINC13501133
REMARK  11 active torsions:
REMARK  status: ('A' for Active; 'I' for Inactive)
REMARK    1  A    between atoms: C_1  and  C_2
REMARK    2  A    between atoms: C_2  and  C_3
REMARK    3  A    between atoms: C_3  and  C_5
REMARK    4  A    between atoms: C_3  and  N_72
REMARK    5  A    between atoms: N_9  and  C_10
REMARK    6  A    between atoms: C_10  and  C_11
REMARK    7  A    between atoms: C_11  and  C_12
REMARK    8  A    between atoms: C_18  and  C_19
REMARK    9  A    between atoms: C_18  and  N_72
REMARK   10  A    between atoms: C_25  and  C_31
REMARK   11  A    between atoms: C_32  and  N_72
REMARK                            x       y       z     vdW  Elec       q    Type
REMARK                         _______ _______ _______ _____ _____    ______ ____
ROOT
ATOM      1  N   UNL     1      -0.101   0.010  -0.284  0.00  0.00    +0.391 N 
ATOM      2  H   UNL     1       0.200  -0.192   0.677  0.00  0.00    -0.080 HD
ENDROOT
BRANCH   1   3
ATOM      3  C   UNL     1      -1.244  -0.863  -0.622  0.00  0.00    -0.067 C 
ATOM      4  C   UNL     1      -1.761  -0.549  -2.028  0.00  0.00    -0.015 C 
ATOM      5  C   UNL     1      -2.944  -1.464  -2.352  0.00  0.00    -0.002 C 
ATOM      6  C   UNL     1      -4.062  -1.234  -1.334  0.00  0.00    -0.000 C 
ATOM      7  C   UNL     1      -3.545  -1.548   0.071  0.00  0.00    -0.002 C 
ATOM      8  C   UNL     1      -2.363  -0.632   0.396  0.00  0.00    -0.015 C 
ENDBRANCH   1   3
BRANCH   1   9
ATOM      9  C   UNL     1       1.025  -0.252  -1.204  0.00  0.00    +0.003 C 
BRANCH   9  10
ATOM     10  C   UNL     1       0.911   0.611  -2.434  0.00  0.00    +0.138 A 
ATOM     11  N   UNL     1      -0.193   0.934  -3.063  0.00  0.00    -0.115 NA
ATOM     12  N   UNL     1       0.124   1.682  -4.064  0.00  0.00    -0.023 NA
ATOM     13  N   UNL     1       1.400   1.845  -4.089  0.00  0.00    -0.044 NA
ATOM     14  N   UNL     1       1.921   1.204  -3.097  0.00  0.00    -0.231 N 
BRANCH  14  15
ATOM     15  C   UNL     1       3.344   1.132  -2.759  0.00  0.00    +0.152 C 
BRANCH  15  16
ATOM     16  C   UNL     1       3.979  -0.062  -3.474  0.00  0.00    +0.058 C 
BRANCH  16  17
ATOM     17  C   UNL     1       5.444  -0.136  -3.126  0.00  0.00    -0.046 A 
ATOM     18  C   UNL     1       6.374   0.525  -3.906  0.00  0.00    +0.004 A 
ATOM     19  C   UNL     1       7.717   0.462  -3.583  0.00  0.00    +0.000 A 
ATOM     20  C   UNL     1       8.130  -0.271  -2.487  0.00  0.00    +0.000 A 
ATOM     21  C   UNL     1       7.200  -0.936  -1.709  0.00  0.00    +0.000 A 
ATOM     22  C   UNL     1       5.857  -0.868  -2.029  0.00  0.00    +0.004 A 
ENDBRANCH  16  17
ENDBRANCH  15  16
ENDBRANCH  14  15
ENDBRANCH   9  10
BRANCH   9  24
ATOM     23  C   UNL     1       1.265  -2.599  -0.381  0.00  0.00    +0.002 C 
ATOM     24  C   UNL     1       1.015  -1.727  -1.613  0.00  0.00    -0.011 C 
ENDBRANCH   9  24
ENDBRANCH   1   9
BRANCH   1  25
ATOM     25  C   UNL     1      -0.505   1.429  -0.372  0.00  0.00    -0.036 C 
BRANCH  25  26
ATOM     26  C   UNL     1       0.533   2.273   0.321  0.00  0.00    +0.001 A 
ATOM     27  C   UNL     1       1.496   2.892  -0.406  0.00  0.00    +0.017 A 
ATOM     28  C   UNL     1       2.491   3.704   0.298  0.00  0.00    -0.001 A 
ATOM     29  C   UNL     1       3.507   4.366  -0.397  0.00  0.00    +0.010 A 
ATOM     30  C   UNL     1       4.420   5.116   0.289  0.00  0.00    +0.001 A 
ATOM     31  C   UNL     1       4.347   5.227   1.671  0.00  0.00    +0.005 A 
ATOM     32  C   UNL     1       3.354   4.583   2.377  0.00  0.00    -0.026 A 
ATOM     33  C   UNL     1       2.413   3.814   1.700  0.00  0.00    +0.052 A 
ATOM     34  N   UNL     1       1.409   3.159   2.380  0.00  0.00    -0.322 N 
ATOM     35  H   UNL     1       1.357   3.237   3.346  0.00  0.00    +0.169 HD
ATOM     36  C   UNL     1       0.497   2.420   1.725  0.00  0.00    +0.251 A 
ATOM     37  O   UNL     1      -0.380   1.859   2.358  0.00  0.00    -0.268 OA
ATOM     38  C   UNL     1       3.287   4.712   3.877  0.00  0.00    +0.046 C 
ENDBRANCH  25  26
ENDBRANCH   1  25
TORSDOF 9
