REMARK  Name = ZINC05942142
REMARK  7 active torsions:
REMARK  status: ('A' for Active; 'I' for Inactive)
REMARK    1  A    between atoms: C_4  and  C_7
REMARK    2  A    between atoms: C_12  and  N_13
REMARK    3  A    between atoms: N_16  and  C_17
REMARK    4  A    between atoms: C_17  and  C_18
REMARK    5  A    between atoms: C_18  and  N_19
REMARK    6  A    between atoms: N_19  and  C_20
REMARK    7  A    between atoms: C_21  and  C_32
REMARK                            x       y       z     vdW  Elec       q    Type
REMARK                         _______ _______ _______ _____ _____    ______ ____
ROOT
ATOM      1  C   UNL     1       4.605  -6.507   3.927  0.00  0.00    +0.124 C 
ENDROOT
BRANCH   1   5
ATOM      2  N   UNL     1       3.188  -9.863   4.424  0.00  0.00    -0.269 N 
ATOM      3  C   UNL     1       4.042  -8.820   4.444  0.00  0.00    +0.304 C 
ATOM      4  O   UNL     1       5.142  -8.945   4.946  0.00  0.00    -0.253 OA
ATOM      5  N   UNL     1       3.676  -7.640   3.906  0.00  0.00    -0.298 N 
ATOM      6  H   UNL     1       2.282  -9.742   4.098  0.00  0.00    +0.156 HD
ATOM      7  H   UNL     1       2.799  -7.540   3.505  0.00  0.00    +0.150 HD
BRANCH   2  13
ATOM      8  C   UNL     1       2.670 -12.040   5.354  0.00  0.00    +0.003 A 
ATOM      9  C   UNL     1       3.098 -13.290   5.796  0.00  0.00    +0.010 A 
ATOM     10  C   UNL     1       4.440 -13.609   5.769  0.00  0.00    +0.001 A 
ATOM     11  C   UNL     1       5.365 -12.693   5.298  0.00  0.00    +0.002 A 
ATOM     12  C   UNL     1       4.953 -11.452   4.853  0.00  0.00    +0.024 A 
ATOM     13  C   UNL     1       3.607 -11.118   4.874  0.00  0.00    +0.042 A 
BRANCH   8  17
ATOM     14  C   UNL     1      -1.461 -11.040   5.449  0.00  0.00    +0.000 A 
ATOM     15  C   UNL     1      -1.054 -12.234   4.881  0.00  0.00    +0.001 A 
ATOM     16  C   UNL     1       0.286 -12.563   4.847  0.00  0.00    +0.008 A 
ATOM     17  C   UNL     1       1.229 -11.691   5.387  0.00  0.00    -0.016 A 
ATOM     18  C   UNL     1       0.813 -10.492   5.963  0.00  0.00    +0.008 A 
ATOM     19  C   UNL     1      -0.529 -10.170   5.986  0.00  0.00    +0.001 A 
ENDBRANCH   8  17
ENDBRANCH   2  13
ENDBRANCH   1   5
BRANCH   1  20
ATOM     20  C   UNL     1       3.949  -5.297   3.258  0.00  0.00    +0.121 C 
BRANCH  20  21
ATOM     21  N   UNL     1       4.877  -4.164   3.279  0.00  0.00    -0.328 N 
ATOM     22  H   UNL     1       5.755  -4.264   3.679  0.00  0.00    +0.147 HD
BRANCH  21  23
ATOM     23  C   UNL     1       4.502  -2.952   2.727  0.00  0.00    +0.114 A 
ATOM     24  C   UNL     1       5.409  -1.867   2.754  0.00  0.00    +0.090 A 
ATOM     25  C   UNL     1       5.033  -0.649   2.200  0.00  0.00    +0.032 A 
ATOM     26  C   UNL     1       3.752  -0.548   1.631  0.00  0.00    +0.003 A 
ATOM     27  C   UNL     1       3.311   0.656   1.055  0.00  0.00    +0.059 A 
ATOM     28  C   UNL     1       2.064   0.733   0.508  0.00  0.00    +0.167 A 
ATOM     29  C   UNL     1       1.211  -0.385   0.514  0.00  0.00    +0.168 A 
ATOM     30  C   UNL     1       1.619  -1.575   1.071  0.00  0.00    +0.075 A 
ATOM     31  C   UNL     1       2.898  -1.679   1.640  0.00  0.00    +0.052 A 
ATOM     32  O   UNL     1       0.038  -0.035  -0.091  0.00  0.00    -0.453 OA
ATOM     33  C   UNL     1       0.020   1.405  -0.094  0.00  0.00    +0.466 C 
ATOM     34  O   UNL     1       1.413   1.769  -0.100  0.00  0.00    -0.453 OA
ATOM     35  N   UNL     1       3.260  -2.894   2.187  0.00  0.00    -0.342 N 
ATOM     36  H   UNL     1       2.628  -3.703   2.185  0.00  0.00    +0.167 HD
BRANCH  24  37
ATOM     37  C   UNL     1       6.704  -2.022   3.347  0.00  0.00    +0.103 C 
ATOM     38  N   UNL     1       7.731  -2.145   3.817  0.00  0.00    -0.191 NA
ENDBRANCH  24  37
ENDBRANCH  21  23
ENDBRANCH  20  21
ENDBRANCH   1  20
TORSDOF 7
