REMARK  Name = ZINC39686281
REMARK  7 active torsions:
REMARK  status: ('A' for Active; 'I' for Inactive)
REMARK    1  A    between atoms: C_1  and  C_2
REMARK    2  A    between atoms: C_2  and  C_3
REMARK    3  A    between atoms: C_2  and  C_4
REMARK    4  A    between atoms: C_4  and  C_5
REMARK    5  A    between atoms: C_10  and  N_13
REMARK    6  A    between atoms: C_14  and  C_16
REMARK    7  A    between atoms: C_27  and  C_29
REMARK                            x       y       z     vdW  Elec       q    Type
REMARK                         _______ _______ _______ _____ _____    ______ ____
ROOT
ATOM      1  C   UNL     1      -6.986  -6.163  -2.925  0.00  0.00    +0.100 C 
ATOM      2  C   UNL     1      -6.345  -6.065  -4.328  0.00  0.00    +0.121 C 
ATOM      3  N   UNL     1      -6.011  -7.464  -4.686  0.00  0.00    -0.296 N 
ATOM      4  C   UNL     1      -7.159  -8.257  -4.183  0.00  0.00    +0.115 C 
ATOM      5  C   UNL     1      -7.522  -7.602  -2.836  0.00  0.00    -0.004 C 
ATOM      6  C   UNL     1      -9.035  -7.591  -2.644  0.00  0.00    -0.010 C 
ATOM      7  C   UNL     1      -9.537  -9.030  -2.499  0.00  0.00    -0.082 C 
ATOM      8  N   UNL     1      -8.883  -9.665  -1.349  0.00  0.00    +0.379 N 
ATOM      9  C   UNL     1      -7.437  -9.756  -1.583  0.00  0.00    -0.082 C 
ATOM     10  C   UNL     1      -6.846  -8.347  -1.689  0.00  0.00    -0.010 C 
ATOM     11  C   UNL     1      -4.913  -7.914  -5.324  0.00  0.00    +0.249 C 
ATOM     12  O   UNL     1      -4.825  -9.087  -5.631  0.00  0.00    -0.270 OA
ATOM     13  H   UNL     1      -9.055  -9.116  -0.520  0.00  0.00    -0.086 HD
ATOM     14  H   UNL     1      -9.260 -10.592  -1.219  0.00  0.00    -0.086 HD
ENDROOT
BRANCH  11  15
ATOM     15  C   UNL     1      -3.815  -6.981  -5.652  0.00  0.00    +0.073 A 
ATOM     16  C   UNL     1      -4.098  -5.659  -6.001  0.00  0.00    +0.036 A 
ATOM     17  C   UNL     1      -3.068  -4.793  -6.305  0.00  0.00    +0.042 A 
ATOM     18  C   UNL     1      -1.754  -5.231  -6.265  0.00  0.00    +0.023 A 
ATOM     19  C   UNL     1      -1.465  -6.538  -5.920  0.00  0.00    +0.040 A 
ATOM     20  C   UNL     1      -2.487  -7.416  -5.607  0.00  0.00    +0.136 A 
ATOM     21  F   UNL     1      -2.203  -8.692  -5.264  0.00  0.00    -0.205 F 
ATOM     22 CL   UNL     1      -3.419  -3.150  -6.741  0.00  0.00    -0.084 Cl
ENDBRANCH  11  15
BRANCH   1  24
ATOM     23  N   UNL     1      -6.319  -5.419  -0.663  0.00  0.00    -0.312 N 
ATOM     24  C   UNL     1      -5.950  -5.922  -1.858  0.00  0.00    +0.218 C 
ATOM     25  O   UNL     1      -4.785  -6.180  -2.074  0.00  0.00    -0.275 OA
ATOM     26  H   UNL     1      -7.251  -5.213  -0.490  0.00  0.00    +0.149 HD
BRANCH  23  32
ATOM     27  C   UNL     1      -4.088  -2.808   3.494  0.00  0.00    +0.216 C 
ATOM     28  O   UNL     1      -3.494  -1.780   3.247  0.00  0.00    -0.276 OA
ATOM     29  N   UNL     1      -4.196  -3.767   2.554  0.00  0.00    -0.301 N 
ATOM     30  C   UNL     1      -4.918  -5.015   2.836  0.00  0.00    +0.109 C 
ATOM     31  C   UNL     1      -5.980  -5.226   1.752  0.00  0.00    +0.041 C 
ATOM     32  C   UNL     1      -5.312  -5.184   0.376  0.00  0.00    +0.076 C 
ATOM     33  C   UNL     1      -4.668  -3.813   0.160  0.00  0.00    +0.041 C 
ATOM     34  C   UNL     1      -3.597  -3.583   1.225  0.00  0.00    +0.109 C 
BRANCH  27  35
ATOM     35  C   UNL     1      -4.708  -3.012   4.853  0.00  0.00    +0.099 C 
BRANCH  35  37
ATOM     36  C   UNL     1      -5.175  -1.935   7.059  0.00  0.00    +0.008 C 
ATOM     37  C   UNL     1      -4.442  -1.783   5.724  0.00  0.00    -0.008 C 
ATOM     38  C   UNL     1      -2.940  -1.653   5.980  0.00  0.00    +0.008 C 
ENDBRANCH  35  37
ENDBRANCH  27  35
ENDBRANCH  23  32
ENDBRANCH   1  24
TORSDOF 5
