REMARK  Name = ZINC26614636
REMARK  7 active torsions:
REMARK  status: ('A' for Active; 'I' for Inactive)
REMARK    1  A    between atoms: C_7  and  C_11
REMARK    2  A    between atoms: C_14  and  S_19
REMARK    3  A    between atoms: N_15  and  C_16
REMARK    4  A    between atoms: S_19  and  C_20
REMARK    5  A    between atoms: C_20  and  C_21
REMARK    6  A    between atoms: N_23  and  C_24
REMARK    7  A    between atoms: C_29  and  N_30
REMARK                            x       y       z     vdW  Elec       q    Type
REMARK                         _______ _______ _______ _____ _____    ______ ____
ROOT
ATOM      1  C   UNL     1      -9.635   0.628   0.719  0.00  0.00    +0.167 A 
ATOM      2  N   UNL     1      -8.582   1.368   0.455  0.00  0.00    -0.128 NA
ATOM      3  N   UNL     1      -7.526   0.637   0.437  0.00  0.00    -0.122 NA
ATOM      4  C   UNL     1      -7.837  -0.613   0.687  0.00  0.00    +0.193 A 
ATOM      5  N   UNL     1      -9.192  -0.665   0.870  0.00  0.00    -0.299 N 
ENDROOT
BRANCH   1  12
ATOM      6  C   UNL     1     -11.587   4.878   0.703  0.00  0.00    +0.001 A 
ATOM      7  C   UNL     1     -12.968   4.832   0.835  0.00  0.00    +0.002 A 
ATOM      8  C   UNL     1     -13.622   3.626   0.953  0.00  0.00    +0.026 A 
ATOM      9  C   UNL     1     -12.893   2.440   0.940  0.00  0.00    +0.047 A 
ATOM     10  C   UNL     1     -11.495   2.494   0.811  0.00  0.00    +0.010 A 
ATOM     11  C   UNL     1     -10.853   3.725   0.688  0.00  0.00    +0.011 A 
ATOM     12  C   UNL     1     -11.032   1.096   0.828  0.00  0.00    +0.044 A 
ATOM     13  C   UNL     1     -12.138   0.321   0.968  0.00  0.00    +0.095 A 
ATOM     14  N   UNL     1     -13.249   1.112   1.035  0.00  0.00    -0.360 N 
ATOM     15  H   UNL     1     -14.306   0.832   1.148  0.00  0.00    +0.165 HD
ENDBRANCH   1  12
BRANCH   5  16
ATOM     16  C   UNL     1     -10.001  -1.850   1.166  0.00  0.00    +0.091 C 
ATOM     17  C   UNL     1      -9.267  -3.105   1.644  0.00  0.00    +0.027 C 
ATOM     18  C   UNL     1      -9.858  -3.054   0.233  0.00  0.00    +0.027 C 
ENDBRANCH   5  16
BRANCH   4  19
ATOM     19  S   UNL     1      -6.719  -1.973   0.765  0.00  0.00    -0.077 S 
BRANCH  19  20
ATOM     20  C   UNL     1      -5.161  -1.120   0.416  0.00  0.00    +0.173 C 
BRANCH  20  21
ATOM     21  C   UNL     1      -4.029  -2.115   0.431  0.00  0.00    +0.228 C 
ATOM     22  O   UNL     1      -4.254  -3.285   0.656  0.00  0.00    -0.275 OA
ATOM     23  N   UNL     1      -2.768  -1.703   0.195  0.00  0.00    -0.283 N 
ATOM     24  H   UNL     1      -2.552  -0.631   0.078  0.00  0.00    +0.155 HD
BRANCH  23  25
ATOM     25  C   UNL     1      -1.733  -2.640   0.100  0.00  0.00    +0.064 A 
ATOM     26  C   UNL     1      -1.972  -3.887  -0.463  0.00  0.00    +0.025 A 
ATOM     27  C   UNL     1      -0.949  -4.809  -0.556  0.00  0.00    +0.002 A 
ATOM     28  C   UNL     1       0.314  -4.493  -0.088  0.00  0.00    +0.002 A 
ATOM     29  C   UNL     1       0.557  -3.251   0.468  0.00  0.00    +0.034 A 
ATOM     30  C   UNL     1      -0.464  -2.326   0.569  0.00  0.00    +0.147 A 
BRANCH  30  31
ATOM     31  N   UNL     1      -0.204  -0.998   1.170  0.00  0.00    +0.058 N 
ATOM     32  O   UNL     1       0.884  -0.754   1.659  0.00  0.00    -0.126 OA
ATOM     33  O   UNL     1      -1.077  -0.149   1.170  0.00  0.00    -0.126 OA
ENDBRANCH  30  31
ENDBRANCH  23  25
ENDBRANCH  20  21
ENDBRANCH  19  20
ENDBRANCH   4  19
TORSDOF 7
