REMARK  Name = ZINC21320823
REMARK  10 active torsions:
REMARK  status: ('A' for Active; 'I' for Inactive)
REMARK    1  A    between atoms: C_4  and  C_7
REMARK    2  A    between atoms: C_7  and  O_8
REMARK    3  A    between atoms: O_8  and  C_9
REMARK    4  A    between atoms: C_14  and  C_15
REMARK    5  A    between atoms: N_16  and  N_17
REMARK    6  A    between atoms: C_21  and  S_24
REMARK    7  A    between atoms: N_22  and  N_23
REMARK    8  A    between atoms: S_24  and  C_25
REMARK    9  A    between atoms: C_25  and  C_26
REMARK   10  A    between atoms: C_26  and  C_28
REMARK                            x       y       z     vdW  Elec       q    Type
REMARK                         _______ _______ _______ _____ _____    ______ ____
ROOT
ATOM      1  N   UNL     1       1.248   2.038   0.772  0.00  0.00    -0.204 N 
ATOM      2  C   UNL     1       1.221   3.422   0.672  0.00  0.00    +0.254 A 
ATOM      3  N   UNL     1       0.156   4.181   0.767  0.00  0.00    -0.109 NA
ATOM      4  N   UNL     1       0.559   5.513   0.612  0.00  0.00    -0.119 NA
ATOM      5  C   UNL     1       1.856   5.525   0.420  0.00  0.00    +0.210 A 
ATOM      6  N   UNL     1       2.299   4.233   0.452  0.00  0.00    -0.211 N 
ATOM      7  H   UNL     1       2.201   1.498   0.672  0.00  0.00    +0.177 HD
ENDROOT
BRANCH   6   8
ATOM      8  N   UNL     1       3.593   3.823   0.292  0.00  0.00    -0.294 N 
ATOM      9  H   UNL     1       4.387   4.564   0.119  0.00  0.00    +0.163 HD
ATOM     10  H   UNL     1       3.840   2.752   0.336  0.00  0.00    +0.163 HD
ENDBRANCH   6   8
BRANCH   1  12
ATOM     11  C   UNL     1       0.087   0.034   1.094  0.00  0.00    +0.142 C 
ATOM     12  N   UNL     1       0.062   1.329   1.001  0.00  0.00    -0.187 NA
BRANCH  11  18
ATOM     13  C   UNL     1      -2.377  -0.027   1.468  0.00  0.00    +0.130 A 
ATOM     14  C   UNL     1      -3.544  -0.738   1.689  0.00  0.00    +0.046 A 
ATOM     15  C   UNL     1      -3.509  -2.117   1.788  0.00  0.00    +0.004 A 
ATOM     16  C   UNL     1      -2.310  -2.797   1.661  0.00  0.00    +0.001 A 
ATOM     17  C   UNL     1      -1.138  -2.105   1.436  0.00  0.00    +0.013 A 
ATOM     18  C   UNL     1      -1.161  -0.712   1.334  0.00  0.00    +0.036 A 
BRANCH  13  19
ATOM     19  O   UNL     1      -2.410   1.327   1.377  0.00  0.00    -0.487 OA
BRANCH  19  20
ATOM     20  C   UNL     1      -3.685   1.956   1.524  0.00  0.00    +0.264 C 
BRANCH  20  24
ATOM     21  C   UNL     1      -3.236   6.188   1.154  0.00  0.00    +0.000 A 
ATOM     22  C   UNL     1      -3.486   5.420   0.033  0.00  0.00    +0.000 A 
ATOM     23  C   UNL     1      -3.631   4.050   0.153  0.00  0.00    +0.007 A 
ATOM     24  C   UNL     1      -3.526   3.449   1.393  0.00  0.00    -0.010 A 
ATOM     25  C   UNL     1      -3.281   4.219   2.515  0.00  0.00    +0.007 A 
ATOM     26  C   UNL     1      -3.131   5.588   2.395  0.00  0.00    +0.000 A 
ENDBRANCH  20  24
ENDBRANCH  19  20
ENDBRANCH  13  19
ENDBRANCH  11  18
ENDBRANCH   1  12
BRANCH   5  27
ATOM     27  S   UNL     1       2.853   6.955   0.165  0.00  0.00    -0.077 S 
BRANCH  27  28
ATOM     28  C   UNL     1       1.673   8.331   0.235  0.00  0.00    +0.152 C 
BRANCH  28  29
ATOM     29  C   UNL     1       2.404   9.632   0.029  0.00  0.00    +0.147 C 
ATOM     30  O   UNL     1       3.599   9.631  -0.147  0.00  0.00    -0.296 OA
BRANCH  29  31
ATOM     31  C   UNL     1       1.645  10.934   0.043  0.00  0.00    +0.062 C 
ATOM     32  C   UNL     1       0.850  11.074  -1.256  0.00  0.00    +0.000 C 
ATOM     33  C   UNL     1       0.079  12.396  -1.243  0.00  0.00    +0.007 C 
ATOM     34  C   UNL     1       1.065  13.559  -1.120  0.00  0.00    -0.010 C 
ATOM     35  C   UNL     1       2.025  13.541  -2.311  0.00  0.00    +0.007 C 
ATOM     36  C   UNL     1       2.796  12.220  -2.325  0.00  0.00    -0.010 C 
ATOM     37  C   UNL     1       1.810  11.056  -2.447  0.00  0.00    +0.007 C 
ATOM     38  C   UNL     1       3.592  12.080  -1.025  0.00  0.00    +0.007 C 
ATOM     39  C   UNL     1       2.631  12.098   0.165  0.00  0.00    +0.000 C 
ATOM     40  C   UNL     1       1.861  13.419   0.179  0.00  0.00    +0.007 C 
ENDBRANCH  29  31
ENDBRANCH  28  29
ENDBRANCH  27  28
ENDBRANCH   5  27
TORSDOF 10
