REMARK  Name = ZINC39112909
REMARK  0 active torsions:
REMARK  status: ('A' for Active; 'I' for Inactive)
REMARK                            x       y       z     vdW  Elec       q    Type
REMARK                         _______ _______ _______ _____ _____    ______ ____
ROOT
ATOM      1  C   UNL     1      -0.018   1.505   0.010  0.00  0.00    +0.001 C 
ATOM      2  C   UNL     1       1.321   2.198   0.001  0.00  0.00    +0.005 C 
ATOM      3  C   UNL     1       1.994   2.084  -1.375  0.00  0.00    +0.044 C 
ATOM      4  C   UNL     1       2.622   0.702  -1.450  0.00  0.00    +0.062 A 
ATOM      5  C   UNL     1       1.935  -0.446  -1.450  0.00  0.00    +0.144 A 
ATOM      6  O   UNL     1       2.803  -1.460  -1.528  0.00  0.00    -0.356 OA
ATOM      7  N   UNL     1       4.109  -0.905  -1.579  0.00  0.00    -0.035 NA
ATOM      8  C   UNL     1       3.994   0.399  -1.532  0.00  0.00    +0.311 A 
ATOM      9  O   UNL     1       5.013   1.295  -1.557  0.00  0.00    -0.262 OA
ATOM     10  C   UNL     1       0.420  -0.544  -1.373  0.00  0.00    +0.077 C 
ATOM     11  C   UNL     1       0.002  -0.004   0.002  0.00  0.00    +0.008 C 
ENDROOT
TORSDOF 0
