REMARK  Name = ZINC04436306
REMARK  9 active torsions:
REMARK  status: ('A' for Active; 'I' for Inactive)
REMARK    1  A    between atoms: C_1  and  C_2
REMARK    2  A    between atoms: C_2  and  O_3
REMARK    3  A    between atoms: O_3  and  C_4
REMARK    4  A    between atoms: C_6  and  C_11
REMARK    5  A    between atoms: C_9  and  O_10
REMARK    6  A    between atoms: C_16  and  C_20
REMARK    7  A    between atoms: C_16  and  C_21
REMARK    8  A    between atoms: C_26  and  S_28
REMARK    9  A    between atoms: S_28  and  C_29
REMARK                            x       y       z     vdW  Elec       q    Type
REMARK                         _______ _______ _______ _____ _____    ______ ____
ROOT
ATOM      1  C   UNL     1      -0.217  -4.963  -0.535  0.00  0.00    +0.176 C 
ATOM      2  C   UNL     1       0.882  -5.812  -1.136  0.00  0.00    +0.041 C 
ATOM      3  C   UNL     1       1.024  -7.120  -0.834  0.00  0.00    +0.020 C 
ATOM      4  C   UNL     1       2.143  -7.938  -1.436  0.00  0.00    +0.058 C 
ATOM      5  C   UNL     1       2.476  -7.405  -2.832  0.00  0.00    -0.023 C 
ATOM      6  C   UNL     1       2.877  -5.932  -2.702  0.00  0.00    +0.086 C 
ATOM      7  C   UNL     1       1.761  -5.178  -2.034  0.00  0.00    +0.164 C 
ATOM      8  O   UNL     1       1.614  -3.996  -2.274  0.00  0.00    -0.292 OA
ATOM      9  C   UNL     1       3.637  -8.205  -3.425  0.00  0.00    +0.011 C 
ATOM     10  C   UNL     1       1.248  -7.528  -3.736  0.00  0.00    +0.011 C 
ATOM     11  N   UNL     1       0.164  -7.764   0.022  0.00  0.00    -0.287 N 
ATOM     12  C   UNL     1      -1.024  -7.132   0.349  0.00  0.00    +0.219 A 
ATOM     13  N   UNL     1      -1.219  -5.817   0.090  0.00  0.00    -0.220 N 
ATOM     14  N   UNL     1      -2.505  -5.513   0.533  0.00  0.00    -0.141 NA
ATOM     15  C   UNL     1      -3.007  -6.623   1.029  0.00  0.00    +0.210 A 
ATOM     16  N   UNL     1      -2.104  -7.599   0.914  0.00  0.00    -0.187 NA
ATOM     17  H   UNL     1       0.383  -8.635   0.388  0.00  0.00    +0.155 HD
ENDROOT
BRANCH   1  20
ATOM     18  C   UNL     1       0.802  -1.825   1.306  0.00  0.00    +0.162 A 
ATOM     19  C   UNL     1       0.261  -2.673   0.353  0.00  0.00    +0.055 A 
ATOM     20  C   UNL     1       0.372  -4.043   0.502  0.00  0.00    -0.015 A 
ATOM     21  C   UNL     1       1.024  -4.570   1.602  0.00  0.00    +0.010 A 
ATOM     22  C   UNL     1       1.566  -3.730   2.557  0.00  0.00    +0.049 A 
ATOM     23  C   UNL     1       1.462  -2.356   2.410  0.00  0.00    +0.158 A 
BRANCH  23  24
ATOM     24  O   UNL     1       2.000  -1.528   3.345  0.00  0.00    -0.503 OA
ATOM     25  H   UNL     1       1.395  -1.301   4.064  0.00  0.00    +0.292 HD
ENDBRANCH  23  24
BRANCH  18  26
ATOM     26  O   UNL     1       0.693  -0.477   1.160  0.00  0.00    -0.489 OA
BRANCH  26  28
ATOM     27  C   UNL     1      -0.019   1.526   0.010  0.00  0.00    +0.048 C 
ATOM     28  C   UNL     1       0.002  -0.004   0.002  0.00  0.00    +0.226 C 
ENDBRANCH  26  28
ENDBRANCH  18  26
ENDBRANCH   1  20
BRANCH  15  29
ATOM     29  S   UNL     1      -4.614  -6.795   1.732  0.00  0.00    -0.088 S 
ATOM     30  C   UNL     1      -4.695  -8.540   2.222  0.00  0.00    +0.093 C 
ENDBRANCH  15  29
TORSDOF 5
