REMARK  Name = ZINC46987591
REMARK  8 active torsions:
REMARK  status: ('A' for Active; 'I' for Inactive)
REMARK    1  A    between atoms: C_1  and  C_2
REMARK    2  A    between atoms: C_6  and  C_7
REMARK    3  A    between atoms: C_7  and  N_8
REMARK    4  A    between atoms: N_11  and  N_12
REMARK    5  A    between atoms: C_13  and  C_15
REMARK    6  A    between atoms: C_15  and  C_17
REMARK    7  A    between atoms: C_15  and  O_18
REMARK    8  A    between atoms: O_18  and  C_19
REMARK                            x       y       z     vdW  Elec       q    Type
REMARK                         _______ _______ _______ _____ _____    ______ ____
ROOT
ATOM      1  N   UNL     1      -3.941  -0.026   4.010  0.00  0.00    -0.230 N 
ATOM      2  C   UNL     1      -5.217   0.143   4.412  0.00  0.00    +0.270 C 
ATOM      3  O   UNL     1      -5.458   0.386   5.575  0.00  0.00    -0.270 OA
ATOM      4  H   UNL     1      -3.748  -0.220   3.079  0.00  0.00    +0.173 HD
ENDROOT
BRANCH   1   8
ATOM      5  N   UNL     1      -1.351  -0.359   3.240  0.00  0.00    -0.294 N 
ATOM      6  C   UNL     1      -1.620  -0.089   4.533  0.00  0.00    +0.316 C 
ATOM      7  O   UNL     1      -0.712   0.003   5.336  0.00  0.00    -0.251 OA
ATOM      8  N   UNL     1      -2.895   0.080   4.935  0.00  0.00    -0.218 N 
ATOM      9  H   UNL     1      -2.076  -0.432   2.599  0.00  0.00    +0.151 HD
ATOM     10  H   UNL     1      -3.088   0.274   5.866  0.00  0.00    +0.174 HD
BRANCH   5  11
ATOM     11  C   UNL     1       0.035  -0.542   2.803  0.00  0.00    +0.148 C 
BRANCH  11  17
ATOM     12  C   UNL     1       0.237   1.521   0.535  0.00  0.00    +0.044 C 
ATOM     13  C   UNL     1       0.149   0.037   0.286  0.00  0.00    -0.039 A 
ATOM     14  C   UNL     1       0.163  -0.460  -1.004  0.00  0.00    +0.011 A 
ATOM     15  C   UNL     1       0.082  -1.800  -1.193  0.00  0.00    +0.046 A 
ATOM     16  S   UNL     1      -0.018  -2.404   0.484  0.00  0.00    -0.100 S 
ATOM     17  C   UNL     1       0.061  -0.831   1.324  0.00  0.00    +0.010 A 
ENDBRANCH  11  17
ENDBRANCH   5  11
ENDBRANCH   1   8
BRANCH   2  18
ATOM     18  C   UNL     1      -6.342   0.029   3.416  0.00  0.00    +0.257 C 
ATOM     19  C   UNL     1      -6.411  -1.404   2.885  0.00  0.00    +0.062 C 
BRANCH  18  20
ATOM     20  O   UNL     1      -7.577   0.361   4.054  0.00  0.00    -0.480 OA
BRANCH  20  21
ATOM     21  C   UNL     1      -8.581   0.812   3.257  0.00  0.00    +0.122 A 
ATOM     22  C   UNL     1      -8.411   0.818   1.869  0.00  0.00    +0.046 A 
ATOM     23  C   UNL     1      -9.397   1.264   1.046  0.00  0.00    +0.012 A 
ATOM     24  C   UNL     1     -10.607   1.724   1.593  0.00  0.00    -0.018 A 
ATOM     25  C   UNL     1     -11.648   2.191   0.771  0.00  0.00    +0.008 A 
ATOM     26  C   UNL     1     -12.806   2.630   1.335  0.00  0.00    +0.001 A 
ATOM     27  C   UNL     1     -12.979   2.624   2.718  0.00  0.00    +0.001 A 
ATOM     28  C   UNL     1     -11.994   2.179   3.545  0.00  0.00    +0.008 A 
ATOM     29  C   UNL     1     -10.783   1.718   3.000  0.00  0.00    -0.014 A 
ATOM     30  C   UNL     1      -9.746   1.248   3.822  0.00  0.00    +0.054 A 
ENDBRANCH  20  21
ENDBRANCH  18  20
ENDBRANCH   2  18
TORSDOF 6
