REMARK  Name = ZINC14068480
REMARK  6 active torsions:
REMARK  status: ('A' for Active; 'I' for Inactive)
REMARK    1  A    between atoms: C_6  and  S_7
REMARK    2  A    between atoms: S_7  and  N_10
REMARK    3  A    between atoms: C_13  and  C_16
REMARK    4  A    between atoms: N_18  and  C_19
REMARK    5  A    between atoms: C_19  and  C_20
REMARK    6  A    between atoms: C_20  and  N_68
REMARK                            x       y       z     vdW  Elec       q    Type
REMARK                         _______ _______ _______ _____ _____    ______ ____
ROOT
ATOM      1  C   UNL     1       0.853   4.944   1.270  0.00  0.00    +0.216 C 
ATOM      2  O   UNL     1      -0.079   5.720   1.283  0.00  0.00    -0.276 OA
ATOM      3  N   UNL     1       0.625   3.616   1.265  0.00  0.00    -0.316 N 
ATOM      4  H   UNL     1       1.371   2.996   1.254  0.00  0.00    +0.149 HD
ENDROOT
BRANCH   1   8
ATOM      5  N   UNL     1       4.442   6.924   2.328  0.00  0.00    -0.177 NA
ATOM      6  C   UNL     1       3.684   7.523   1.222  0.00  0.00    +0.110 C 
ATOM      7  C   UNL     1       2.246   6.996   1.268  0.00  0.00    +0.030 C 
ATOM      8  C   UNL     1       2.267   5.466   1.259  0.00  0.00    +0.077 C 
ATOM      9  C   UNL     1       3.007   4.958   2.498  0.00  0.00    +0.030 C 
ATOM     10  C   UNL     1       4.454   5.461   2.466  0.00  0.00    +0.110 C 
BRANCH   5  11
ATOM     11  S   UNL     1       5.268   7.879   3.399  0.00  0.00    +0.061 S 
ATOM     12  O   UNL     1       6.297   7.071   3.954  0.00  0.00    -0.153 OA
ATOM     13  O   UNL     1       5.538   9.102   2.728  0.00  0.00    -0.153 OA
BRANCH  11  19
ATOM     14  C   UNL     1       3.368   9.390   4.646  0.00  0.00    +0.031 A 
ATOM     15  C   UNL     1       2.496   9.689   5.676  0.00  0.00    +0.043 A 
ATOM     16  C   UNL     1       2.425   8.863   6.784  0.00  0.00    +0.159 A 
ATOM     17  C   UNL     1       3.226   7.733   6.858  0.00  0.00    +0.160 A 
ATOM     18  C   UNL     1       4.094   7.434   5.823  0.00  0.00    +0.069 A 
ATOM     19  C   UNL     1       4.162   8.261   4.717  0.00  0.00    +0.108 A 
ATOM     20  F   UNL     1       3.158   6.925   7.938  0.00  0.00    -0.202 F 
ATOM     21  F   UNL     1       1.576   9.157   7.794  0.00  0.00    -0.202 F 
ENDBRANCH  11  19
ENDBRANCH   5  11
ENDBRANCH   1   8
BRANCH   3  22
ATOM     22  C   UNL     1      -0.750   3.109   1.275  0.00  0.00    +0.092 C 
BRANCH  22  23
ATOM     23  C   UNL     1      -0.729   1.579   1.267  0.00  0.00    -0.050 C 
ATOM     24  C   UNL     1      -0.013   1.086   0.008  0.00  0.00    -0.010 C 
ATOM     25  C   UNL     1      -0.753   1.593  -1.232  0.00  0.00    -0.001 C 
ATOM     26  C   UNL     1      -2.188   1.063  -1.221  0.00  0.00    -0.000 C 
ATOM     27  C   UNL     1      -2.904   1.556   0.038  0.00  0.00    -0.001 C 
ATOM     28  C   UNL     1      -2.164   1.050   1.278  0.00  0.00    -0.010 C 
BRANCH  23  34
ATOM     29  C   UNL     1       0.109  -0.370   2.433  0.00  0.00    -0.078 C 
ATOM     30  C   UNL     1       0.976  -0.828   3.607  0.00  0.00    -0.019 C 
ATOM     31  C   UNL     1       0.331  -0.375   4.919  0.00  0.00    -0.004 C 
ATOM     32  C   UNL     1       0.165   1.147   4.899  0.00  0.00    -0.019 C 
ATOM     33  C   UNL     1      -0.679   1.548   3.687  0.00  0.00    -0.078 C 
ATOM     34  N   UNL     1       0.009   1.105   2.456  0.00  0.00    +0.384 N 
ATOM     35  H   UNL     1       0.956   1.502   2.441  0.00  0.00    -0.081 HD
ENDBRANCH  23  34
ENDBRANCH  22  23
ENDBRANCH   3  22
TORSDOF 6
