REMARK  Name = ZINC21177603
REMARK  6 active torsions:
REMARK  status: ('A' for Active; 'I' for Inactive)
REMARK    1  A    between atoms: C_1  and  C_2
REMARK    2  A    between atoms: C_20  and  C_22
REMARK    3  A    between atoms: C_27  and  O_28
REMARK    4  A    between atoms: O_28  and  C_29
REMARK    5  A    between atoms: C_29  and  C_30
REMARK    6  A    between atoms: C_29  and  C_31
REMARK                            x       y       z     vdW  Elec       q    Type
REMARK                         _______ _______ _______ _____ _____    ______ ____
ROOT
ATOM      1  C   UNL     1       1.558  -2.679   0.149  0.00  0.00    +0.068 C 
ATOM      2  C   UNL     1       0.807  -1.385  -0.028  0.00  0.00    +0.066 A 
ATOM      3  C   UNL     1       1.350  -0.111   0.067  0.00  0.00    +0.023 A 
ATOM      4  C   UNL     1       0.349   0.794  -0.163  0.00  0.00    +0.135 A 
ATOM      5  N   UNL     1      -0.787   0.097  -0.384  0.00  0.00    -0.193 N 
ATOM      6  N   UNL     1      -0.472  -1.269  -0.298  0.00  0.00    -0.168 NA
ATOM      7  C   UNL     1      -2.042   0.635  -0.649  0.00  0.00    +0.196 A 
ATOM      8  N   UNL     1      -3.174   0.011  -0.870  0.00  0.00    -0.221 NA
ATOM      9  C   UNL     1      -4.329   0.666  -1.116  0.00  0.00    +0.081 A 
ATOM     10  C   UNL     1      -5.608   0.118  -1.368  0.00  0.00    +0.029 A 
ATOM     11  C   UNL     1      -6.685   0.932  -1.601  0.00  0.00    +0.002 A 
ATOM     12  C   UNL     1      -6.563   2.314  -1.597  0.00  0.00    +0.001 A 
ATOM     13  C   UNL     1      -5.328   2.885  -1.354  0.00  0.00    +0.017 A 
ATOM     14  C   UNL     1      -4.243   2.077  -1.120  0.00  0.00    +0.041 A 
ATOM     15  S   UNL     1      -2.523   2.352  -0.766  0.00  0.00    -0.048 S 
ATOM     16  N   UNL     1       0.579   2.168  -0.149  0.00  0.00    -0.270 N 
ATOM     17  C   UNL     1       1.858   2.598  -0.109  0.00  0.00    +0.219 C 
ATOM     18  O   UNL     1       2.078   3.773   0.093  0.00  0.00    -0.275 OA
ATOM     19  C   UNL     1       3.019   1.664  -0.308  0.00  0.00    +0.109 C 
ATOM     20  C   UNL     1       2.766   0.312   0.366  0.00  0.00    +0.066 C 
ATOM     21  H   UNL     1      -0.269   2.868  -0.170  0.00  0.00    +0.156 HD
ENDROOT
BRANCH  20  22
ATOM     22  C   UNL     1       3.728  -0.714  -0.175  0.00  0.00    +0.002 A 
ATOM     23  C   UNL     1       3.747  -0.998  -1.528  0.00  0.00    +0.008 A 
ATOM     24  C   UNL     1       4.629  -1.939  -2.025  0.00  0.00    +0.001 A 
ATOM     25  C   UNL     1       5.495  -2.598  -1.171  0.00  0.00    +0.004 A 
ATOM     26  C   UNL     1       5.480  -2.318   0.181  0.00  0.00    +0.046 A 
ATOM     27  C   UNL     1       4.598  -1.371   0.682  0.00  0.00    +0.125 A 
BRANCH  27  28
ATOM     28  O   UNL     1       4.585  -1.089   2.012  0.00  0.00    -0.489 OA
BRANCH  28  29
ATOM     29  C   UNL     1       5.586  -1.716   2.817  0.00  0.00    +0.167 C 
ATOM     30  C   UNL     1       5.835  -0.872   4.069  0.00  0.00    +0.051 C 
ATOM     31  C   UNL     1       5.110  -3.110   3.229  0.00  0.00    +0.051 C 
ENDBRANCH  28  29
ENDBRANCH  27  28
ENDBRANCH  20  22
TORSDOF 3
