REMARK  Name = ZINC23709025
REMARK  7 active torsions:
REMARK  status: ('A' for Active; 'I' for Inactive)
REMARK    1  A    between atoms: C_4  and  C_7
REMARK    2  A    between atoms: C_7  and  C_9
REMARK    3  A    between atoms: C_7  and  N_15
REMARK    4  A    between atoms: N_15  and  C_16
REMARK    5  A    between atoms: C_19  and  S_25
REMARK    6  A    between atoms: C_21  and  N_22
REMARK    7  A    between atoms: S_25  and  N_28
REMARK                            x       y       z     vdW  Elec       q    Type
REMARK                         _______ _______ _______ _____ _____    ______ ____
ROOT
ATOM      1  C   UNL     1       2.041  -2.735  -2.298  0.00  0.00    +0.059 A 
ATOM      2  C   UNL     1       0.758  -2.525  -2.789  0.00  0.00    +0.027 A 
ATOM      3  C   UNL     1       0.500  -2.697  -4.135  0.00  0.00    +0.030 A 
ATOM      4  C   UNL     1       1.513  -3.089  -4.991  0.00  0.00    +0.108 A 
ATOM      5  C   UNL     1       2.789  -3.304  -4.504  0.00  0.00    +0.063 A 
ATOM      6  C   UNL     1       3.056  -3.128  -3.160  0.00  0.00    +0.149 A 
ENDROOT
BRANCH   6   7
ATOM      7  N   UNL     1       4.422  -3.358  -2.640  0.00  0.00    +0.058 N 
ATOM      8  O   UNL     1       5.390  -3.037  -3.306  0.00  0.00    -0.126 OA
ATOM      9  O   UNL     1       4.579  -3.869  -1.545  0.00  0.00    -0.126 OA
ENDBRANCH   6   7
BRANCH   4  10
ATOM     10  S   UNL     1       1.177  -3.316  -6.705  0.00  0.00    +0.061 S 
ATOM     11  O   UNL     1       0.035  -2.524  -7.003  0.00  0.00    -0.153 OA
ATOM     12  O   UNL     1       2.414  -3.155  -7.386  0.00  0.00    -0.153 OA
BRANCH  10  13
ATOM     13  N   UNL     1       0.725  -4.895  -6.912  0.00  0.00    -0.177 NA
ATOM     14  C   UNL     1       1.746  -5.877  -7.199  0.00  0.00    +0.109 C 
ATOM     15  C   UNL     1       1.959  -5.983  -8.723  0.00  0.00    +0.017 C 
ATOM     16  C   UNL     1       0.805  -6.641  -9.355  0.00  0.00    +0.001 C 
ATOM     17  C   UNL     1      -0.509  -5.881  -9.208  0.00  0.00    +0.001 C 
ATOM     18  C   UNL     1      -1.148  -6.238  -7.888  0.00  0.00    +0.017 C 
ATOM     19  C   UNL     1      -0.706  -5.242  -6.800  0.00  0.00    +0.109 C 
ENDBRANCH  10  13
ENDBRANCH   4  10
BRANCH   1  20
ATOM     20  N   UNL     1       2.307  -2.556  -0.938  0.00  0.00    -0.330 N 
ATOM     21  H   UNL     1       3.339  -2.631  -0.566  0.00  0.00    +0.147 HD
BRANCH  20  22
ATOM     22  C   UNL     1       1.212  -2.268  -0.009  0.00  0.00    +0.150 C 
BRANCH  22  26
ATOM     23  C   UNL     1       0.427   1.931   0.012  0.00  0.00    +0.000 A 
ATOM     24  C   UNL     1      -0.622   1.031   0.053  0.00  0.00    +0.000 A 
ATOM     25  C   UNL     1      -0.368  -0.328   0.047  0.00  0.00    +0.006 A 
ATOM     26  C   UNL     1       0.935  -0.787  -0.002  0.00  0.00    -0.021 A 
ATOM     27  C   UNL     1       1.984   0.112  -0.043  0.00  0.00    +0.006 A 
ATOM     28  C   UNL     1       1.730   1.471  -0.037  0.00  0.00    +0.000 A 
ENDBRANCH  22  26
BRANCH  22  29
ATOM     29  C   UNL     1       1.599  -2.714   1.378  0.00  0.00    +0.066 A 
ATOM     30  C   UNL     1       0.898  -3.736   1.988  0.00  0.00    +0.025 A 
ATOM     31  C   UNL     1       1.266  -4.142   3.261  0.00  0.00    +0.003 A 
ATOM     32  C   UNL     1       2.324  -3.494   3.880  0.00  0.00    +0.020 A 
ATOM     33  C   UNL     1       2.975  -2.476   3.210  0.00  0.00    +0.111 A 
ATOM     34  N   UNL     1       2.601  -2.120   1.996  0.00  0.00    -0.258 NA
ENDBRANCH  22  29
ENDBRANCH  20  22
ENDBRANCH   1  20
TORSDOF 7
