REMARK  Name = ZINC39684413
REMARK  9 active torsions:
REMARK  status: ('A' for Active; 'I' for Inactive)
REMARK    1  A    between atoms: C_1  and  C_2
REMARK    2  A    between atoms: C_2  and  C_4
REMARK    3  A    between atoms: C_2  and  N_8
REMARK    4  A    between atoms: C_4  and  C_5
REMARK    5  A    between atoms: C_4  and  C_6
REMARK    6  A    between atoms: C_4  and  C_7
REMARK    7  A    between atoms: C_9  and  C_11
REMARK    8  A    between atoms: C_22  and  C_24
REMARK    9  A    between atoms: C_27  and  C_31
REMARK                            x       y       z     vdW  Elec       q    Type
REMARK                         _______ _______ _______ _____ _____    ______ ____
ROOT
ATOM      1  C   UNL     1       1.310  -1.380   3.954  0.00  0.00    +0.100 C 
ATOM      2  C   UNL     1       2.319  -0.217   4.080  0.00  0.00    +0.121 C 
ATOM      3  N   UNL     1       1.702   0.712   5.055  0.00  0.00    -0.296 N 
ATOM      4  C   UNL     1       1.094  -0.176   6.076  0.00  0.00    +0.115 C 
ATOM      5  C   UNL     1       0.510  -1.351   5.268  0.00  0.00    -0.004 C 
ATOM      6  C   UNL     1      -0.969  -1.109   4.981  0.00  0.00    -0.010 C 
ATOM      7  C   UNL     1      -1.751  -1.142   6.297  0.00  0.00    -0.082 C 
ATOM      8  N   UNL     1      -1.565  -2.445   6.947  0.00  0.00    +0.379 N 
ATOM      9  C   UNL     1      -0.153  -2.630   7.303  0.00  0.00    -0.082 C 
ATOM     10  C   UNL     1       0.697  -2.660   6.029  0.00  0.00    -0.010 C 
ATOM     11  C   UNL     1       1.694   2.059   5.023  0.00  0.00    +0.247 C 
ATOM     12  O   UNL     1       2.127   2.646   4.050  0.00  0.00    -0.270 OA
ATOM     13  H   UNL     1      -2.129  -2.487   7.782  0.00  0.00    -0.086 HD
ATOM     14  H   UNL     1      -1.850  -3.178   6.315  0.00  0.00    -0.086 HD
ENDROOT
BRANCH  11  15
ATOM     15  C   UNL     1       1.158   2.824   6.169  0.00  0.00    +0.040 A 
ATOM     16  C   UNL     1       1.066   2.226   7.428  0.00  0.00    +0.014 A 
ATOM     17  C   UNL     1       0.566   2.944   8.494  0.00  0.00    +0.016 A 
ATOM     18  C   UNL     1       0.156   4.254   8.320  0.00  0.00    +0.090 A 
ATOM     19  C   UNL     1       0.244   4.853   7.074  0.00  0.00    +0.136 A 
ATOM     20  C   UNL     1       0.749   4.146   5.999  0.00  0.00    +0.052 A 
ATOM     21  F   UNL     1      -0.159   6.133   6.911  0.00  0.00    -0.205 F 
BRANCH  18  22
ATOM     22  C   UNL     1      -0.389   5.031   9.491  0.00  0.00    +0.420 C 
ATOM     23  F   UNL     1      -0.381   4.223  10.632  0.00  0.00    -0.166 F 
ATOM     24  F   UNL     1       0.408   6.160   9.713  0.00  0.00    -0.166 F 
ATOM     25  F   UNL     1      -1.700   5.434   9.213  0.00  0.00    -0.166 F 
ENDBRANCH  18  22
ENDBRANCH  11  15
BRANCH   1  27
ATOM     26  N   UNL     1      -0.188  -2.207   2.168  0.00  0.00    -0.312 N 
ATOM     27  C   UNL     1       0.395  -1.156   2.778  0.00  0.00    +0.218 C 
ATOM     28  O   UNL     1       0.182  -0.030   2.381  0.00  0.00    -0.275 OA
ATOM     29  H   UNL     1      -0.018  -3.108   2.485  0.00  0.00    +0.149 HD
BRANCH  26  31
ATOM     30  C   UNL     1      -0.246  -1.893  -0.257  0.00  0.00    +0.028 C 
ATOM     31  C   UNL     1      -1.077  -1.989   1.024  0.00  0.00    +0.075 C 
BRANCH  31  32
ATOM     32  C   UNL     1      -2.056  -3.159   0.910  0.00  0.00    -0.020 C 
ATOM     33  C   UNL     1      -1.276  -4.460   0.709  0.00  0.00    +0.012 C 
ATOM     34  C   UNL     1      -2.887  -3.256   2.191  0.00  0.00    +0.012 C 
ATOM     35  C   UNL     1      -2.985  -2.932  -0.285  0.00  0.00    +0.012 C 
ENDBRANCH  31  32
ENDBRANCH  26  31
ENDBRANCH   1  27
TORSDOF 5
