REMARK  Name = ZINC23433577
REMARK  8 active torsions:
REMARK  status: ('A' for Active; 'I' for Inactive)
REMARK    1  A    between atoms: C_1  and  C_2
REMARK    2  A    between atoms: C_7  and  C_9
REMARK    3  A    between atoms: C_7  and  C_10
REMARK    4  A    between atoms: N_13  and  C_17
REMARK    5  A    between atoms: C_17  and  C_18
REMARK    6  A    between atoms: N_20  and  C_21
REMARK    7  A    between atoms: C_21  and  C_23
REMARK    8  A    between atoms: C_21  and  C_24
REMARK                            x       y       z     vdW  Elec       q    Type
REMARK                         _______ _______ _______ _____ _____    ______ ____
ROOT
ATOM      1  C   UNL     1      -0.567  -3.912  -3.963  0.00  0.00    +0.213 C 
ENDROOT
BRANCH   1  13
ATOM      2  C   UNL     1       3.312   0.501  -7.266  0.00  0.00    +0.007 C 
ATOM      3  C   UNL     1       3.225  -0.857  -6.561  0.00  0.00    -0.011 C 
ATOM      4  C   UNL     1       2.712  -0.653  -5.134  0.00  0.00    +0.038 C 
ATOM      5  C   UNL     1       2.575  -2.002  -4.441  0.00  0.00    +0.113 C 
ATOM      6  C   UNL     1       3.852  -2.817  -4.479  0.00  0.00    +0.041 C 
ATOM      7  C   UNL     1       4.569  -2.848  -5.818  0.00  0.00    -0.032 C 
ATOM      8  C   UNL     1       4.616  -1.482  -6.492  0.00  0.00    +0.009 C 
ATOM      9  C   UNL     1       6.024  -3.301  -5.571  0.00  0.00    +0.011 C 
ATOM     10  C   UNL     1       3.923  -3.874  -6.755  0.00  0.00    +0.011 C 
ATOM     11  C   UNL     1       1.393  -2.767  -4.982  0.00  0.00    +0.247 C 
ATOM     12  O   UNL     1       1.147  -3.051  -6.135  0.00  0.00    -0.273 OA
ATOM     13  N   UNL     1       0.625  -3.062  -3.910  0.00  0.00    -0.215 N 
ATOM     14  C   UNL     1       1.090  -2.481  -2.799  0.00  0.00    +0.310 C 
ATOM     15  O   UNL     1       0.561  -2.586  -1.710  0.00  0.00    -0.252 OA
ATOM     16  N   UNL     1       2.208  -1.771  -3.025  0.00  0.00    -0.285 N 
ATOM     17  H   UNL     1       2.690  -1.214  -2.396  0.00  0.00    +0.151 HD
ENDBRANCH   1  13
BRANCH   1  18
ATOM     18  C   UNL     1      -0.173  -5.346  -3.719  0.00  0.00    +0.231 C 
ATOM     19  O   UNL     1       0.990  -5.630  -3.521  0.00  0.00    -0.274 OA
ATOM     20  N   UNL     1      -1.111  -6.312  -3.721  0.00  0.00    -0.307 N 
ATOM     21  H   UNL     1      -2.041  -6.085  -3.879  0.00  0.00    +0.149 HD
BRANCH  20  22
ATOM     22  C   UNL     1      -0.728  -7.706  -3.484  0.00  0.00    +0.101 C 
ATOM     23  C   UNL     1      -1.935  -8.485  -2.958  0.00  0.00    +0.033 C 
BRANCH  22  24
ATOM     24  C   UNL     1      -0.256  -8.324  -4.775  0.00  0.00    -0.020 A 
ATOM     25  C   UNL     1      -0.669  -7.815  -5.968  0.00  0.00    +0.006 A 
ATOM     26  C   UNL     1      -0.243  -8.372  -7.172  0.00  0.00    +0.001 A 
ATOM     27  C   UNL     1       0.598  -9.442  -7.190  0.00  0.00    +0.008 A 
ATOM     28  C   UNL     1       1.046  -9.995  -5.979  0.00  0.00    -0.018 A 
ATOM     29  C   UNL     1       0.617  -9.424  -4.754  0.00  0.00    -0.013 A 
ATOM     30  C   UNL     1       1.070  -9.974  -3.542  0.00  0.00    +0.009 A 
ATOM     31  C   UNL     1       1.915 -11.040  -3.561  0.00  0.00    +0.001 A 
ATOM     32  C   UNL     1       2.342 -11.597  -4.765  0.00  0.00    +0.001 A 
ATOM     33  C   UNL     1       1.914 -11.100  -5.957  0.00  0.00    +0.008 A 
ENDBRANCH  22  24
ENDBRANCH  20  22
ENDBRANCH   1  18
TORSDOF 4
