REMARK  Name = ZINC36332417
REMARK  17 active torsions:
REMARK  status: ('A' for Active; 'I' for Inactive)
REMARK    1  A    between atoms: C_1  and  C_2
REMARK    2  A    between atoms: C_2  and  C_3
REMARK    3  A    between atoms: C_6  and  C_9
REMARK    4  A    between atoms: C_9  and  C_11
REMARK    5  A    between atoms: C_9  and  N_34
REMARK    6  A    between atoms: C_11  and  N_12
REMARK    7  A    between atoms: C_13  and  C_15
REMARK    8  A    between atoms: C_15  and  C_16
REMARK    9  A    between atoms: C_16  and  C_17
REMARK   10  A    between atoms: C_21  and  S_28
REMARK   11  A    between atoms: N_25  and  C_26
REMARK   12  A    between atoms: C_26  and  C_27
REMARK   13  A    between atoms: S_28  and  N_31
REMARK   14  A    between atoms: N_31  and  C_32
REMARK   15  A    between atoms: N_31  and  C_33
REMARK   16  A    between atoms: N_34  and  C_35
REMARK   17  A    between atoms: N_34  and  C_36
REMARK                            x       y       z     vdW  Elec       q    Type
REMARK                         _______ _______ _______ _____ _____    ______ ____
ROOT
ATOM      1  C   UNL     1       6.000  -2.028  -8.196  0.00  0.00    +0.103 C 
ENDROOT
BRANCH   1   3
ATOM      2  N   UNL     1       4.281  -1.903  -6.422  0.00  0.00    -0.317 N 
ATOM      3  C   UNL     1       5.122  -1.252  -7.249  0.00  0.00    +0.213 C 
ATOM      4  O   UNL     1       5.173  -0.040  -7.230  0.00  0.00    -0.276 OA
ATOM      5  H   UNL     1       4.240  -2.872  -6.437  0.00  0.00    +0.149 HD
BRANCH   2   6
ATOM      6  C   UNL     1       3.428  -1.148  -5.501  0.00  0.00    +0.093 C 
BRANCH   6   7
ATOM      7  C   UNL     1       2.646  -2.121  -4.616  0.00  0.00    -0.021 C 
BRANCH   7  11
ATOM      8  C   UNL     1      -0.010  -4.430  -7.037  0.00  0.00    -0.048 A 
ATOM      9  C   UNL     1       1.195  -4.969  -6.626  0.00  0.00    +0.004 A 
ATOM     10  C   UNL     1       2.054  -4.221  -5.843  0.00  0.00    +0.002 A 
ATOM     11  C   UNL     1       1.709  -2.936  -5.471  0.00  0.00    -0.059 A 
ATOM     12  C   UNL     1       0.505  -2.397  -5.883  0.00  0.00    +0.002 A 
ATOM     13  C   UNL     1      -0.353  -3.142  -6.669  0.00  0.00    +0.004 A 
BRANCH   8  15
ATOM     14  C   UNL     1      -0.625  -5.011  -9.368  0.00  0.00    +0.009 C 
ATOM     15  C   UNL     1      -0.948  -5.245  -7.891  0.00  0.00    +0.032 C 
ENDBRANCH   8  15
ENDBRANCH   7  11
BRANCH   7  16
ATOM     16  N   UNL     1       1.871  -1.365  -3.623  0.00  0.00    +0.382 N 
ATOM     17  C   UNL     1       1.085  -2.297  -2.803  0.00  0.00    -0.096 C 
ATOM     18  C   UNL     1       2.787  -0.607  -2.761  0.00  0.00    -0.096 C 
ATOM     19  H   UNL     1       1.249  -0.728  -4.097  0.00  0.00    -0.082 HD
ENDBRANCH   7  16
ENDBRANCH   6   7
ENDBRANCH   2   6
ENDBRANCH   1   3
BRANCH   1  20
ATOM     20  C   UNL     1       6.852  -1.056  -9.015  0.00  0.00    +0.083 C 
BRANCH  20  21
ATOM     21  C   UNL     1       7.729  -1.833  -9.963  0.00  0.00    +0.111 A 
ATOM     22  N   UNL     1       8.925  -2.266  -9.686  0.00  0.00    -0.232 NA
ATOM     23  C   UNL     1       9.431  -2.925 -10.760  0.00  0.00    +0.091 A 
ATOM     24  C   UNL     1      10.643  -3.574 -11.009  0.00  0.00    +0.058 A 
ATOM     25  C   UNL     1      10.866  -4.159 -12.223  0.00  0.00    +0.108 A 
ATOM     26  C   UNL     1       9.898  -4.116 -13.217  0.00  0.00    +0.030 A 
ATOM     27  C   UNL     1       8.695  -3.481 -12.994  0.00  0.00    +0.030 A 
ATOM     28  C   UNL     1       8.451  -2.881 -11.766  0.00  0.00    +0.069 A 
ATOM     29  N   UNL     1       7.384  -2.189 -11.229  0.00  0.00    -0.328 N 
BRANCH  25  30
ATOM     30  S   UNL     1      12.396  -4.976 -12.530  0.00  0.00    +0.060 S 
ATOM     31  O   UNL     1      12.580  -4.978 -13.939  0.00  0.00    -0.153 OA
ATOM     32  O   UNL     1      13.346  -4.408 -11.639  0.00  0.00    -0.153 OA
BRANCH  30  33
ATOM     33  N   UNL     1      12.207  -6.557 -12.075  0.00  0.00    -0.183 NA
ATOM     34  C   UNL     1      11.733  -7.547 -13.046  0.00  0.00    +0.131 C 
ATOM     35  C   UNL     1      12.514  -6.966 -10.702  0.00  0.00    +0.131 C 
ENDBRANCH  30  33
ENDBRANCH  25  30
BRANCH  29  36
ATOM     36  C   UNL     1       6.117  -1.891 -11.901  0.00  0.00    +0.120 C 
ATOM     37  C   UNL     1       6.230  -0.552 -12.633  0.00  0.00    +0.027 C 
ENDBRANCH  29  36
ENDBRANCH  20  21
ENDBRANCH   1  20
TORSDOF 11
