REMARK  Name = ZINC45956342
REMARK  5 active torsions:
REMARK  status: ('A' for Active; 'I' for Inactive)
REMARK    1  A    between atoms: C_1  and  C_2
REMARK    2  A    between atoms: C_4  and  C_17
REMARK    3  A    between atoms: C_9  and  C_14
REMARK    4  A    between atoms: C_14  and  C_15
REMARK    5  A    between atoms: C_14  and  C_16
REMARK                            x       y       z     vdW  Elec       q    Type
REMARK                         _______ _______ _______ _____ _____    ______ ____
ROOT
ATOM      1  C   UNL     1      -0.018   1.503   0.010  0.00  0.00    +0.067 C 
ATOM      2  C   UNL     1       0.002  -0.004   0.002  0.00  0.00    +0.061 A 
ATOM      3  C   UNL     1       0.008  -0.817  -1.138  0.00  0.00    +0.048 A 
ATOM      4  C   UNL     1       0.027  -2.106  -0.731  0.00  0.00    +0.045 A 
ATOM      5  N   UNL     1       0.034  -2.108   0.628  0.00  0.00    -0.202 N 
ATOM      6  N   UNL     1       0.023  -0.775   1.058  0.00  0.00    -0.169 NA
ATOM      7  C   UNL     1       0.053  -3.236   1.449  0.00  0.00    +0.253 A 
ATOM      8  N   UNL     1       0.051  -3.078   2.763  0.00  0.00    -0.215 NA
ATOM      9  C   UNL     1       0.068  -4.124   3.576  0.00  0.00    +0.050 A 
ATOM     10  C   UNL     1       0.088  -5.396   3.039  0.00  0.00    +0.059 A 
ATOM     11  C   UNL     1       0.089  -5.532   1.648  0.00  0.00    +0.113 A 
ATOM     12  N   UNL     1       0.066  -4.436   0.894  0.00  0.00    -0.203 NA
ATOM     13  S   UNL     1       0.115  -7.129   0.905  0.00  0.00    -0.030 SA
ATOM     14  C   UNL     1       0.039  -3.321  -1.622  0.00  0.00    +0.066 C 
ENDROOT
BRANCH   9  15
ATOM     15  C   UNL     1       0.067  -3.928   5.070  0.00  0.00    +0.032 C 
ATOM     16  C   UNL     1      -1.369  -4.009   5.593  0.00  0.00    +0.014 C 
ATOM     17  C   UNL     1       0.912  -5.020   5.729  0.00  0.00    +0.014 C 
ENDBRANCH   9  15
TORSDOF 1
