REMARK  Name = ZINC40144206
REMARK  9 active torsions:
REMARK  status: ('A' for Active; 'I' for Inactive)
REMARK    1  A    between atoms: C_1  and  C_2
REMARK    2  A    between atoms: C_5  and  N_8
REMARK    3  A    between atoms: C_9  and  C_29
REMARK    4  A    between atoms: C_10  and  C_13
REMARK    5  A    between atoms: N_15  and  N_16
REMARK    6  A    between atoms: C_17  and  C_19
REMARK    7  A    between atoms: C_20  and  C_28
REMARK    8  A    between atoms: C_29  and  C_30
REMARK    9  A    between atoms: C_29  and  C_31
REMARK                            x       y       z     vdW  Elec       q    Type
REMARK                         _______ _______ _______ _____ _____    ______ ____
ROOT
ATOM      1  C   UNL     1       0.916  -7.432   1.235  0.00  0.00    +0.282 C 
ATOM      2  O   UNL     1       1.536  -7.312   2.274  0.00  0.00    -0.267 OA
ATOM      3  N   UNL     1       0.667  -8.659   0.737  0.00  0.00    -0.229 N 
ATOM      4  H   UNL     1       0.172  -8.755  -0.092  0.00  0.00    +0.173 HD
ENDROOT
BRANCH   1   7
ATOM      5  N   UNL     1       0.086  -4.159  -0.050  0.00  0.00    -0.216 N 
ATOM      6  C   UNL     1       0.713  -4.939   0.856  0.00  0.00    +0.080 A 
ATOM      7  C   UNL     1       0.436  -6.234   0.520  0.00  0.00    +0.172 A 
ATOM      8  N   UNL     1      -0.347  -6.233  -0.572  0.00  0.00    -0.124 NA
ATOM      9  N   UNL     1      -0.580  -5.019  -0.935  0.00  0.00    -0.060 NA
BRANCH   5  14
ATOM     10  C   UNL     1       0.115   1.515  -0.229  0.00  0.00    +0.044 C 
ATOM     11  C   UNL     1       0.107   0.008  -0.181  0.00  0.00    -0.050 A 
ATOM     12  C   UNL     1       0.084  -0.719  -1.357  0.00  0.00    +0.005 A 
ATOM     13  C   UNL     1       0.077  -2.099  -1.317  0.00  0.00    +0.028 A 
ATOM     14  C   UNL     1       0.093  -2.757  -0.094  0.00  0.00    +0.067 A 
ATOM     15  C   UNL     1       0.116  -2.024   1.085  0.00  0.00    +0.028 A 
ATOM     16  C   UNL     1       0.128  -0.644   1.038  0.00  0.00    +0.005 A 
ENDBRANCH   5  14
BRANCH   6  17
ATOM     17  C   UNL     1       1.557  -4.472   2.014  0.00  0.00    +0.034 C 
ATOM     18  C   UNL     1       0.913  -4.921   3.327  0.00  0.00    +0.014 C 
ATOM     19  C   UNL     1       2.958  -5.075   1.900  0.00  0.00    +0.014 C 
ENDBRANCH   6  17
ENDBRANCH   1   7
BRANCH   3  20
ATOM     20  N   UNL     1       1.123  -9.797   1.416  0.00  0.00    -0.228 N 
ATOM     21  C   UNL     1       0.874 -11.024   0.918  0.00  0.00    +0.296 C 
ATOM     22  O   UNL     1       0.253 -11.144  -0.122  0.00  0.00    -0.265 OA
ATOM     23  H   UNL     1       1.617  -9.701   2.245  0.00  0.00    +0.173 HD
BRANCH  21  24
ATOM     24  C   UNL     1       1.352 -12.217   1.631  0.00  0.00    +0.195 A 
ATOM     25  C   UNL     1       1.165 -13.499   1.222  0.00  0.00    +0.008 A 
ATOM     26  C   UNL     1       1.804 -14.343   2.230  0.00  0.00    +0.024 A 
ATOM     27  C   UNL     1       1.960 -15.722   2.389  0.00  0.00    +0.012 A 
ATOM     28  C   UNL     1       2.630 -16.207   3.476  0.00  0.00    +0.001 A 
ATOM     29  C   UNL     1       3.156 -15.339   4.423  0.00  0.00    +0.004 A 
ATOM     30  C   UNL     1       3.013 -13.976   4.286  0.00  0.00    +0.047 A 
ATOM     31  C   UNL     1       2.335 -13.458   3.187  0.00  0.00    +0.136 A 
ATOM     32  O   UNL     1       2.047 -12.205   2.787  0.00  0.00    -0.450 OA
ATOM     33  C   UNL     1       0.445 -13.958  -0.020  0.00  0.00    +0.048 C 
ENDBRANCH  21  24
ENDBRANCH   3  20
TORSDOF 5
