REMARK  Name = ZINC15067904
REMARK  8 active torsions:
REMARK  status: ('A' for Active; 'I' for Inactive)
REMARK    1  A    between atoms: C_1  and  N_2
REMARK    2  A    between atoms: N_2  and  C_3
REMARK    3  A    between atoms: C_3  and  C_5
REMARK    4  A    between atoms: C_3  and  C_13
REMARK    5  A    between atoms: C_5  and  C_6
REMARK    6  A    between atoms: C_18  and  C_19
REMARK    7  A    between atoms: C_18  and  N_64
REMARK    8  A    between atoms: C_29  and  C_31
REMARK                            x       y       z     vdW  Elec       q    Type
REMARK                         _______ _______ _______ _____ _____    ______ ____
ROOT
ATOM      1  C   UNL     1       1.192   3.556   0.398  0.00  0.00    +0.083 C 
ENDROOT
BRANCH   1   2
ATOM      2  C   UNL     1       2.034   4.320  -0.625  0.00  0.00    +0.006 C 
ATOM      3  C   UNL     1       2.024   5.812  -0.284  0.00  0.00    -0.013 C 
ATOM      4  C   UNL     1       2.817   6.579  -1.345  0.00  0.00    -0.078 C 
ATOM      5  C   UNL     1       2.253   4.936  -3.035  0.00  0.00    -0.078 C 
ATOM      6  C   UNL     1       1.444   4.120  -2.024  0.00  0.00    -0.013 C 
ATOM      7  N   UNL     1       2.184   6.365  -2.664  0.00  0.00    +0.383 N 
ATOM      8  H   UNL     1       1.198   6.647  -2.611  0.00  0.00    -0.081 HD
BRANCH   7   9
ATOM      9  C   UNL     1       2.863   7.186  -3.688  0.00  0.00    -0.025 C 
BRANCH   9  10
ATOM     10  C   UNL     1       3.021   8.591  -3.169  0.00  0.00    +0.000 A 
ATOM     11  C   UNL     1       2.166   9.600  -3.402  0.00  0.00    +0.029 A 
ATOM     12  C   UNL     1       2.697  10.779  -2.713  0.00  0.00    -0.000 A 
ATOM     13  C   UNL     1       2.267  12.101  -2.581  0.00  0.00    +0.010 A 
ATOM     14  C   UNL     1       3.012  12.987  -1.855  0.00  0.00    +0.001 A 
ATOM     15  C   UNL     1       4.194  12.583  -1.248  0.00  0.00    +0.002 A 
ATOM     16  C   UNL     1       4.636  11.284  -1.365  0.00  0.00    +0.026 A 
ATOM     17  C   UNL     1       3.893  10.365  -2.100  0.00  0.00    +0.047 A 
ATOM     18  N   UNL     1       4.061   9.031  -2.396  0.00  0.00    -0.360 N 
ATOM     19  H   UNL     1       4.806   8.484  -2.101  0.00  0.00    +0.166 HD
ENDBRANCH   9  10
ENDBRANCH   7   9
ENDBRANCH   1   2
BRANCH   1  21
ATOM     20  C   UNL     1       2.460   1.390   0.026  0.00  0.00    +0.132 C 
ATOM     21  N   UNL     1       1.196   2.129   0.066  0.00  0.00    -0.297 N 
ATOM     22  C   UNL     1       0.036   1.496  -0.202  0.00  0.00    +0.253 C 
ATOM     23  O   UNL     1      -1.011   2.117  -0.198  0.00  0.00    -0.269 OA
BRANCH  22  24
ATOM     24  C   UNL     1       0.037   0.061  -0.503  0.00  0.00    +0.074 A 
ATOM     25  C   UNL     1      -1.039  -0.797  -0.668  0.00  0.00    +0.021 A 
ATOM     26  C   UNL     1      -0.753  -2.109  -0.952  0.00  0.00    +0.008 A 
ATOM     27  C   UNL     1       0.544  -2.501  -1.044  0.00  0.00    +0.046 A 
ATOM     28  S   UNL     1       1.422  -1.036  -0.743  0.00  0.00    -0.092 S 
ENDBRANCH  22  24
ENDBRANCH   1  21
BRANCH   1  29
ATOM     29  C   UNL     1       1.782   3.756   1.796  0.00  0.00    +0.060 C 
BRANCH  29  30
ATOM     30  C   UNL     1       0.885   3.106   2.818  0.00  0.00    -0.010 A 
ATOM     31  C   UNL     1      -0.068   3.858   3.479  0.00  0.00    +0.006 A 
ATOM     32  C   UNL     1      -0.895   3.261   4.412  0.00  0.00    +0.000 A 
ATOM     33  C   UNL     1      -0.761   1.914   4.694  0.00  0.00    +0.003 A 
ATOM     34  C   UNL     1       0.194   1.162   4.038  0.00  0.00    +0.038 A 
ATOM     35  C   UNL     1       1.019   1.758   3.099  0.00  0.00    +0.127 A 
ATOM     36  F   UNL     1       1.955   1.023   2.458  0.00  0.00    -0.205 F 
ENDBRANCH  29  30
ENDBRANCH   1  29
TORSDOF 7
