REMARK  Name = ZINC02661127
REMARK  13 active torsions:
REMARK  status: ('A' for Active; 'I' for Inactive)
REMARK    1  A    between atoms: C_1  and  C_2
REMARK    2  A    between atoms: C_3  and  C_32
REMARK    3  A    between atoms: N_9  and  C_27
REMARK    4  A    between atoms: C_10  and  S_12
REMARK    5  A    between atoms: S_12  and  C_13
REMARK    6  A    between atoms: C_13  and  C_14
REMARK    7  A    between atoms: N_16  and  C_17
REMARK    8  A    between atoms: C_20  and  S_23
REMARK    9  A    between atoms: S_23  and  N_26
REMARK   10  A    between atoms: C_27  and  C_28
REMARK   11  A    between atoms: C_28  and  C_29
REMARK   12  A    between atoms: C_29  and  O_30
REMARK   13  A    between atoms: O_30  and  C_31
REMARK                            x       y       z     vdW  Elec       q    Type
REMARK                         _______ _______ _______ _____ _____    ______ ____
ROOT
ATOM      1  S   UNL     1       1.390   3.399   2.259  0.00  0.00    -0.078 S 
ENDROOT
BRANCH   1  11
ATOM      2  C   UNL     1      -0.938  -2.766   4.506  0.00  0.00    +0.045 C 
ATOM      3  C   UNL     1       0.116  -1.772   4.923  0.00  0.00    -0.026 A 
ATOM      4  C   UNL     1       0.884  -2.008   5.997  0.00  0.00    -0.008 A 
ATOM      5  S   UNL     1       1.943  -0.576   6.071  0.00  0.00    -0.073 S 
ATOM      6  C   UNL     1       1.323   0.299   4.658  0.00  0.00    +0.117 A 
ATOM      7  C   UNL     1       0.310  -0.546   4.167  0.00  0.00    +0.075 A 
ATOM      8  C   UNL     1      -0.383  -0.079   3.006  0.00  0.00    +0.263 A 
ATOM      9  O   UNL     1      -1.279  -0.742   2.513  0.00  0.00    -0.267 OA
ATOM     10  N   UNL     1      -0.029   1.100   2.462  0.00  0.00    -0.287 N 
ATOM     11  C   UNL     1       0.968   1.858   3.003  0.00  0.00    +0.173 A 
ATOM     12  N   UNL     1       1.619   1.455   4.075  0.00  0.00    -0.216 NA
ATOM     13  C   UNL     1       0.859  -3.200   6.919  0.00  0.00    +0.052 C 
BRANCH  10  14
ATOM     14  C   UNL     1      -0.731   1.580   1.270  0.00  0.00    +0.129 C 
BRANCH  14  15
ATOM     15  C   UNL     1      -0.011   1.078   0.016  0.00  0.00    +0.050 C 
BRANCH  15  16
ATOM     16  C   UNL     1      -0.745   1.580  -1.229  0.00  0.00    +0.161 C 
BRANCH  16  17
ATOM     17  O   UNL     1      -0.072   1.111  -2.399  0.00  0.00    -0.383 OA
ATOM     18  C   UNL     1      -0.679   1.526  -3.624  0.00  0.00    +0.193 C 
ENDBRANCH  16  17
ENDBRANCH  15  16
ENDBRANCH  14  15
ENDBRANCH  10  14
ENDBRANCH   1  11
BRANCH   1  19
ATOM     19  C   UNL     1       2.720   3.929   3.366  0.00  0.00    +0.173 C 
BRANCH  19  20
ATOM     20  C   UNL     1       3.251   5.264   2.910  0.00  0.00    +0.227 C 
ATOM     21  O   UNL     1       2.776   5.804   1.933  0.00  0.00    -0.275 OA
ATOM     22  N   UNL     1       4.253   5.858   3.588  0.00  0.00    -0.285 N 
ATOM     23  H   UNL     1       4.587   5.460   4.407  0.00  0.00    +0.155 HD
BRANCH  22  24
ATOM     24  C   UNL     1       4.810   7.049   3.111  0.00  0.00    +0.034 A 
ATOM     25  C   UNL     1       6.166   7.299   3.279  0.00  0.00    +0.025 A 
ATOM     26  C   UNL     1       6.715   8.473   2.801  0.00  0.00    +0.030 A 
ATOM     27  C   UNL     1       5.914   9.404   2.167  0.00  0.00    +0.105 A 
ATOM     28  C   UNL     1       4.562   9.161   2.003  0.00  0.00    +0.030 A 
ATOM     29  C   UNL     1       4.009   7.987   2.473  0.00  0.00    +0.025 A 
BRANCH  27  30
ATOM     30  S   UNL     1       6.616  10.904   1.565  0.00  0.00    +0.056 S 
ATOM     31  O   UNL     1       7.999  10.650   1.357  0.00  0.00    -0.153 OA
ATOM     32  O   UNL     1       5.762  11.365   0.528  0.00  0.00    -0.153 OA
BRANCH  30  33
ATOM     33  N   UNL     1       6.518  12.016   2.788  0.00  0.00    -0.204 NA
ATOM     34  H   UNL     1       7.184  12.718   2.860  0.00  0.00    +0.144 HD
ATOM     35  H   UNL     1       5.795  11.965   3.433  0.00  0.00    +0.144 HD
ENDBRANCH  30  33
ENDBRANCH  27  30
ENDBRANCH  22  24
ENDBRANCH  19  20
ENDBRANCH   1  19
TORSDOF 10
