REMARK  Name = ZINC12911900
REMARK  8 active torsions:
REMARK  status: ('A' for Active; 'I' for Inactive)
REMARK    1  A    between atoms: C_1  and  C_2
REMARK    2  A    between atoms: C_15  and  C_17
REMARK    3  A    between atoms: C_17  and  N_55
REMARK    4  A    between atoms: C_18  and  N_55
REMARK    5  A    between atoms: C_19  and  C_21
REMARK    6  A    between atoms: C_19  and  C_22
REMARK    7  A    between atoms: C_19  and  N_55
REMARK    8  A    between atoms: N_24  and  C_25
REMARK                            x       y       z     vdW  Elec       q    Type
REMARK                         _______ _______ _______ _____ _____    ______ ____
ROOT
ATOM      1  C   UNL     1      -2.423   1.665   0.229  0.00  0.00    +0.020 C 
ENDROOT
BRANCH   1  15
ATOM      2  C   UNL     1       1.840   2.918  -1.066  0.00  0.00    +0.029 C 
ATOM      3  C   UNL     1       1.174   2.984   0.310  0.00  0.00    +0.087 C 
ATOM      4  C   UNL     1       2.176   2.552   1.381  0.00  0.00    +0.118 C 
ATOM      5  C   UNL     1       1.457   2.229   2.664  0.00  0.00    +0.219 C 
ATOM      6  O   UNL     1       1.495   3.011   3.590  0.00  0.00    -0.275 OA
ATOM      7  N   UNL     1       0.768   1.073   2.790  0.00  0.00    -0.284 N 
ATOM      8  C   UNL     1       0.634   0.205   1.700  0.00  0.00    +0.055 A 
ATOM      9  C   UNL     1       0.874  -1.152   1.839  0.00  0.00    +0.025 A 
ATOM     10  C   UNL     1       0.681  -1.998   0.763  0.00  0.00    +0.002 A 
ATOM     11  C   UNL     1       0.250  -1.495  -0.451  0.00  0.00    +0.002 A 
ATOM     12  C   UNL     1       0.019  -0.140  -0.601  0.00  0.00    +0.025 A 
ATOM     13  C   UNL     1       0.218   0.716   0.470  0.00  0.00    +0.058 A 
ATOM     14  N   UNL     1       0.011   2.095   0.331  0.00  0.00    -0.268 N 
ATOM     15  C   UNL     1      -1.236   2.594   0.212  0.00  0.00    +0.204 C 
ATOM     16  O   UNL     1      -1.402   3.789   0.092  0.00  0.00    -0.277 OA
ATOM     17  H   UNL     1       0.364   0.844   3.641  0.00  0.00    +0.155 HD
ENDBRANCH   1  15
BRANCH   1  19
ATOM     18  C   UNL     1      -3.728   3.082  -1.239  0.00  0.00    -0.094 C 
ATOM     19  N   UNL     1      -3.658   2.469   0.104  0.00  0.00    +0.391 N 
ATOM     20  H   UNL     1      -3.643   3.213   0.811  0.00  0.00    -0.080 HD
BRANCH  19  21
ATOM     21  C   UNL     1      -4.841   1.613   0.332  0.00  0.00    +0.017 C 
ATOM     22  C   UNL     1      -4.758   0.344  -0.519  0.00  0.00    -0.004 C 
BRANCH  21  23
ATOM     23  C   UNL     1      -4.895   1.238   1.791  0.00  0.00    +0.203 C 
ATOM     24  O   UNL     1      -4.030   1.624   2.548  0.00  0.00    -0.277 OA
ATOM     25  N   UNL     1      -5.904   0.473   2.253  0.00  0.00    -0.285 N 
ATOM     26  H   UNL     1      -6.634   0.225   1.664  0.00  0.00    +0.155 HD
BRANCH  25  27
ATOM     27  C   UNL     1      -5.898   0.035   3.584  0.00  0.00    +0.069 A 
ATOM     28  C   UNL     1      -5.357   0.839   4.578  0.00  0.00    +0.029 A 
ATOM     29  C   UNL     1      -5.352   0.407   5.890  0.00  0.00    +0.040 A 
ATOM     30  C   UNL     1      -5.888  -0.828   6.215  0.00  0.00    +0.126 A 
ATOM     31  C   UNL     1      -6.430  -1.632   5.227  0.00  0.00    +0.078 A 
ATOM     32  C   UNL     1      -6.441  -1.202   3.913  0.00  0.00    +0.147 A 
ATOM     33  F   UNL     1      -6.973  -1.984   2.949  0.00  0.00    -0.203 F 
ATOM     34  F   UNL     1      -5.882  -1.248   7.499  0.00  0.00    -0.205 F 
ENDBRANCH  25  27
ENDBRANCH  21  23
ENDBRANCH  19  21
ENDBRANCH   1  19
TORSDOF 5
