REMARK  Name = ZINC05237708
REMARK  7 active torsions:
REMARK  status: ('A' for Active; 'I' for Inactive)
REMARK    1  A    between atoms: C_1  and  C_2
REMARK    2  A    between atoms: C_5  and  N_9
REMARK    3  A    between atoms: C_7  and  C_8
REMARK    4  A    between atoms: C_10  and  C_12
REMARK    5  A    between atoms: C_12  and  S_13
REMARK    6  A    between atoms: S_13  and  C_14
REMARK    7  A    between atoms: C_26  and  C_30
REMARK                            x       y       z     vdW  Elec       q    Type
REMARK                         _______ _______ _______ _____ _____    ______ ____
ROOT
ATOM      1  C   UNL     1      -7.649   3.805  -0.357  0.00  0.00    +0.170 A 
ATOM      2  N   UNL     1      -8.915   3.307  -0.464  0.00  0.00    -0.301 N 
ATOM      3  H   UNL     1      -9.051   2.316  -0.489  0.00  0.00    +0.171 HD
ATOM      4  C   UNL     1      -9.982   4.122  -0.537  0.00  0.00    +0.261 A 
ATOM      5  O   UNL     1     -11.107   3.661  -0.627  0.00  0.00    -0.267 OA
ATOM      6  C   UNL     1      -9.779   5.538  -0.512  0.00  0.00    +0.075 A 
ATOM      7  C   UNL     1     -10.784   6.601  -0.581  0.00  0.00    -0.023 A 
ATOM      8  C   UNL     1     -10.335   7.872  -0.539  0.00  0.00    -0.004 A 
ATOM      9  S   UNL     1      -8.573   7.733  -0.405  0.00  0.00    -0.073 S 
ATOM     10  C   UNL     1      -8.444   5.963  -0.406  0.00  0.00    +0.117 A 
ATOM     11  N   UNL     1      -7.433   5.105  -0.333  0.00  0.00    -0.216 NA
ATOM     12  C   UNL     1     -11.154   9.126  -0.592  0.00  0.00    +0.046 C 
ATOM     13  C   UNL     1     -12.621   8.758  -0.330  0.00  0.00    -0.009 C 
ATOM     14  C   UNL     1     -12.991   7.557  -1.206  0.00  0.00    +0.008 C 
ATOM     15  C   UNL     1     -12.277   6.304  -0.698  0.00  0.00    +0.037 C 
ATOM     16  C   UNL     1     -13.519   9.946  -0.682  0.00  0.00    +0.008 C 
ENDROOT
BRANCH   1  17
ATOM     17  S   UNL     1      -6.283   2.696  -0.258  0.00  0.00    -0.078 S 
BRANCH  17  18
ATOM     18  C   UNL     1      -4.921   3.883  -0.145  0.00  0.00    +0.173 C 
BRANCH  18  20
ATOM     19  N   UNL     1      -2.456   3.823   0.046  0.00  0.00    -0.285 N 
ATOM     20  C   UNL     1      -3.614   3.140  -0.048  0.00  0.00    +0.227 C 
ATOM     21  O   UNL     1      -3.604   1.927  -0.055  0.00  0.00    -0.275 OA
ATOM     22  H   UNL     1      -2.468   4.790   0.128  0.00  0.00    +0.155 HD
BRANCH  19  27
ATOM     23  C   UNL     1       2.490   1.046  -0.039  0.00  0.00    +0.044 C 
ATOM     24  C   UNL     1       1.177   1.784  -0.017  0.00  0.00    -0.047 A 
ATOM     25  C   UNL     1       0.105   1.307  -0.749  0.00  0.00    +0.005 A 
ATOM     26  C   UNL     1      -1.099   1.984  -0.735  0.00  0.00    +0.023 A 
ATOM     27  C   UNL     1      -1.236   3.138   0.025  0.00  0.00    +0.034 A 
ATOM     28  C   UNL     1      -0.158   3.615   0.758  0.00  0.00    +0.027 A 
ATOM     29  C   UNL     1       1.045   2.937   0.736  0.00  0.00    -0.046 A 
ATOM     30  C   UNL     1       2.216   3.453   1.532  0.00  0.00    +0.044 C 
ENDBRANCH  19  27
ENDBRANCH  18  20
ENDBRANCH  17  18
ENDBRANCH   1  17
TORSDOF 4
