REMARK  Name = ZINC09589687
REMARK  13 active torsions:
REMARK  status: ('A' for Active; 'I' for Inactive)
REMARK    1  A    between atoms: C_1  and  C_2
REMARK    2  A    between atoms: C_2  and  O_3
REMARK    3  A    between atoms: O_3  and  C_4
REMARK    4  A    between atoms: C_4  and  C_6
REMARK    5  A    between atoms: C_6  and  C_7
REMARK    6  A    between atoms: C_7  and  N_8
REMARK    7  A    between atoms: C_11  and  C_33
REMARK    8  A    between atoms: C_13  and  C_32
REMARK    9  A    between atoms: N_17  and  C_18
REMARK   10  A    between atoms: C_18  and  C_20
REMARK   11  A    between atoms: C_20  and  C_21
REMARK   12  A    between atoms: C_21  and  S_22
REMARK   13  A    between atoms: S_22  and  C_25
REMARK                            x       y       z     vdW  Elec       q    Type
REMARK                         _______ _______ _______ _____ _____    ______ ____
ROOT
ATOM      1  N   UNL     1      -4.113   2.490   2.493  0.00  0.00    -0.321 N 
ATOM      2  C   UNL     1      -2.763   2.232   2.352  0.00  0.00    +0.058 A 
ATOM      3  C   UNL     1      -2.076   1.784   1.212  0.00  0.00    +0.030 A 
ATOM      4  C   UNL     1      -0.718   1.572   1.248  0.00  0.00    -0.048 A 
ATOM      5  C   UNL     1       0.015   1.802   2.401  0.00  0.00    +0.008 A 
ATOM      6  C   UNL     1      -0.636   2.249   3.537  0.00  0.00    -0.034 A 
ATOM      7  C   UNL     1      -1.995   2.456   3.504  0.00  0.00    +0.042 A 
ATOM      8  S   UNL     1      -3.194   3.006   4.691  0.00  0.00    -0.052 S 
ATOM      9  C   UNL     1      -4.603   2.927   3.683  0.00  0.00    +0.166 A 
ATOM     10  N   UNL     1      -5.862   3.224   3.999  0.00  0.00    -0.156 NA
ATOM     11  C   UNL     1       0.140   2.506   4.803  0.00  0.00    +0.045 C 
ATOM     12  C   UNL     1      -0.013   1.086   0.008  0.00  0.00    +0.044 C 
ENDROOT
BRANCH  10  13
ATOM     13  C   UNL     1      -6.158   3.642   5.225  0.00  0.00    +0.240 C 
ATOM     14  O   UNL     1      -5.280   3.752   6.059  0.00  0.00    -0.274 OA
BRANCH  13  15
ATOM     15  C   UNL     1      -7.583   3.978   5.582  0.00  0.00    +0.121 C 
BRANCH  15  16
ATOM     16  C   UNL     1      -7.650   4.428   7.043  0.00  0.00    +0.181 C 
BRANCH  16  17
ATOM     17  S   UNL     1      -9.365   4.833   7.473  0.00  0.00    -0.003 S 
ATOM     18  O   UNL     1      -9.786   5.993   6.768  0.00  0.00    -0.169 OA
ATOM     19  O   UNL     1     -10.161   3.656   7.472  0.00  0.00    -0.169 OA
BRANCH  17  20
ATOM     20  C   UNL     1      -9.303   5.332   9.162  0.00  0.00    +0.088 A 
ATOM     21  C   UNL     1      -9.466   4.395  10.166  0.00  0.00    +0.028 A 
ATOM     22  C   UNL     1      -9.411   4.785  11.491  0.00  0.00    +0.022 A 
ATOM     23  C   UNL     1      -9.205   6.114  11.812  0.00  0.00    +0.041 A 
ATOM     24  C   UNL     1      -9.047   7.052  10.808  0.00  0.00    +0.022 A 
ATOM     25  C   UNL     1      -9.096   6.661   9.483  0.00  0.00    +0.028 A 
ATOM     26 CL   UNL     1      -9.143   6.606  13.476  0.00  0.00    -0.084 Cl
ENDBRANCH  17  20
ENDBRANCH  16  17
ENDBRANCH  15  16
ENDBRANCH  13  15
ENDBRANCH  10  13
BRANCH   1  27
ATOM     27  C   UNL     1      -5.018   2.293   1.358  0.00  0.00    +0.135 C 
BRANCH  27  28
ATOM     28  C   UNL     1      -5.551   0.860   1.373  0.00  0.00    +0.142 C 
BRANCH  28  29
ATOM     29  C   UNL     1      -6.482   0.657   0.206  0.00  0.00    +0.309 C 
ATOM     30  O   UNL     1      -6.697   1.566  -0.560  0.00  0.00    -0.251 OA
BRANCH  29  31
ATOM     31  O   UNL     1      -7.073  -0.533   0.017  0.00  0.00    -0.465 OA
BRANCH  31  33
ATOM     32  C   UNL     1      -8.532  -2.073  -1.179  0.00  0.00    +0.048 C 
ATOM     33  C   UNL     1      -7.957  -0.656  -1.128  0.00  0.00    +0.229 C 
ENDBRANCH  31  33
ENDBRANCH  29  31
ENDBRANCH  28  29
ENDBRANCH  27  28
ENDBRANCH   1  27
TORSDOF 10
