REMARK  Name = ZINC04213094
REMARK  12 active torsions:
REMARK  status: ('A' for Active; 'I' for Inactive)
REMARK    1  A    between atoms: C_1  and  C_2
REMARK    2  A    between atoms: C_2  and  C_3
REMARK    3  A    between atoms: C_10  and  O_36
REMARK    4  A    between atoms: C_11  and  O_34
REMARK    5  A    between atoms: C_17  and  C_19
REMARK    6  A    between atoms: C_19  and  C_20
REMARK    7  A    between atoms: C_24  and  O_32
REMARK    8  A    between atoms: C_25  and  O_30
REMARK    9  A    between atoms: O_30  and  C_31
REMARK   10  A    between atoms: O_32  and  C_33
REMARK   11  A    between atoms: O_34  and  C_35
REMARK   12  A    between atoms: O_36  and  C_37
REMARK                            x       y       z     vdW  Elec       q    Type
REMARK                         _______ _______ _______ _____ _____    ______ ____
ROOT
ATOM      1  C   UNL     1      -0.123   0.279   0.125  0.00  0.00    -0.025 C 
ATOM      2  C   UNL     1       0.458  -0.092   1.493  0.00  0.00    -0.074 C 
ATOM      3  C   UNL     1       1.272  -1.950   2.825  0.00  0.00    -0.073 C 
ATOM      4  C   UNL     1       1.714  -3.408   2.691  0.00  0.00    +0.017 C 
ATOM      5  C   UNL     1       0.559  -4.257   2.224  0.00  0.00    -0.044 A 
ATOM      6  C   UNL     1       0.648  -5.633   2.380  0.00  0.00    +0.053 A 
ATOM      7  C   UNL     1      -0.385  -6.453   1.963  0.00  0.00    +0.162 A 
ATOM      8  C   UNL     1      -1.520  -5.891   1.384  0.00  0.00    +0.162 A 
ATOM      9  C   UNL     1      -1.604  -4.519   1.231  0.00  0.00    +0.051 A 
ATOM     10  C   UNL     1      -0.566  -3.700   1.653  0.00  0.00    -0.054 A 
ATOM     11  C   UNL     1      -0.709  -2.213   1.474  0.00  0.00    -0.037 C 
ATOM     12  C   UNL     1      -1.323  -1.911   0.106  0.00  0.00    -0.007 C 
ATOM     13  C   UNL     1      -1.486  -0.396  -0.048  0.00  0.00    -0.012 C 
ATOM     14  N   UNL     1       0.609  -1.563   1.562  0.00  0.00    +0.385 N 
ATOM     15  H   UNL     1       1.188  -1.874   0.772  0.00  0.00    -0.081 HD
ENDROOT
BRANCH   1  17
ATOM     16  C   UNL     1       1.086   2.466   0.087  0.00  0.00    +0.004 C 
ATOM     17  C   UNL     1      -0.290   1.797   0.037  0.00  0.00    -0.002 C 
ENDBRANCH   1  17
BRANCH   8  18
ATOM     18  O   UNL     1      -2.541  -6.688   0.969  0.00  0.00    -0.491 OA
ATOM     19  C   UNL     1      -3.672  -6.041   0.384  0.00  0.00    +0.277 C 
ENDBRANCH   8  18
BRANCH   7  20
ATOM     20  O   UNL     1      -0.293  -7.801   2.119  0.00  0.00    -0.491 OA
ATOM     21  C   UNL     1       0.901  -8.304   2.721  0.00  0.00    +0.277 C 
ENDBRANCH   7  20
BRANCH  13  22
ATOM     22  C   UNL     1      -2.039  -0.080  -1.439  0.00  0.00    -0.008 C 
BRANCH  22  23
ATOM     23  C   UNL     1      -3.470  -0.609  -1.551  0.00  0.00    -0.040 C 
ATOM     24  C   UNL     1      -4.070  -0.149  -2.854  0.00  0.00    -0.055 A 
ATOM     25  C   UNL     1      -3.841   1.158  -3.259  0.00  0.00    +0.051 A 
ATOM     26  C   UNL     1      -4.374   1.626  -4.447  0.00  0.00    +0.162 A 
ATOM     27  C   UNL     1      -5.145   0.780  -5.238  0.00  0.00    +0.162 A 
ATOM     28  C   UNL     1      -5.370  -0.523  -4.830  0.00  0.00    +0.053 A 
ATOM     29  C   UNL     1      -4.832  -0.988  -3.640  0.00  0.00    -0.044 A 
ATOM     30  C   UNL     1      -5.097  -2.418  -3.244  0.00  0.00    +0.016 C 
ATOM     31  C   UNL     1      -4.792  -2.614  -1.759  0.00  0.00    -0.077 C 
ATOM     32  N   UNL     1      -3.447  -2.077  -1.482  0.00  0.00    +0.384 N 
ATOM     33  H   UNL     1      -3.150  -2.369  -0.543  0.00  0.00    -0.085 HD
ATOM     34  H   UNL     1      -2.785  -2.439  -2.178  0.00  0.00    -0.085 HD
BRANCH  27  35
ATOM     35  O   UNL     1      -5.675   1.232  -6.406  0.00  0.00    -0.491 OA
ATOM     36  C   UNL     1      -6.456   0.306  -7.165  0.00  0.00    +0.277 C 
ENDBRANCH  27  35
BRANCH  26  37
ATOM     37  O   UNL     1      -4.146   2.908  -4.839  0.00  0.00    -0.491 OA
ATOM     38  C   UNL     1      -3.345   3.718  -3.975  0.00  0.00    +0.277 C 
ENDBRANCH  26  37
ENDBRANCH  22  23
ENDBRANCH  13  22
TORSDOF 7
