REMARK  Name = ZINC65903130
REMARK  4 active torsions:
REMARK  status: ('A' for Active; 'I' for Inactive)
REMARK    1  A    between atoms: C_1  and  C_2
REMARK    2  A    between atoms: C_6  and  C_8
REMARK    3  A    between atoms: C_9  and  C_19
REMARK    4  A    between atoms: N_11  and  C_13
REMARK                            x       y       z     vdW  Elec       q    Type
REMARK                         _______ _______ _______ _____ _____    ______ ____
ROOT
ATOM      1  C   UNL     1       0.051  -2.852   2.486  0.00  0.00    +0.105 A 
ATOM      2  C   UNL     1      -0.691  -4.084   2.770  0.00  0.00    +0.083 A 
ATOM      3  C   UNL     1      -0.396  -4.426   4.073  0.00  0.00    +0.128 A 
ATOM      4  N   UNL     1       0.449  -3.501   4.561  0.00  0.00    -0.239 N 
ATOM      5  N   UNL     1       0.719  -2.546   3.576  0.00  0.00    -0.166 NA
ENDROOT
BRANCH   2   6
ATOM      6  C   UNL     1      -1.577  -4.812   1.846  0.00  0.00    +0.250 C 
ATOM      7  O   UNL     1      -2.505  -4.235   1.311  0.00  0.00    -0.270 OA
ATOM      8  N   UNL     1      -1.361  -6.118   1.593  0.00  0.00    -0.295 N 
ATOM      9  C   UNL     1      -0.302  -6.809   2.325  0.00  0.00    +0.117 C 
ATOM     10  C   UNL     1       0.781  -7.273   1.344  0.00  0.00    +0.114 C 
ATOM     11  C   UNL     1       0.314  -8.547   0.677  0.00  0.00    +0.215 C 
ATOM     12  O   UNL     1       0.841  -9.602   0.957  0.00  0.00    -0.276 OA
ATOM     13  N   UNL     1      -0.677  -8.517  -0.220  0.00  0.00    -0.314 N 
ATOM     14  C   UNL     1      -1.325  -7.248  -0.578  0.00  0.00    +0.123 C 
ATOM     15  C   UNL     1      -2.197  -6.789   0.602  0.00  0.00    +0.127 C 
ATOM     16  H   UNL     1      -0.971  -9.342  -0.638  0.00  0.00    +0.149 HD
ENDBRANCH   2   6
BRANCH   1  22
ATOM     17  C   UNL     1       0.020   1.501   0.041  0.00  0.00    +0.044 C 
ATOM     18  C   UNL     1       0.039  -0.006   0.030  0.00  0.00    -0.050 A 
ATOM     19  C   UNL     1       0.059  -0.688  -1.173  0.00  0.00    +0.003 A 
ATOM     20  C   UNL     1       0.076  -2.071  -1.190  0.00  0.00    +0.001 A 
ATOM     21  C   UNL     1       0.073  -2.779  -0.005  0.00  0.00    +0.010 A 
ATOM     22  C   UNL     1       0.054  -2.097   1.210  0.00  0.00    +0.003 A 
ATOM     23  C   UNL     1       0.042  -0.703   1.221  0.00  0.00    +0.013 A 
ENDBRANCH   1  22
BRANCH   4  24
ATOM     24  C   UNL     1       0.983  -3.498   5.856  0.00  0.00    +0.065 A 
ATOM     25  C   UNL     1       0.651  -4.509   6.748  0.00  0.00    +0.028 A 
ATOM     26  C   UNL     1       1.178  -4.503   8.024  0.00  0.00    +0.002 A 
ATOM     27  C   UNL     1       2.035  -3.491   8.415  0.00  0.00    +0.000 A 
ATOM     28  C   UNL     1       2.368  -2.482   7.529  0.00  0.00    +0.002 A 
ATOM     29  C   UNL     1       1.849  -2.486   6.249  0.00  0.00    +0.028 A 
ENDBRANCH   4  24
TORSDOF 3
