REMARK  Name = ZINC64600475
REMARK  8 active torsions:
REMARK  status: ('A' for Active; 'I' for Inactive)
REMARK    1  A    between atoms: C_1  and  C_2
REMARK    2  A    between atoms: C_5  and  O_32
REMARK    3  A    between atoms: C_7  and  O_31
REMARK    4  A    between atoms: C_13  and  C_15
REMARK    5  A    between atoms: C_15  and  C_16
REMARK    6  A    between atoms: N_18  and  C_19
REMARK    7  A    between atoms: C_19  and  C_20
REMARK    8  A    between atoms: C_20  and  C_21
REMARK                            x       y       z     vdW  Elec       q    Type
REMARK                         _______ _______ _______ _____ _____    ______ ____
ROOT
ATOM      1  C   UNL     1       1.115  -1.984   1.061  0.00  0.00    +0.111 C 
ENDROOT
BRANCH   1  13
ATOM      2  C   UNL     1      -0.019   1.526   0.010  0.00  0.00    +0.013 C 
ATOM      3  C   UNL     1       0.002  -0.004   0.002  0.00  0.00    +0.037 C 
ATOM      4  C   UNL     1      -1.413  -0.524   0.009  0.00  0.00    +0.040 A 
ATOM      5  C   UNL     1      -2.116  -0.549  -1.192  0.00  0.00    +0.127 A 
ATOM      6  C   UNL     1      -3.420  -1.012  -1.231  0.00  0.00    +0.091 A 
ATOM      7  C   UNL     1      -4.031  -1.454  -0.067  0.00  0.00    +0.124 A 
ATOM      8  C   UNL     1      -3.333  -1.433   1.129  0.00  0.00    +0.092 A 
ATOM      9  C   UNL     1      -2.021  -0.971   1.168  0.00  0.00    +0.142 A 
ATOM     10  O   UNL     1      -1.367  -0.986   2.361  0.00  0.00    -0.425 OA
ATOM     11  C   UNL     1      -0.179  -0.353   2.429  0.00  0.00    +0.317 C 
ATOM     12  O   UNL     1       0.132   0.307   3.392  0.00  0.00    -0.250 OA
ATOM     13  C   UNL     1       0.747  -0.510   1.241  0.00  0.00    +0.114 C 
BRANCH   7  14
ATOM     14  O   UNL     1      -5.312  -1.906  -0.099  0.00  0.00    -0.507 OA
ATOM     15  H   UNL     1      -5.390  -2.855  -0.266  0.00  0.00    +0.292 HD
ENDBRANCH   7  14
BRANCH   5  16
ATOM     16  O   UNL     1      -1.519  -0.115  -2.333  0.00  0.00    -0.506 OA
ATOM     17  H   UNL     1      -1.050  -0.807  -2.820  0.00  0.00    +0.292 HD
ENDBRANCH   5  16
ENDBRANCH   1  13
BRANCH   1  18
ATOM     18  C   UNL     1       1.952  -2.439   2.228  0.00  0.00    +0.214 C 
ATOM     19  O   UNL     1       2.227  -1.662   3.117  0.00  0.00    -0.276 OA
ATOM     20  N   UNL     1       2.395  -3.711   2.284  0.00  0.00    -0.315 N 
ATOM     21  H   UNL     1       2.175  -4.333   1.573  0.00  0.00    +0.149 HD
BRANCH  20  22
ATOM     22  C   UNL     1       3.208  -4.154   3.419  0.00  0.00    +0.108 C 
BRANCH  22  23
ATOM     23  C   UNL     1       3.576  -5.628   3.238  0.00  0.00    +0.052 C 
BRANCH  23  24
ATOM     24  C   UNL     1       4.413  -6.084   4.405  0.00  0.00    -0.040 C 
ATOM     25  C   UNL     1       3.978  -6.708   5.523  0.00  0.00    +0.000 A 
ATOM     26  C   UNL     1       2.647  -7.133   5.970  0.00  0.00    +0.030 A 
ATOM     27  C   UNL     1       2.522  -7.750   7.168  0.00  0.00    +0.042 A 
ATOM     28  C   UNL     1       3.632  -7.992   7.992  0.00  0.00    +0.022 A 
ATOM     29  C   UNL     1       4.886  -7.630   7.649  0.00  0.00    +0.027 A 
ATOM     30  C   UNL     1       5.133  -6.976   6.410  0.00  0.00    +0.043 A 
ATOM     31  N   UNL     1       6.239  -6.534   5.862  0.00  0.00    -0.380 N 
ATOM     32  C   UNL     1       5.911  -5.941   4.561  0.00  0.00    +0.144 C 
ATOM     33 CL   UNL     1       0.948  -8.254   7.700  0.00  0.00    -0.084 Cl
ATOM     34  H   UNL     1       7.126  -6.592   6.250  0.00  0.00    +0.160 HD
ENDBRANCH  23  24
ENDBRANCH  22  23
ENDBRANCH  20  22
ENDBRANCH   1  18
TORSDOF 7
