REMARK  Name = ZINC60373444
REMARK  9 active torsions:
REMARK  status: ('A' for Active; 'I' for Inactive)
REMARK    1  A    between atoms: C_1  and  C_2
REMARK    2  A    between atoms: C_2  and  C_4
REMARK    3  A    between atoms: C_2  and  N_32
REMARK    4  A    between atoms: N_6  and  C_7
REMARK    5  A    between atoms: C_7  and  C_8
REMARK    6  A    between atoms: C_8  and  C_10
REMARK    7  A    between atoms: C_8  and  C_16
REMARK    8  A    between atoms: C_25  and  C_26
REMARK    9  A    between atoms: C_33  and  C_35
REMARK                            x       y       z     vdW  Elec       q    Type
REMARK                         _______ _______ _______ _____ _____    ______ ____
ROOT
ATOM      1  C   UNL     1       4.163  -0.117   2.602  0.00  0.00    +0.069 C 
ENDROOT
BRANCH   1   2
ATOM      2  C   UNL     1       4.119  -1.552   2.144  0.00  0.00    -0.006 A 
ATOM      3  C   UNL     1       3.079  -2.174   1.327  0.00  0.00    +0.004 A 
ATOM      4  C   UNL     1       1.894  -1.708   0.749  0.00  0.00    +0.010 A 
ATOM      5  C   UNL     1       1.114  -2.560   0.020  0.00  0.00    +0.001 A 
ATOM      6  C   UNL     1       1.488  -3.886  -0.152  0.00  0.00    +0.002 A 
ATOM      7  C   UNL     1       2.651  -4.367   0.409  0.00  0.00    +0.026 A 
ATOM      8  C   UNL     1       3.462  -3.518   1.155  0.00  0.00    +0.047 A 
ATOM      9  N   UNL     1       4.654  -3.695   1.823  0.00  0.00    -0.354 N 
ATOM     10  H   UNL     1       5.147  -4.529   1.871  0.00  0.00    +0.166 HD
ATOM     11  C   UNL     1       5.041  -2.512   2.408  0.00  0.00    +0.051 A 
BRANCH  11  12
ATOM     12  C   UNL     1       6.271  -2.316   3.204  0.00  0.00    -0.001 A 
ATOM     13  C   UNL     1       7.068  -1.189   2.998  0.00  0.00    +0.010 A 
ATOM     14  C   UNL     1       8.214  -1.012   3.745  0.00  0.00    +0.001 A 
ATOM     15  C   UNL     1       8.576  -1.950   4.696  0.00  0.00    +0.000 A 
ATOM     16  C   UNL     1       7.790  -3.070   4.905  0.00  0.00    +0.001 A 
ATOM     17  C   UNL     1       6.638  -3.256   4.169  0.00  0.00    +0.010 A 
ENDBRANCH  11  12
ENDBRANCH   1   2
BRANCH   1  18
ATOM     18  C   UNL     1       3.139   0.095   3.687  0.00  0.00    -0.038 A 
ATOM     19  C   UNL     1       1.823  -0.274   3.478  0.00  0.00    +0.004 A 
ATOM     20  C   UNL     1       0.884  -0.079   4.474  0.00  0.00    +0.000 A 
ATOM     21  C   UNL     1       1.261   0.485   5.679  0.00  0.00    +0.000 A 
ATOM     22  C   UNL     1       2.577   0.853   5.888  0.00  0.00    +0.000 A 
ATOM     23  C   UNL     1       3.517   0.654   4.894  0.00  0.00    +0.004 A 
ENDBRANCH   1  18
BRANCH   1  24
ATOM     24  C   UNL     1       3.852   0.804   1.421  0.00  0.00    +0.117 C 
BRANCH  24  27
ATOM     25  C   UNL     1       3.788   3.195   0.953  0.00  0.00    +0.233 C 
ATOM     26  O   UNL     1       3.456   2.934  -0.184  0.00  0.00    -0.274 OA
ATOM     27  N   UNL     1       4.011   2.200   1.835  0.00  0.00    -0.313 N 
ATOM     28  H   UNL     1       4.277   2.409   2.744  0.00  0.00    +0.149 HD
BRANCH  25  30
ATOM     29  C   UNL     1       2.989   4.934   2.530  0.00  0.00    +0.038 C 
ATOM     30  C   UNL     1       3.951   4.631   1.380  0.00  0.00    +0.156 C 
BRANCH  30  31
ATOM     31  N   UNL     1       3.654   5.513   0.249  0.00  0.00    -0.304 N 
ATOM     32  C   UNL     1       4.189   6.749   0.200  0.00  0.00    +0.217 C 
ATOM     33  O   UNL     1       4.917   7.131   1.091  0.00  0.00    -0.275 OA
ATOM     34  H   UNL     1       3.072   5.208  -0.465  0.00  0.00    +0.149 HD
BRANCH  32  35
ATOM     35  C   UNL     1       3.883   7.657  -0.964  0.00  0.00    +0.075 C 
ATOM     36  C   UNL     1       4.759   7.391  -2.200  0.00  0.00    +0.013 C 
ATOM     37  C   UNL     1       4.827   8.916  -2.383  0.00  0.00    +0.001 C 
ATOM     38  C   UNL     1       4.569   9.030  -0.871  0.00  0.00    +0.013 C 
ENDBRANCH  32  35
ENDBRANCH  30  31
ENDBRANCH  25  30
ENDBRANCH  24  27
ENDBRANCH   1  24
TORSDOF 8
