REMARK  Name = ZINC63216677
REMARK  4 active torsions:
REMARK  status: ('A' for Active; 'I' for Inactive)
REMARK    1  A    between atoms: C_1  and  C_2
REMARK    2  A    between atoms: C_7  and  O_10
REMARK    3  A    between atoms: O_10  and  C_11
REMARK    4  A    between atoms: C_11  and  C_13
REMARK                            x       y       z     vdW  Elec       q    Type
REMARK                         _______ _______ _______ _____ _____    ______ ____
ROOT
ATOM      1  C   UNL     1       1.060  -3.698   2.897  0.00  0.00    +0.361 C 
ATOM      2  O   UNL     1       0.170  -4.323   2.355  0.00  0.00    -0.243 OA
ENDROOT
BRANCH   1   3
ATOM      3  C   UNL     1       1.734  -4.254   4.087  0.00  0.00    +0.187 A 
ATOM      4  C   UNL     1       1.274  -5.449   4.665  0.00  0.00    +0.149 A 
ATOM      5  N   UNL     1       1.888  -5.940   5.735  0.00  0.00    -0.237 NA
ATOM      6  C   UNL     1       2.926  -5.306   6.249  0.00  0.00    +0.132 A 
ATOM      7  C   UNL     1       3.380  -4.126   5.678  0.00  0.00    +0.131 A 
ATOM      8  N   UNL     1       2.785  -3.630   4.613  0.00  0.00    -0.244 NA
ATOM      9  N   UNL     1       0.187  -6.109   4.124  0.00  0.00    -0.341 N 
ATOM     10  H   UNL     1      -0.212  -5.792   3.298  0.00  0.00    +0.144 HD
ATOM     11  H   UNL     1      -0.178  -6.890   4.569  0.00  0.00    +0.144 HD
ENDBRANCH   1   3
BRANCH   1  12
ATOM     12  O   UNL     1       1.431  -2.497   2.413  0.00  0.00    -0.457 OA
BRANCH  12  18
ATOM     13  C   UNL     1      -0.084   1.550   0.071  0.00  0.00    +0.007 C 
ATOM     14  C   UNL     1      -0.046   0.021   0.048  0.00  0.00    -0.011 C 
ATOM     15  C   UNL     1       0.676  -0.452  -1.215  0.00  0.00    +0.003 C 
ATOM     16  C   UNL     1       0.713  -1.981  -1.239  0.00  0.00    +0.004 C 
ATOM     17  C   UNL     1       1.458  -2.492  -0.004  0.00  0.00    +0.045 C 
ATOM     18  C   UNL     1       0.736  -2.019   1.259  0.00  0.00    +0.177 C 
ATOM     19  C   UNL     1       0.698  -0.490   1.283  0.00  0.00    +0.048 C 
ENDBRANCH  12  18
ENDBRANCH   1  12
TORSDOF 3
