REMARK  Name = ZINC19221905
REMARK  9 active torsions:
REMARK  status: ('A' for Active; 'I' for Inactive)
REMARK    1  A    between atoms: C_1  and  C_2
REMARK    2  A    between atoms: C_7  and  C_14
REMARK    3  A    between atoms: C_14  and  C_16
REMARK    4  A    between atoms: C_14  and  N_26
REMARK    5  A    between atoms: N_20  and  C_21
REMARK    6  A    between atoms: N_26  and  C_27
REMARK    7  A    between atoms: N_26  and  C_34
REMARK    8  A    between atoms: C_27  and  C_28
REMARK    9  A    between atoms: C_34  and  C_35
REMARK                            x       y       z     vdW  Elec       q    Type
REMARK                         _______ _______ _______ _____ _____    ______ ____
ROOT
ATOM      1  C   UNL     1      -0.026  -6.362   1.341  0.00  0.00    +0.040 C 
ENDROOT
BRANCH   1   8
ATOM      2  C   UNL     1      -2.193   0.728  -1.601  0.00  0.00    +0.044 C 
ATOM      3  C   UNL     1      -1.764  -0.678  -1.268  0.00  0.00    -0.048 A 
ATOM      4  C   UNL     1      -1.495  -1.575  -2.293  0.00  0.00    +0.004 A 
ATOM      5  C   UNL     1      -1.105  -2.853  -2.013  0.00  0.00    +0.010 A 
ATOM      6  C   UNL     1      -0.976  -3.264  -0.682  0.00  0.00    -0.001 A 
ATOM      7  C   UNL     1      -0.560  -4.627  -0.347  0.00  0.00    +0.017 A 
ATOM      8  C   UNL     1      -0.451  -4.967   0.961  0.00  0.00    +0.011 A 
ATOM      9  C   UNL     1      -0.736  -4.020   1.968  0.00  0.00    +0.251 A 
ATOM     10  O   UNL     1      -0.632  -4.347   3.138  0.00  0.00    -0.268 OA
ATOM     11  N   UNL     1      -1.119  -2.766   1.670  0.00  0.00    -0.322 N 
ATOM     12  H   UNL     1      -1.306  -2.140   2.387  0.00  0.00    +0.169 HD
ATOM     13  C   UNL     1      -1.248  -2.357   0.360  0.00  0.00    +0.049 A 
ATOM     14  C   UNL     1      -1.638  -1.058   0.051  0.00  0.00    +0.029 A 
ENDBRANCH   1   8
BRANCH   1  15
ATOM     15  C   UNL     1       1.306  -6.307   2.044  0.00  0.00    +0.143 A 
ATOM     16  N   UNL     1       1.529  -5.887   3.265  0.00  0.00    -0.115 NA
ATOM     17  N   UNL     1       2.792  -5.996   3.499  0.00  0.00    -0.023 NA
ATOM     18  N   UNL     1       3.379  -6.476   2.459  0.00  0.00    -0.044 NA
ATOM     19  N   UNL     1       2.496  -6.686   1.542  0.00  0.00    -0.227 N 
BRANCH  19  20
ATOM     20  C   UNL     1       2.743  -7.230   0.205  0.00  0.00    +0.111 C 
ATOM     21  C   UNL     1       3.419  -8.613   0.313  0.00  0.00    +0.027 C 
ATOM     22  C   UNL     1       4.423  -8.638  -0.866  0.00  0.00    +0.002 C 
ATOM     23  C   UNL     1       4.955  -7.184  -0.893  0.00  0.00    +0.002 C 
ATOM     24  C   UNL     1       3.720  -6.322  -0.562  0.00  0.00    +0.027 C 
ENDBRANCH  19  20
ENDBRANCH   1  15
BRANCH   1  25
ATOM     25  N   UNL     1      -1.029  -6.953   2.237  0.00  0.00    +0.397 N 
ATOM     26  H   UNL     1      -1.000  -6.484   3.130  0.00  0.00    -0.079 HD
BRANCH  25  27
ATOM     27  C   UNL     1      -2.365  -6.799   1.646  0.00  0.00    -0.039 C 
BRANCH  27  28
ATOM     28  C   UNL     1      -3.404  -7.294   2.619  0.00  0.00    -0.046 A 
ATOM     29  C   UNL     1      -3.802  -8.622   2.606  0.00  0.00    +0.005 A 
ATOM     30  C   UNL     1      -4.761  -9.033   3.518  0.00  0.00    +0.020 A 
ATOM     31  C   UNL     1      -5.285  -8.111   4.405  0.00  0.00    +0.111 A 
ATOM     32  N   UNL     1      -4.883  -6.855   4.389  0.00  0.00    -0.263 NA
ATOM     33  C   UNL     1      -3.968  -6.431   3.539  0.00  0.00    +0.112 A 
ENDBRANCH  27  28
ENDBRANCH  25  27
BRANCH  25  34
ATOM     34  C   UNL     1      -0.737  -8.381   2.425  0.00  0.00    -0.001 C 
BRANCH  34  35
ATOM     35  C   UNL     1       0.498  -8.534   3.274  0.00  0.00    +0.089 A 
ATOM     36  C   UNL     1       0.545  -8.449   4.616  0.00  0.00    +0.042 A 
ATOM     37  C   UNL     1       1.893  -8.655   4.992  0.00  0.00    +0.041 A 
ATOM     38  C   UNL     1       2.588  -8.852   3.858  0.00  0.00    +0.195 A 
ATOM     39  O   UNL     1       1.737  -8.784   2.821  0.00  0.00    -0.470 OA
ENDBRANCH  34  35
ENDBRANCH  25  34
ENDBRANCH   1  25
TORSDOF 8
