REMARK  Name = ZINC01930818
REMARK  11 active torsions:
REMARK  status: ('A' for Active; 'I' for Inactive)
REMARK    1  A    between atoms: C_1  and  C_2
REMARK    2  A    between atoms: C_2  and  N_59
REMARK    3  A    between atoms: C_3  and  C_4
REMARK    4  A    between atoms: C_3  and  N_59
REMARK    5  A    between atoms: N_6  and  C_7
REMARK    6  A    between atoms: C_8  and  C_18
REMARK    7  A    between atoms: C_9  and  C_12
REMARK    8  A    between atoms: C_18  and  O_20
REMARK    9  A    between atoms: O_20  and  C_21
REMARK   10  A    between atoms: C_21  and  C_22
REMARK   11  A    between atoms: C_23  and  N_59
REMARK                            x       y       z     vdW  Elec       q    Type
REMARK                         _______ _______ _______ _____ _____    ______ ____
ROOT
ATOM      1  C   UNL     1      -1.807  -3.360   1.266  0.00  0.00    +0.086 A 
ATOM      2  C   UNL     1      -1.952  -2.754   0.025  0.00  0.00    +0.095 A 
ATOM      3  C   UNL     1      -2.097  -3.635  -1.118  0.00  0.00    +0.005 A 
ATOM      4  C   UNL     1      -2.081  -4.969  -0.867  0.00  0.00    +0.056 A 
ATOM      5  S   UNL     1      -1.873  -5.051   0.899  0.00  0.00    -0.080 S 
ENDROOT
BRANCH   3   6
ATOM      6  C   UNL     1      -2.254  -3.104  -2.494  0.00  0.00    -0.017 A 
ATOM      7  C   UNL     1      -3.209  -2.125  -2.761  0.00  0.00    +0.008 A 
ATOM      8  C   UNL     1      -3.348  -1.631  -4.042  0.00  0.00    +0.001 A 
ATOM      9  C   UNL     1      -2.548  -2.114  -5.062  0.00  0.00    +0.000 A 
ATOM     10  C   UNL     1      -1.602  -3.090  -4.804  0.00  0.00    +0.001 A 
ATOM     11  C   UNL     1      -1.451  -3.587  -3.526  0.00  0.00    +0.008 A 
ENDBRANCH   3   6
BRANCH   1  14
ATOM     12  C   UNL     1      -1.521  -3.512   3.611  0.00  0.00    +0.201 C 
ATOM     13  O   UNL     1      -1.544  -4.722   3.526  0.00  0.00    -0.278 OA
ATOM     14  N   UNL     1      -1.648  -2.756   2.503  0.00  0.00    -0.281 N 
ATOM     15  H   UNL     1      -1.629  -1.788   2.571  0.00  0.00    +0.155 HD
BRANCH  12  16
ATOM     16  C   UNL     1      -1.348  -2.855   4.956  0.00  0.00    +0.019 C 
BRANCH  16  17
ATOM     17  N   UNL     1      -1.254  -3.906   5.992  0.00  0.00    +0.387 N 
ATOM     18  H   UNL     1      -2.050  -4.547   5.889  0.00  0.00    -0.081 HD
BRANCH  17  19
ATOM     19  C   UNL     1      -1.301  -3.295   7.337  0.00  0.00    -0.068 C 
ATOM     20  C   UNL     1      -1.128  -4.393   8.389  0.00  0.00    -0.015 C 
ATOM     21  C   UNL     1      -1.199  -3.775   9.787  0.00  0.00    -0.002 C 
ATOM     22  C   UNL     1      -2.558  -3.098   9.976  0.00  0.00    -0.000 C 
ATOM     23  C   UNL     1      -2.731  -2.000   8.924  0.00  0.00    -0.002 C 
ATOM     24  C   UNL     1      -2.659  -2.617   7.526  0.00  0.00    -0.015 C 
ENDBRANCH  17  19
BRANCH  17  26
ATOM     25  C   UNL     1       1.212  -3.766   6.073  0.00  0.00    -0.017 C 
ATOM     26  C   UNL     1       0.001  -4.668   5.826  0.00  0.00    -0.081 C 
ENDBRANCH  17  26
ENDBRANCH  16  17
ENDBRANCH  12  16
ENDBRANCH   1  14
BRANCH   2  27
ATOM     27  C   UNL     1      -1.954  -1.299  -0.122  0.00  0.00    +0.342 C 
ATOM     28  O   UNL     1      -3.001  -0.682  -0.060  0.00  0.00    -0.245 OA
BRANCH  27  29
ATOM     29  O   UNL     1      -0.794  -0.640  -0.327  0.00  0.00    -0.461 OA
BRANCH  29  30
ATOM     30  C   UNL     1      -0.872   0.803  -0.464  0.00  0.00    +0.229 C 
ATOM     31  C   UNL     1       0.532   1.370  -0.689  0.00  0.00    +0.048 C 
ENDBRANCH  29  30
ENDBRANCH  27  29
ENDBRANCH   2  27
TORSDOF 9
