REMARK  Name = ZINC38705250
REMARK  13 active torsions:
REMARK  status: ('A' for Active; 'I' for Inactive)
REMARK    1  A    between atoms: C_1  and  C_2
REMARK    2  A    between atoms: C_2  and  C_3
REMARK    3  A    between atoms: C_3  and  C_4
REMARK    4  A    between atoms: C_4  and  C_5
REMARK    5  A    between atoms: C_5  and  N_6
REMARK    6  A    between atoms: C_7  and  C_26
REMARK    7  A    between atoms: C_10  and  C_17
REMARK    8  A    between atoms: C_18  and  C_25
REMARK    9  A    between atoms: C_20  and  C_24
REMARK   10  A    between atoms: C_22  and  O_23
REMARK   11  A    between atoms: C_29  and  O_32
REMARK   12  A    between atoms: O_32  and  C_33
REMARK   13  A    between atoms: C_33  and  C_34
REMARK                            x       y       z     vdW  Elec       q    Type
REMARK                         _______ _______ _______ _____ _____    ______ ____
ROOT
ATOM      1  N   UNL     1       1.545  -4.048  -2.528  0.00  0.00    -0.285 N 
ATOM      2  C   UNL     1       2.527  -4.937  -1.894  0.00  0.00    +0.141 C 
ATOM      3  C   UNL     1       2.077  -6.340  -2.200  0.00  0.00    +0.035 A 
ATOM      4  C   UNL     1       2.313  -7.712  -2.058  0.00  0.00    +0.102 A 
ATOM      5  N   UNL     1       1.348  -8.346  -2.693  0.00  0.00    -0.173 NA
ATOM      6  N   UNL     1       0.526  -7.511  -3.223  0.00  0.00    -0.272 N 
ATOM      7  H   UNL     1      -0.259  -7.753  -3.737  0.00  0.00    +0.189 HD
ATOM      8  C   UNL     1       0.924  -6.232  -2.952  0.00  0.00    +0.126 A 
ATOM      9  C   UNL     1       0.617  -4.809  -3.135  0.00  0.00    +0.265 C 
ATOM     10  O   UNL     1      -0.341  -4.379  -3.749  0.00  0.00    -0.268 OA
ENDROOT
BRANCH   4  11
ATOM     11  C   UNL     1       3.443  -8.337  -1.326  0.00  0.00    +0.047 A 
ATOM     12  C   UNL     1       4.202  -9.335  -1.933  0.00  0.00    -0.037 A 
ATOM     13  C   UNL     1       5.252  -9.914  -1.249  0.00  0.00    +0.007 A 
ATOM     14  C   UNL     1       5.553  -9.507   0.039  0.00  0.00    -0.047 A 
ATOM     15  C   UNL     1       4.806  -8.518   0.650  0.00  0.00    +0.049 A 
ATOM     16  C   UNL     1       3.753  -7.924  -0.028  0.00  0.00    +0.127 A 
ATOM     17  C   UNL     1       6.701 -10.145   0.778  0.00  0.00    +0.044 C 
ATOM     18  C   UNL     1       3.877  -9.783  -3.335  0.00  0.00    +0.044 C 
BRANCH  16  19
ATOM     19  O   UNL     1       3.022  -6.948   0.570  0.00  0.00    -0.506 OA
ATOM     20  H   UNL     1       2.307  -7.279   1.131  0.00  0.00    +0.292 HD
ENDBRANCH  16  19
ENDBRANCH   4  11
BRANCH   2  21
ATOM     21  C   UNL     1       3.897  -4.693  -2.472  0.00  0.00    -0.022 A 
ATOM     22  C   UNL     1       4.058  -4.577  -3.841  0.00  0.00    +0.009 A 
ATOM     23  C   UNL     1       5.313  -4.354  -4.373  0.00  0.00    +0.046 A 
ATOM     24  C   UNL     1       6.412  -4.245  -3.534  0.00  0.00    +0.121 A 
ATOM     25  C   UNL     1       6.248  -4.362  -2.161  0.00  0.00    +0.046 A 
ATOM     26  C   UNL     1       4.990  -4.580  -1.633  0.00  0.00    +0.009 A 
BRANCH  24  27
ATOM     27  O   UNL     1       7.648  -4.026  -4.055  0.00  0.00    -0.487 OA
BRANCH  27  28
ATOM     28  C   UNL     1       8.734  -3.925  -3.131  0.00  0.00    +0.264 C 
BRANCH  28  29
ATOM     29  C   UNL     1      10.015  -3.683  -3.887  0.00  0.00    -0.010 A 
ATOM     30  C   UNL     1      10.777  -4.754  -4.317  0.00  0.00    +0.007 A 
ATOM     31  C   UNL     1      11.952  -4.532  -5.009  0.00  0.00    +0.000 A 
ATOM     32  C   UNL     1      12.366  -3.240  -5.272  0.00  0.00    +0.000 A 
ATOM     33  C   UNL     1      11.604  -2.169  -4.843  0.00  0.00    +0.000 A 
ATOM     34  C   UNL     1      10.426  -2.391  -4.154  0.00  0.00    +0.007 A 
ENDBRANCH  28  29
ENDBRANCH  27  28
ENDBRANCH  24  27
ENDBRANCH   2  21
BRANCH   1  35
ATOM     35  C   UNL     1       1.569  -2.584  -2.499  0.00  0.00    +0.109 C 
BRANCH  35  36
ATOM     36  C   UNL     1       0.794  -2.085  -1.278  0.00  0.00    +0.019 C 
BRANCH  36  37
ATOM     37  C   UNL     1       0.820  -0.555  -1.248  0.00  0.00    +0.001 C 
BRANCH  37  39
ATOM     38  C   UNL     1       0.070   1.473   0.004  0.00  0.00    +0.004 C 
ATOM     39  C   UNL     1       0.045  -0.057  -0.026  0.00  0.00    -0.003 C 
ENDBRANCH  37  39
ENDBRANCH  36  37
ENDBRANCH  35  36
ENDBRANCH   1  35
TORSDOF 10
