REMARK  Name = ZINC63180910
REMARK  12 active torsions:
REMARK  status: ('A' for Active; 'I' for Inactive)
REMARK    1  A    between atoms: C_1  and  C_2
REMARK    2  A    between atoms: C_2  and  O_3
REMARK    3  A    between atoms: O_3  and  C_4
REMARK    4  A    between atoms: C_7  and  N_10
REMARK    5  A    between atoms: C_11  and  C_31
REMARK    6  A    between atoms: C_14  and  S_15
REMARK    7  A    between atoms: S_15  and  C_16
REMARK    8  A    between atoms: C_16  and  C_18
REMARK    9  A    between atoms: C_16  and  C_19
REMARK   10  A    between atoms: C_19  and  C_21
REMARK   11  A    between atoms: C_24  and  N_27
REMARK   12  A    between atoms: C_28  and  C_30
REMARK                            x       y       z     vdW  Elec       q    Type
REMARK                         _______ _______ _______ _____ _____    ______ ____
ROOT
ATOM      1  N   UNL     1       1.508  -5.612   1.877  0.00  0.00    -0.270 N 
ATOM      2  C   UNL     1       1.071  -6.296   3.000  0.00  0.00    +0.168 A 
ATOM      3  N   UNL     1       1.454  -7.558   2.855  0.00  0.00    -0.128 NA
ATOM      4  N   UNL     1       2.083  -7.697   1.743  0.00  0.00    -0.122 NA
ATOM      5  C   UNL     1       2.140  -6.538   1.103  0.00  0.00    +0.197 A 
ENDROOT
BRANCH   2   6
ATOM      6  C   UNL     1       0.361  -5.758   4.083  0.00  0.00    +0.025 C 
ATOM      7  C   UNL     1      -0.080  -6.433   5.222  0.00  0.00    +0.006 A 
ATOM      8  C   UNL     1       0.032  -7.777   5.636  0.00  0.00    +0.010 A 
ATOM      9  C   UNL     1      -0.505  -8.163   6.822  0.00  0.00    +0.001 A 
ATOM     10  C   UNL     1      -1.171  -7.259   7.653  0.00  0.00    +0.002 A 
ATOM     11  C   UNL     1      -1.315  -5.953   7.318  0.00  0.00    +0.026 A 
ATOM     12  C   UNL     1      -0.780  -5.475   6.093  0.00  0.00    +0.043 A 
ATOM     13  N   UNL     1      -0.786  -4.274   5.549  0.00  0.00    -0.380 N 
ATOM     14  C   UNL     1      -0.081  -4.322   4.264  0.00  0.00    +0.152 C 
ATOM     15  H   UNL     1      -1.189  -3.483   5.939  0.00  0.00    +0.160 HD
ENDBRANCH   2   6
BRANCH   1  19
ATOM     16  C   UNL     1       0.980  -1.561   1.035  0.00  0.00    +0.121 A 
ATOM     17  C   UNL     1       0.374  -2.520   0.237  0.00  0.00    +0.047 A 
ATOM     18  C   UNL     1       0.548  -3.861   0.515  0.00  0.00    +0.030 A 
ATOM     19  C   UNL     1       1.331  -4.250   1.594  0.00  0.00    +0.051 A 
ATOM     20  C   UNL     1       1.938  -3.290   2.393  0.00  0.00    +0.030 A 
ATOM     21  C   UNL     1       1.766  -1.949   2.111  0.00  0.00    +0.047 A 
BRANCH  16  22
ATOM     22  O   UNL     1       0.808  -0.241   0.761  0.00  0.00    -0.492 OA
BRANCH  22  24
ATOM     23  C   UNL     1      -0.090   1.608  -0.511  0.00  0.00    +0.048 C 
ATOM     24  C   UNL     1      -0.014   0.087  -0.361  0.00  0.00    +0.225 C 
ENDBRANCH  22  24
ENDBRANCH  16  22
ENDBRANCH   1  19
BRANCH   5  25
ATOM     25  S   UNL     1       2.897  -6.248  -0.461  0.00  0.00    -0.075 S 
BRANCH  25  26
ATOM     26  C   UNL     1       3.543  -7.873  -0.945  0.00  0.00    +0.122 C 
ATOM     27  C   UNL     1       2.378  -8.841  -1.161  0.00  0.00    +0.028 C 
BRANCH  26  28
ATOM     28  C   UNL     1       4.330  -7.740  -2.223  0.00  0.00    +0.176 C 
ATOM     29  O   UNL     1       4.095  -6.830  -2.989  0.00  0.00    -0.291 OA
BRANCH  28  30
ATOM     30  C   UNL     1       5.382  -8.714  -2.541  0.00  0.00    +0.019 A 
ATOM     31  C   UNL     1       5.652  -9.770  -1.661  0.00  0.00    +0.013 A 
ATOM     32  C   UNL     1       6.635 -10.677  -1.963  0.00  0.00    +0.024 A 
ATOM     33  C   UNL     1       7.364 -10.549  -3.142  0.00  0.00    +0.033 A 
ATOM     34  C   UNL     1       7.100  -9.501  -4.019  0.00  0.00    +0.024 A 
ATOM     35  C   UNL     1       6.115  -8.593  -3.728  0.00  0.00    +0.013 A 
BRANCH  33  36
ATOM     36  N   UNL     1       8.362 -11.473  -3.444  0.00  0.00    -0.286 N 
ATOM     37  C   UNL     1       8.225 -12.761  -3.069  0.00  0.00    +0.214 C 
ATOM     38  O   UNL     1       7.192 -13.136  -2.555  0.00  0.00    -0.276 OA
ATOM     39  C   UNL     1       9.354 -13.735  -3.290  0.00  0.00    +0.109 C 
ATOM     40  H   UNL     1       9.156 -11.190  -3.924  0.00  0.00    +0.155 HD
ENDBRANCH  33  36
ENDBRANCH  28  30
ENDBRANCH  26  28
ENDBRANCH  25  26
ENDBRANCH   5  25
TORSDOF 9
