REMARK  Name = ZINC29464940
REMARK  5 active torsions:
REMARK  status: ('A' for Active; 'I' for Inactive)
REMARK    1  A    between atoms: C_1  and  C_2
REMARK    2  A    between atoms: C_15  and  C_17
REMARK    3  A    between atoms: C_17  and  S_18
REMARK    4  A    between atoms: S_18  and  C_19
REMARK    5  A    between atoms: N_20  and  C_21
REMARK                            x       y       z     vdW  Elec       q    Type
REMARK                         _______ _______ _______ _____ _____    ______ ____
ROOT
ATOM      1  C   UNL     1       0.375   0.401  -0.630  0.00  0.00    +0.029 C 
ATOM      2  C   UNL     1       0.291  -1.103  -0.360  0.00  0.00    +0.087 C 
ATOM      3  C   UNL     1       0.987  -1.862  -1.491  0.00  0.00    +0.118 C 
ATOM      4  C   UNL     1       1.267  -3.280  -1.068  0.00  0.00    +0.219 C 
ATOM      5  O   UNL     1       0.581  -4.183  -1.497  0.00  0.00    -0.275 OA
ATOM      6  N   UNL     1       2.277  -3.552  -0.214  0.00  0.00    -0.284 N 
ATOM      7  C   UNL     1       3.017  -2.514   0.364  0.00  0.00    +0.055 A 
ATOM      8  C   UNL     1       4.401  -2.534   0.350  0.00  0.00    +0.025 A 
ATOM      9  C   UNL     1       5.111  -1.508   0.948  0.00  0.00    +0.002 A 
ATOM     10  C   UNL     1       4.442  -0.465   1.562  0.00  0.00    +0.002 A 
ATOM     11  C   UNL     1       3.060  -0.432   1.572  0.00  0.00    +0.025 A 
ATOM     12  C   UNL     1       2.342  -1.450   0.965  0.00  0.00    +0.058 A 
ATOM     13  N   UNL     1       0.944  -1.406   0.915  0.00  0.00    -0.266 N 
ATOM     14  C   UNL     1       0.212  -1.637   2.022  0.00  0.00    +0.230 C 
ATOM     15  O   UNL     1      -0.999  -1.595   1.969  0.00  0.00    -0.274 OA
ATOM     16  H   UNL     1       2.492  -4.473   0.000  0.00  0.00    +0.155 HD
ENDROOT
BRANCH  14  17
ATOM     17  C   UNL     1       0.898  -1.947   3.328  0.00  0.00    +0.173 C 
BRANCH  17  18
ATOM     18  S   UNL     1      -0.349  -2.207   4.620  0.00  0.00    -0.081 S 
BRANCH  18  19
ATOM     19  C   UNL     1       0.599  -2.554   6.064  0.00  0.00    +0.152 C 
ATOM     20  N   UNL     1       1.911  -2.572   5.999  0.00  0.00    -0.227 NA
ATOM     21  N   UNL     1      -0.034  -2.807   7.256  0.00  0.00    -0.338 N 
ATOM     22  H   UNL     1      -0.998  -2.910   7.281  0.00  0.00    +0.144 HD
ATOM     23  H   UNL     1       0.484  -2.883   8.073  0.00  0.00    +0.144 HD
BRANCH  20  24
ATOM     24  C   UNL     1       2.645  -2.966   7.086  0.00  0.00    +0.066 A 
ATOM     25  C   UNL     1       2.434  -4.224   7.656  0.00  0.00    +0.028 A 
ATOM     26  C   UNL     1       3.176  -4.615   8.750  0.00  0.00    +0.002 A 
ATOM     27  C   UNL     1       4.128  -3.765   9.284  0.00  0.00    +0.000 A 
ATOM     28  C   UNL     1       4.342  -2.517   8.725  0.00  0.00    +0.002 A 
ATOM     29  C   UNL     1       3.611  -2.116   7.627  0.00  0.00    +0.028 A 
ENDBRANCH  20  24
ENDBRANCH  18  19
ENDBRANCH  17  18
ENDBRANCH  14  17
TORSDOF 4
