REMARK  Name = ZINC16492886
REMARK  3 active torsions:
REMARK  status: ('A' for Active; 'I' for Inactive)
REMARK    1  A    between atoms: C_4  and  C_7
REMARK    2  A    between atoms: C_10  and  C_13
REMARK    3  A    between atoms: N_20  and  C_21
REMARK                            x       y       z     vdW  Elec       q    Type
REMARK                         _______ _______ _______ _____ _____    ______ ____
ROOT
ATOM      1  C   UNL     1      -7.497   2.799   0.495  0.00  0.00    +0.046 C 
ATOM      2  C   UNL     1      -6.158   2.570   0.370  0.00  0.00    +0.081 C 
ATOM      3  C   UNL     1      -5.039   3.529   0.270  0.00  0.00    +0.276 C 
ATOM      4  O   UNL     1      -5.222   4.736   0.292  0.00  0.00    -0.267 OA
ATOM      5  N   UNL     1      -3.833   3.013   0.163  0.00  0.00    -0.154 NA
ATOM      6  C   UNL     1      -3.621   1.707   0.133  0.00  0.00    +0.156 C 
ATOM      7  S   UNL     1      -5.264   1.023   0.282  0.00  0.00    -0.051 S 
ATOM      8  N   UNL     1      -2.427   1.040   0.020  0.00  0.00    -0.296 N 
ATOM      9  H   UNL     1      -2.418   0.074  -0.071  0.00  0.00    +0.154 HD
ENDROOT
BRANCH   8  10
ATOM     10  C   UNL     1      -1.224   1.753   0.036  0.00  0.00    +0.033 A 
ATOM     11  C   UNL     1      -0.094   1.225  -0.577  0.00  0.00    +0.026 A 
ATOM     12  C   UNL     1       1.091   1.932  -0.565  0.00  0.00    +0.040 A 
ATOM     13  C   UNL     1       1.157   3.165   0.063  0.00  0.00    +0.124 A 
ATOM     14  C   UNL     1       0.034   3.691   0.679  0.00  0.00    +0.040 A 
ATOM     15  C   UNL     1      -1.155   2.987   0.669  0.00  0.00    +0.026 A 
ATOM     16  F   UNL     1       2.318   3.856   0.073  0.00  0.00    -0.205 F 
ENDBRANCH   8  10
BRANCH   1  20
ATOM     17  C   UNL     1      -9.203  -0.363   0.642  0.00  0.00    +0.047 A 
ATOM     18  C   UNL     1     -10.273   0.502   0.743  0.00  0.00    +0.028 A 
ATOM     19  C   UNL     1      -9.774   1.801   0.701  0.00  0.00    +0.027 A 
ATOM     20  C   UNL     1      -8.396   1.712   0.574  0.00  0.00    +0.041 A 
ATOM     21  N   UNL     1      -8.058   0.378   0.533  0.00  0.00    -0.355 N 
ATOM     22  H   UNL     1      -7.160   0.023   0.444  0.00  0.00    +0.166 HD
BRANCH  17  26
ATOM     23  C   UNL     1      -9.426  -4.603   0.650  0.00  0.00    +0.000 A 
ATOM     24  C   UNL     1     -10.584  -3.852   0.759  0.00  0.00    +0.001 A 
ATOM     25  C   UNL     1     -10.518  -2.475   0.757  0.00  0.00    +0.010 A 
ATOM     26  C   UNL     1      -9.280  -1.838   0.645  0.00  0.00    -0.002 A 
ATOM     27  C   UNL     1      -8.117  -2.602   0.529  0.00  0.00    +0.010 A 
ATOM     28  C   UNL     1      -8.197  -3.979   0.538  0.00  0.00    +0.001 A 
ENDBRANCH  17  26
ENDBRANCH   1  20
TORSDOF 3
