REMARK  Name = ZINC09429865
REMARK  7 active torsions:
REMARK  status: ('A' for Active; 'I' for Inactive)
REMARK    1  A    between atoms: C_1  and  O_2
REMARK    2  A    between atoms: O_2  and  C_3
REMARK    3  A    between atoms: C_6  and  C_11
REMARK    4  A    between atoms: C_8  and  O_9
REMARK    5  A    between atoms: O_9  and  C_10
REMARK    6  A    between atoms: C_11  and  C_12
REMARK    7  A    between atoms: C_12  and  N_13
REMARK                            x       y       z     vdW  Elec       q    Type
REMARK                         _______ _______ _______ _____ _____    ______ ____
ROOT
ATOM      1  N   UNL     1      -6.529   1.303   1.512  0.00  0.00    -0.241 N 
ATOM      2  C   UNL     1      -6.541   2.641   1.525  0.00  0.00    +0.224 C 
ATOM      3  O   UNL     1      -5.558   3.350   1.524  0.00  0.00    -0.275 OA
ATOM      4  C   UNL     1      -7.971   3.130   1.536  0.00  0.00    +0.073 C 
ATOM      5  C   UNL     1      -8.279   3.784   2.912  0.00  0.00    -0.054 C 
ATOM      6  C   UNL     1      -8.559   5.284   2.704  0.00  0.00    -0.016 C 
ATOM      7  C   UNL     1     -10.081   5.394   2.491  0.00  0.00    -0.020 C 
ATOM      8  C   UNL     1     -10.603   3.944   2.559  0.00  0.00    -0.076 C 
ATOM      9  C   UNL     1      -9.530   1.802   2.885  0.00  0.00    +0.053 C 
ATOM     10  C   UNL     1      -8.800   1.816   1.538  0.00  0.00    +0.088 C 
ATOM     11  C   UNL     1      -7.741   0.736   1.521  0.00  0.00    +0.225 C 
ATOM     12  O   UNL     1      -7.957  -0.457   1.516  0.00  0.00    -0.275 OA
ATOM     13  C   UNL     1      -8.826   0.924   3.882  0.00  0.00    -0.026 A 
ATOM     14  C   UNL     1      -7.560   0.934   4.424  0.00  0.00    +0.004 A 
ATOM     15  C   UNL     1      -7.192  -0.032   5.343  0.00  0.00    +0.002 A 
ATOM     16  C   UNL     1      -8.099  -1.008   5.715  0.00  0.00    +0.022 A 
ATOM     17  C   UNL     1      -9.369  -1.023   5.175  0.00  0.00    +0.062 A 
ATOM     18  C   UNL     1      -9.747  -0.052   4.249  0.00  0.00    +0.054 A 
ATOM     19  N   UNL     1     -10.954   0.144   3.573  0.00  0.00    -0.285 N 
ATOM     20  C   UNL     1     -10.909   1.212   2.753  0.00  0.00    +0.212 C 
ATOM     21  O   UNL     1     -11.806   1.619   2.045  0.00  0.00    -0.277 OA
ATOM     22 CL   UNL     1     -10.498  -2.252   5.650  0.00  0.00    -0.082 Cl
ATOM     23  H   UNL     1     -11.733  -0.423   3.681  0.00  0.00    +0.155 HD
ATOM     24  N   UNL     1      -9.552   3.215   3.290  0.00  0.00    +0.395 N 
ATOM     25  H   UNL     1      -9.704   3.294   4.302  0.00  0.00    -0.079 HD
ENDROOT
BRANCH   1  26
ATOM     26  C   UNL     1      -5.289   0.522   1.497  0.00  0.00    +0.121 C 
BRANCH  26  27
ATOM     27  C   UNL     1      -4.871   0.257   0.049  0.00  0.00    +0.054 C 
BRANCH  27  31
ATOM     28  C   UNL     1      -1.257  -2.028   0.003  0.00  0.00    +0.161 A 
ATOM     29  C   UNL     1      -2.485  -2.669   0.011  0.00  0.00    +0.049 A 
ATOM     30  C   UNL     1      -3.652  -1.928   0.026  0.00  0.00    +0.007 A 
ATOM     31  C   UNL     1      -3.596  -0.546   0.033  0.00  0.00    -0.042 A 
ATOM     32  C   UNL     1      -2.374   0.099   0.031  0.00  0.00    +0.053 A 
ATOM     33  C   UNL     1      -1.201  -0.638   0.010  0.00  0.00    +0.162 A 
BRANCH  28  35
ATOM     34  C   UNL     1      -0.242  -4.179  -0.018  0.00  0.00    +0.277 C 
ATOM     35  O   UNL     1      -0.108  -2.756  -0.011  0.00  0.00    -0.491 OA
ENDBRANCH  28  35
BRANCH  33  36
ATOM     36  O   UNL     1       0.002  -0.004   0.002  0.00  0.00    -0.491 OA
ATOM     37  C   UNL     1      -0.017   1.425   0.010  0.00  0.00    +0.277 C 
ENDBRANCH  33  36
ENDBRANCH  27  31
ENDBRANCH  26  27
ENDBRANCH   1  26
TORSDOF 5
