REMARK  Name = ZINC36817681
REMARK  8 active torsions:
REMARK  status: ('A' for Active; 'I' for Inactive)
REMARK    1  A    between atoms: C_1  and  C_2
REMARK    2  A    between atoms: C_2  and  C_4
REMARK    3  A    between atoms: C_2  and  S_24
REMARK    4  A    between atoms: C_7  and  C_19
REMARK    5  A    between atoms: C_10  and  C_12
REMARK    6  A    between atoms: S_24  and  C_25
REMARK    7  A    between atoms: C_28  and  C_31
REMARK    8  A    between atoms: N_29  and  N_30
REMARK                            x       y       z     vdW  Elec       q    Type
REMARK                         _______ _______ _______ _____ _____    ______ ____
ROOT
ATOM      1  C   UNL     1       0.731  -0.503   1.223  0.00  0.00    +0.249 C 
ATOM      2  O   UNL     1       1.911  -0.775   1.156  0.00  0.00    -0.273 OA
ATOM      3  N   UNL     1       0.071  -0.647   2.389  0.00  0.00    -0.181 N 
ATOM      4  C   UNL     1       0.661  -1.117   3.653  0.00  0.00    +0.173 C 
ATOM      5  C   UNL     1      -0.525  -1.087   4.638  0.00  0.00    +0.090 C 
ATOM      6  C   UNL     1      -1.681  -0.590   3.800  0.00  0.00    +0.069 C 
ATOM      7  N   UNL     1      -1.278  -0.370   2.597  0.00  0.00    -0.181 NA
ENDROOT
BRANCH   6   8
ATOM      8  C   UNL     1      -3.058  -0.384   4.287  0.00  0.00    -0.002 A 
ATOM      9  C   UNL     1      -3.377  -0.647   5.622  0.00  0.00    +0.011 A 
ATOM     10  C   UNL     1      -4.666  -0.452   6.071  0.00  0.00    +0.020 A 
ATOM     11  C   UNL     1      -5.644   0.003   5.202  0.00  0.00    +0.041 A 
ATOM     12  C   UNL     1      -5.334   0.266   3.878  0.00  0.00    +0.020 A 
ATOM     13  C   UNL     1      -4.048   0.080   3.418  0.00  0.00    +0.011 A 
ATOM     14 CL   UNL     1      -7.264   0.245   5.776  0.00  0.00    -0.084 Cl
ENDBRANCH   6   8
BRANCH   4  15
ATOM     15  C   UNL     1       1.192  -2.519   3.502  0.00  0.00    +0.128 A 
ATOM     16  C   UNL     1       2.323  -2.996   4.054  0.00  0.00    +0.046 A 
ATOM     17  C   UNL     1       2.436  -4.347   3.654  0.00  0.00    +0.041 A 
ATOM     18  C   UNL     1       1.367  -4.616   2.881  0.00  0.00    +0.195 A 
ATOM     19  O   UNL     1       0.615  -3.506   2.798  0.00  0.00    -0.466 OA
ENDBRANCH   4  15
BRANCH   1  21
ATOM     20  C   UNL     1      -0.019   1.526   0.010  0.00  0.00    +0.029 C 
ATOM     21  C   UNL     1       0.002  -0.004   0.002  0.00  0.00    +0.139 C 
BRANCH  21  22
ATOM     22  S   UNL     1       0.851  -0.589  -1.490  0.00  0.00    -0.072 S 
BRANCH  22  23
ATOM     23  C   UNL     1      -0.189  -0.057  -2.809  0.00  0.00    +0.209 A 
ATOM     24  N   UNL     1      -1.313   0.615  -2.693  0.00  0.00    -0.120 NA
ATOM     25  N   UNL     1      -1.816   0.840  -3.853  0.00  0.00    -0.123 NA
ATOM     26  C   UNL     1      -1.044   0.325  -4.785  0.00  0.00    +0.217 A 
ATOM     27  N   UNL     1       0.025  -0.261  -4.144  0.00  0.00    -0.221 N 
BRANCH  26  28
ATOM     28  C   UNL     1      -1.276   0.370  -6.237  0.00  0.00    +0.173 A 
ATOM     29  C   UNL     1      -2.154   1.188  -6.882  0.00  0.00    +0.053 A 
ATOM     30  C   UNL     1      -2.046   0.896  -8.255  0.00  0.00    +0.042 A 
ATOM     31  C   UNL     1      -1.119  -0.074  -8.382  0.00  0.00    +0.196 A 
ATOM     32  O   UNL     1      -0.652  -0.386  -7.162  0.00  0.00    -0.460 OA
ENDBRANCH  26  28
BRANCH  27  33
ATOM     33  N   UNL     1       1.079  -0.912  -4.720  0.00  0.00    -0.294 N 
ATOM     34  H   UNL     1       0.881  -1.896  -4.826  0.00  0.00    +0.163 HD
ATOM     35  H   UNL     1       1.320  -0.494  -5.607  0.00  0.00    +0.163 HD
ENDBRANCH  27  33
ENDBRANCH  22  23
ENDBRANCH  21  22
ENDBRANCH   1  21
TORSDOF 7
