REMARK  Name = ZINC34214256
REMARK  0 active torsions:
REMARK  status: ('A' for Active; 'I' for Inactive)
REMARK                            x       y       z     vdW  Elec       q    Type
REMARK                         _______ _______ _______ _____ _____    ______ ____
ROOT
ATOM      1  C   UNL     1      -0.017   1.392   0.010  0.00  0.00    +0.031 A 
ATOM      2  C   UNL     1       0.002  -0.004   0.002  0.00  0.00    +0.072 A 
ATOM      3  C   UNL     1      -1.172  -0.699   0.009  0.00  0.00    +0.251 A 
ATOM      4  N   UNL     1      -2.365  -0.045   0.024  0.00  0.00    -0.289 N 
ATOM      5  C   UNL     1      -2.415   1.300   0.032  0.00  0.00    +0.270 A 
ATOM      6  O   UNL     1      -3.494   1.870   0.045  0.00  0.00    -0.266 OA
ATOM      7  C   UNL     1      -1.229   2.048   0.030  0.00  0.00    +0.105 A 
ATOM      8  H   UNL     1      -3.191  -0.555   0.029  0.00  0.00    +0.172 HD
ATOM      9 CL   UNL     1      -1.286   3.783   0.041  0.00  0.00    -0.078 Cl
ATOM     10  O   UNL     1      -1.150  -2.051   0.002  0.00  0.00    -0.268 OA
ENDROOT
TORSDOF 0
