REMARK  Name = ZINC09814604
REMARK  9 active torsions:
REMARK  status: ('A' for Active; 'I' for Inactive)
REMARK    1  A    between atoms: C_1  and  C_2
REMARK    2  A    between atoms: C_3  and  C_35
REMARK    3  A    between atoms: N_4  and  C_29
REMARK    4  A    between atoms: C_5  and  N_9
REMARK    5  A    between atoms: C_6  and  C_7
REMARK    6  A    between atoms: C_10  and  C_12
REMARK    7  A    between atoms: C_12  and  N_65
REMARK    8  A    between atoms: C_16  and  C_18
REMARK    9  A    between atoms: C_29  and  C_30
REMARK                            x       y       z     vdW  Elec       q    Type
REMARK                         _______ _______ _______ _____ _____    ______ ____
ROOT
ATOM      1  N   UNL     1      -2.397  -0.428  -1.652  0.00  0.00    -0.272 N 
ATOM      2  C   UNL     1      -2.598   0.176  -0.464  0.00  0.00    +0.202 C 
ATOM      3  O   UNL     1      -1.654   0.593   0.172  0.00  0.00    -0.278 OA
ATOM      4  H   UNL     1      -3.154  -0.684  -2.201  0.00  0.00    +0.156 HD
ENDROOT
BRANCH   1   9
ATOM      5  C   UNL     1       2.553  -1.438  -1.812  0.00  0.00    +0.047 C 
ATOM      6  C   UNL     1       1.127  -1.136  -2.198  0.00  0.00    -0.011 A 
ATOM      7  C   UNL     1       0.645  -1.001  -3.444  0.00  0.00    +0.022 A 
ATOM      8  N   UNL     1      -0.696  -0.731  -3.384  0.00  0.00    -0.324 N 
ATOM      9  C   UNL     1      -1.105  -0.682  -2.091  0.00  0.00    +0.124 A 
ATOM     10  C   UNL     1      -0.004  -0.935  -1.285  0.00  0.00    +0.095 A 
ATOM     11  C   UNL     1       1.454  -1.126  -4.710  0.00  0.00    +0.064 C 
BRANCH  10  12
ATOM     12  C   UNL     1       0.024  -0.984   0.146  0.00  0.00    +0.103 C 
ATOM     13  N   UNL     1       0.046  -1.023   1.281  0.00  0.00    -0.191 NA
ENDBRANCH  10  12
BRANCH   8  14
ATOM     14  C   UNL     1      -1.561  -0.520  -4.547  0.00  0.00    +0.197 C 
BRANCH  14  15
ATOM     15  C   UNL     1      -2.043  -1.851  -5.064  0.00  0.00    +0.124 A 
ATOM     16  C   UNL     1      -3.160  -2.489  -4.672  0.00  0.00    +0.046 A 
ATOM     17  C   UNL     1      -3.224  -3.693  -5.410  0.00  0.00    +0.041 A 
ATOM     18  C   UNL     1      -2.138  -3.722  -6.203  0.00  0.00    +0.195 A 
ATOM     19  O   UNL     1      -1.426  -2.604  -5.989  0.00  0.00    -0.466 OA
ENDBRANCH  14  15
ENDBRANCH   8  14
ENDBRANCH   1   9
BRANCH   2  20
ATOM     20  C   UNL     1      -3.998   0.332   0.073  0.00  0.00    +0.020 C 
BRANCH  20  25
ATOM     21  C   UNL     1      -3.459   0.103   2.437  0.00  0.00    -0.077 C 
ATOM     22  C   UNL     1      -3.961   0.735   3.753  0.00  0.00    -0.020 C 
ATOM     23  C   UNL     1      -5.179   1.590   3.349  0.00  0.00    -0.013 C 
ATOM     24  C   UNL     1      -5.311   1.403   1.822  0.00  0.00    -0.037 C 
ATOM     25  N   UNL     1      -3.966   1.015   1.405  0.00  0.00    +0.390 N 
ATOM     26  H   UNL     1      -3.365   1.845   1.344  0.00  0.00    -0.080 HD
BRANCH  24  27
ATOM     27  C   UNL     1      -5.734   2.693   1.169  0.00  0.00    -0.057 A 
ATOM     28  C   UNL     1      -4.819   3.718   1.011  0.00  0.00    +0.006 A 
ATOM     29  C   UNL     1      -5.199   4.905   0.411  0.00  0.00    +0.049 A 
ATOM     30  C   UNL     1      -6.501   5.064  -0.032  0.00  0.00    +0.162 A 
ATOM     31  C   UNL     1      -7.420   4.036   0.127  0.00  0.00    +0.162 A 
ATOM     32  C   UNL     1      -7.035   2.847   0.723  0.00  0.00    +0.051 A 
ATOM     33  O   UNL     1      -8.701   4.203  -0.312  0.00  0.00    -0.488 OA
ATOM     34  C   UNL     1      -9.487   5.159   0.403  0.00  0.00    +0.232 C 
ATOM     35  C   UNL     1      -9.241   6.563  -0.126  0.00  0.00    +0.082 C 
ATOM     36  C   UNL     1      -7.814   7.030   0.112  0.00  0.00    +0.232 C 
ATOM     37  O   UNL     1      -6.889   6.229  -0.626  0.00  0.00    -0.488 OA
ENDBRANCH  24  27
ENDBRANCH  20  25
ENDBRANCH   2  20
TORSDOF 7
