REMARK  Name = ZINC04802250
REMARK  7 active torsions:
REMARK  status: ('A' for Active; 'I' for Inactive)
REMARK    1  A    between atoms: C_1  and  N_56
REMARK    2  A    between atoms: C_9  and  O_31
REMARK    3  A    between atoms: C_14  and  O_29
REMARK    4  A    between atoms: C_23  and  O_28
REMARK    5  A    between atoms: C_26  and  O_27
REMARK    6  A    between atoms: O_29  and  C_30
REMARK    7  A    between atoms: O_31  and  C_32
REMARK                            x       y       z     vdW  Elec       q    Type
REMARK                         _______ _______ _______ _____ _____    ______ ____
ROOT
ATOM      1  C   UNL     1      -0.951   8.329   0.532  0.00  0.00    -0.096 C 
ATOM      2  C   UNL     1      -1.651   6.390  -0.743  0.00  0.00    -0.078 C 
ATOM      3  C   UNL     1      -2.592   5.183  -0.743  0.00  0.00    -0.002 C 
ATOM      4  C   UNL     1      -2.330   4.283   0.435  0.00  0.00    +0.050 C 
ATOM      5  C   UNL     1      -0.976   3.635   0.438  0.00  0.00    +0.012 A 
ATOM      6  C   UNL     1       0.201   4.285   0.749  0.00  0.00    -0.041 A 
ATOM      7  C   UNL     1       1.344   3.518   0.627  0.00  0.00    +0.007 A 
ATOM      8  C   UNL     1       1.247   2.176   0.292  0.00  0.00    +0.050 A 
ATOM      9  C   UNL     1       0.036   1.513   0.108  0.00  0.00    +0.162 A 
ATOM     10  C   UNL     1      -1.131   2.281   0.217  0.00  0.00    +0.167 A 
ATOM     11  O   UNL     1      -2.435   1.942   0.245  0.00  0.00    -0.480 OA
ATOM     12  C   UNL     1      -3.276   3.082   0.504  0.00  0.00    +0.225 C 
ATOM     13  C   UNL     1      -3.865   3.021   1.928  0.00  0.00    +0.153 C 
ATOM     14  C   UNL     1      -2.673   2.993   2.888  0.00  0.00    +0.013 C 
ATOM     15  C   UNL     1      -1.858   4.047   2.812  0.00  0.00    -0.017 C 
ATOM     16  C   UNL     1      -2.280   5.071   1.761  0.00  0.00    +0.019 C 
ATOM     17  C   UNL     1      -1.263   6.174   1.622  0.00  0.00    -0.049 C 
ATOM     18  C   UNL     1       0.133   5.707   1.197  0.00  0.00    +0.021 C 
ATOM     19  C   UNL     1      -3.686   5.468   2.085  0.00  0.00    +0.013 A 
ATOM     20  C   UNL     1      -4.542   4.361   2.170  0.00  0.00    +0.040 A 
ATOM     21  C   UNL     1      -5.870   4.530   2.451  0.00  0.00    +0.124 A 
ATOM     22  C   UNL     1      -6.361   5.819   2.651  0.00  0.00    +0.049 A 
ATOM     23  C   UNL     1      -5.516   6.909   2.570  0.00  0.00    +0.049 A 
ATOM     24  C   UNL     1      -4.164   6.733   2.284  0.00  0.00    +0.121 A 
ATOM     25  N   UNL     1      -1.755   7.077   0.555  0.00  0.00    +0.381 N 
ATOM     26  H   UNL     1      -2.737   7.312   0.737  0.00  0.00    -0.082 HD
ENDROOT
BRANCH  24  27
ATOM     27  O   UNL     1      -3.331   7.805   2.204  0.00  0.00    -0.506 OA
ATOM     28  H   UNL     1      -3.264   8.186   1.317  0.00  0.00    +0.292 HD
ENDBRANCH  24  27
BRANCH  21  29
ATOM     29  O   UNL     1      -6.700   3.455   2.532  0.00  0.00    -0.506 OA
ATOM     30  H   UNL     1      -6.827   3.124   3.432  0.00  0.00    +0.292 HD
ENDBRANCH  21  29
BRANCH  13  31
ATOM     31  O   UNL     1      -4.755   1.917   2.105  0.00  0.00    -0.364 OA
ATOM     32  C   UNL     1      -4.123   0.639   2.006  0.00  0.00    +0.195 C 
ENDBRANCH  13  31
BRANCH   9  33
ATOM     33  O   UNL     1      -0.011   0.182  -0.169  0.00  0.00    -0.491 OA
ATOM     34  C   UNL     1       1.237  -0.506  -0.263  0.00  0.00    +0.277 C 
ENDBRANCH   9  33
TORSDOF 4
