REMARK  Name = ZINC01326487
REMARK  4 active torsions:
REMARK  status: ('A' for Active; 'I' for Inactive)
REMARK    1  A    between atoms: C_3  and  N_8
REMARK    2  A    between atoms: C_9  and  C_11
REMARK    3  A    between atoms: C_15  and  C_26
REMARK    4  A    between atoms: C_18  and  C_22
REMARK                            x       y       z     vdW  Elec       q    Type
REMARK                         _______ _______ _______ _____ _____    ______ ____
ROOT
ATOM      1  C   UNL     1       6.022   2.232   0.169  0.00  0.00    +0.110 C 
ATOM      2  C   UNL     1       6.125   3.584   0.191  0.00  0.00    +0.072 C 
ATOM      3  C   UNL     1       7.547   3.908   0.300  0.00  0.00    +0.114 C 
ATOM      4  N   UNL     1       8.139   5.068   0.347  0.00  0.00    -0.362 N 
ATOM      5  C   UNL     1       9.604   5.118   0.420  0.00  0.00    +0.149 C 
ATOM      6  C   UNL     1      10.146   3.912   1.188  0.00  0.00    +0.065 C 
ATOM      7  C   UNL     1       9.683   2.614   0.508  0.00  0.00    +0.202 C 
ATOM      8  N   UNL     1       8.226   2.697   0.358  0.00  0.00    -0.226 N 
ATOM      9  N   UNL     1       7.287   1.677   0.263  0.00  0.00    -0.258 N 
ATOM     10  H   UNL     1       7.487   0.727   0.261  0.00  0.00    +0.170 HD
ATOM     11  H   UNL     1       7.619   5.886   0.333  0.00  0.00    +0.162 HD
ENDROOT
BRANCH   5  12
ATOM     12  C   UNL     1      10.023   6.383   1.123  0.00  0.00    +0.127 A 
ATOM     13  C   UNL     1      11.061   7.168   0.779  0.00  0.00    +0.047 A 
ATOM     14  C   UNL     1      11.088   8.238   1.702  0.00  0.00    +0.041 A 
ATOM     15  C   UNL     1      10.066   8.044   2.555  0.00  0.00    +0.195 A 
ATOM     16  O   UNL     1       9.421   6.922   2.196  0.00  0.00    -0.466 OA
ENDBRANCH   5  12
BRANCH   1  18
ATOM     17  N   UNL     1       3.583   2.126  -0.021  0.00  0.00    -0.280 N 
ATOM     18  C   UNL     1       4.758   1.472   0.066  0.00  0.00    +0.264 C 
ATOM     19  O   UNL     1       4.779   0.256   0.060  0.00  0.00    -0.268 OA
ATOM     20  H   UNL     1       3.570   3.094  -0.084  0.00  0.00    +0.155 HD
BRANCH  17  23
ATOM     21  C   UNL     1       0.070   1.231   0.594  0.00  0.00    +0.005 A 
ATOM     22  C   UNL     1       1.256   1.940   0.595  0.00  0.00    +0.023 A 
ATOM     23  C   UNL     1       2.382   1.410  -0.021  0.00  0.00    +0.036 A 
ATOM     24  C   UNL     1       2.313   0.167  -0.637  0.00  0.00    +0.061 A 
ATOM     25  C   UNL     1       1.124  -0.538  -0.636  0.00  0.00    +0.125 A 
ATOM     26  C   UNL     1       0.003  -0.006  -0.020  0.00  0.00    +0.038 A 
ATOM     27  F   UNL     1       1.055  -1.747  -1.235  0.00  0.00    -0.205 F 
ENDBRANCH  17  23
ENDBRANCH   1  18
BRANCH   7  28
ATOM     28  C   UNL     1      10.051   1.410   1.379  0.00  0.00    +0.410 C 
ATOM     29  F   UNL     1       9.425   1.527   2.624  0.00  0.00    -0.169 F 
ATOM     30  F   UNL     1       9.626   0.234   0.751  0.00  0.00    -0.169 F 
ATOM     31  F   UNL     1      11.438   1.369   1.556  0.00  0.00    -0.169 F 
ENDBRANCH   7  28
TORSDOF 4
