REMARK  Name = ZINC59461796
REMARK  9 active torsions:
REMARK  status: ('A' for Active; 'I' for Inactive)
REMARK    1  A    between atoms: C_1  and  C_2
REMARK    2  A    between atoms: C_3  and  C_11
REMARK    3  A    between atoms: C_4  and  O_10
REMARK    4  A    between atoms: N_5  and  C_7
REMARK    5  A    between atoms: C_7  and  N_9
REMARK    6  A    between atoms: C_11  and  C_13
REMARK    7  A    between atoms: C_11  and  C_20
REMARK    8  A    between atoms: C_20  and  C_22
REMARK    9  A    between atoms: C_20  and  C_24
REMARK                            x       y       z     vdW  Elec       q    Type
REMARK                         _______ _______ _______ _____ _____    ______ ____
ROOT
ATOM      1  C   UNL     1      -0.058  -0.363  -2.662  0.00  0.00    +0.082 C 
ENDROOT
BRANCH   1   2
ATOM      2  C   UNL     1       1.313  -0.630  -3.228  0.00  0.00    -0.038 A 
ATOM      3  C   UNL     1       1.776  -1.928  -3.334  0.00  0.00    +0.005 A 
ATOM      4  C   UNL     1       3.033  -2.174  -3.854  0.00  0.00    +0.015 A 
ATOM      5  C   UNL     1       3.828  -1.120  -4.268  0.00  0.00    +0.018 A 
ATOM      6  C   UNL     1       3.364   0.179  -4.161  0.00  0.00    +0.015 A 
ATOM      7  C   UNL     1       2.105   0.423  -3.646  0.00  0.00    +0.005 A 
ATOM      8 BR   UNL     1       5.548  -1.455  -4.979  0.00  0.00    -0.050 Br
ENDBRANCH   1   2
BRANCH   1  11
ATOM      9  C   UNL     1      -0.397   1.757  -0.333  0.00  0.00    +0.068 C 
ATOM     10  C   UNL     1      -0.208   0.273  -0.154  0.00  0.00    +0.068 A 
ATOM     11  C   UNL     1      -0.058  -0.663  -1.185  0.00  0.00    +0.046 A 
ATOM     12  C   UNL     1       0.087  -1.888  -0.618  0.00  0.00    +0.221 A 
ATOM     13  N   UNL     1       0.029  -1.723   0.735  0.00  0.00    -0.179 N 
ATOM     14  N   UNL     1      -0.151  -0.357   0.990  0.00  0.00    -0.167 NA
BRANCH  13  15
ATOM     15  C   UNL     1       0.131  -2.697   1.660  0.00  0.00    +0.167 C 
ATOM     16  S   UNL     1       0.356  -4.322   1.170  0.00  0.00    -0.014 S 
BRANCH  15  17
ATOM     17  N   UNL     1       0.056  -2.393   2.970  0.00  0.00    -0.337 N 
ATOM     18  H   UNL     1      -0.072  -1.472   3.248  0.00  0.00    +0.144 HD
ATOM     19  H   UNL     1       0.130  -3.095   3.636  0.00  0.00    +0.144 HD
ENDBRANCH  15  17
ENDBRANCH  13  15
BRANCH  12  20
ATOM     20  O   UNL     1       0.257  -3.062  -1.277  0.00  0.00    -0.492 OA
ATOM     21  H   UNL     1       1.181  -3.334  -1.363  0.00  0.00    +0.294 HD
ENDBRANCH  12  20
ENDBRANCH   1  11
BRANCH   1  22
ATOM     22  C   UNL     1      -1.083  -1.256  -3.364  0.00  0.00    +0.189 C 
BRANCH  22  23
ATOM     23  C   UNL     1      -1.082  -0.956  -4.840  0.00  0.00    +0.228 C 
ATOM     24  O   UNL     1      -2.095  -0.564  -5.380  0.00  0.00    -0.275 OA
ATOM     25  N   UNL     1       0.044  -1.123  -5.562  0.00  0.00    -0.328 N 
ATOM     26  H   UNL     1       0.854  -1.437  -5.130  0.00  0.00    +0.145 HD
ATOM     27  H   UNL     1       0.044  -0.930  -6.512  0.00  0.00    +0.145 HD
ENDBRANCH  22  23
BRANCH  22  28
ATOM     28  C   UNL     1      -2.421  -0.995  -2.811  0.00  0.00    +0.076 C 
ATOM     29  N   UNL     1      -3.455  -0.794  -2.384  0.00  0.00    -0.196 NA
ENDBRANCH  22  28
ENDBRANCH   1  22
TORSDOF 8
