REMARK  Name = ZINC16976670
REMARK  4 active torsions:
REMARK  status: ('A' for Active; 'I' for Inactive)
REMARK    1  A    between atoms: C_1  and  C_2
REMARK    2  A    between atoms: C_6  and  N_9
REMARK    3  A    between atoms: C_7  and  C_8
REMARK    4  A    between atoms: C_16  and  N_32
REMARK                            x       y       z     vdW  Elec       q    Type
REMARK                         _______ _______ _______ _____ _____    ______ ____
ROOT
ATOM      1  N   UNL     1       0.051  -2.796   2.390  0.00  0.00    -0.326 N 
ATOM      2  C   UNL     1      -1.215  -3.173   2.997  0.00  0.00    +0.124 C 
ATOM      3  C   UNL     1      -1.189  -4.607   3.483  0.00  0.00    +0.124 C 
ATOM      4  N   UNL     1       0.089  -4.987   4.081  0.00  0.00    -0.322 N 
ATOM      5  C   UNL     1       0.031  -5.882   5.169  0.00  0.00    +0.033 A 
ATOM      6  C   UNL     1      -1.219  -6.254   5.656  0.00  0.00    +0.025 A 
ATOM      7  C   UNL     1      -1.314  -7.137   6.712  0.00  0.00    +0.024 A 
ATOM      8  C   UNL     1      -0.163  -7.656   7.289  0.00  0.00    +0.025 A 
ATOM      9  C   UNL     1       1.084  -7.281   6.806  0.00  0.00    +0.028 A 
ATOM     10  C   UNL     1       1.177  -6.391   5.751  0.00  0.00    -0.023 A 
ATOM     11  C   UNL     1       2.535  -5.973   5.252  0.00  0.00    +0.064 C 
ATOM     12  C   UNL     1       2.436  -4.559   4.675  0.00  0.00    +0.147 C 
ATOM     13  C   UNL     1       1.369  -4.531   3.571  0.00  0.00    +0.115 C 
ATOM     14  C   UNL     1       1.329  -3.133   2.985  0.00  0.00    +0.129 C 
ATOM     15  C   UNL     1       3.763  -4.168   4.086  0.00  0.00    +0.238 C 
ATOM     16  N   UNL     1       4.445  -3.099   4.521  0.00  0.00    -0.239 N 
ATOM     17  C   UNL     1       3.983  -2.314   5.506  0.00  0.00    +0.312 C 
ATOM     18  N   UNL     1       2.811  -2.562   6.110  0.00  0.00    -0.239 N 
ATOM     19  C   UNL     1       2.040  -3.602   5.765  0.00  0.00    +0.238 C 
ATOM     20  O   UNL     1       0.992  -3.776   6.349  0.00  0.00    -0.274 OA
ATOM     21  O   UNL     1       4.643  -1.357   5.860  0.00  0.00    -0.252 OA
ATOM     22  O   UNL     1       4.230  -4.839   3.192  0.00  0.00    -0.274 OA
ATOM     23  H   UNL     1       5.298  -2.887   4.111  0.00  0.00    +0.159 HD
ATOM     24  H   UNL     1       2.513  -1.970   6.819  0.00  0.00    +0.159 HD
ENDROOT
BRANCH   1  30
ATOM     25  C   UNL     1      -0.018   1.503   0.010  0.00  0.00    +0.044 C 
ATOM     26  C   UNL     1       0.002  -0.004   0.002  0.00  0.00    -0.046 A 
ATOM     27  C   UNL     1       0.006  -0.688  -1.200  0.00  0.00    +0.004 A 
ATOM     28  C   UNL     1       0.024  -2.071  -1.212  0.00  0.00    +0.002 A 
ATOM     29  C   UNL     1       0.039  -2.773  -0.023  0.00  0.00    +0.023 A 
ATOM     30  C   UNL     1       0.036  -2.089   1.186  0.00  0.00    +0.033 A 
ATOM     31  C   UNL     1       0.023  -0.700   1.194  0.00  0.00    -0.027 A 
ATOM     32  C   UNL     1       0.025   0.046   2.504  0.00  0.00    +0.046 C 
ENDBRANCH   1  30
BRANCH   8  33
ATOM     33  N   UNL     1      -0.258  -8.556   8.357  0.00  0.00    -0.358 N 
ATOM     34  H   UNL     1      -1.129  -8.817   8.695  0.00  0.00    +0.142 HD
ATOM     35  H   UNL     1       0.547  -8.918   8.760  0.00  0.00    +0.142 HD
ENDBRANCH   8  33
TORSDOF 2
