REMARK  Name = ZINC15616107
REMARK  10 active torsions:
REMARK  status: ('A' for Active; 'I' for Inactive)
REMARK    1  A    between atoms: C_1  and  O_2
REMARK    2  A    between atoms: O_2  and  C_3
REMARK    3  A    between atoms: C_8  and  N_9
REMARK    4  A    between atoms: N_9  and  S_10
REMARK    5  A    between atoms: S_10  and  C_13
REMARK    6  A    between atoms: C_16  and  C_19
REMARK    7  A    between atoms: C_20  and  C_21
REMARK    8  A    between atoms: N_23  and  C_24
REMARK    9  A    between atoms: C_24  and  C_25
REMARK   10  A    between atoms: C_25  and  C_26
REMARK                            x       y       z     vdW  Elec       q    Type
REMARK                         _______ _______ _______ _____ _____    ______ ____
ROOT
ATOM      1  C   UNL     1      -8.766  -6.072  -3.571  0.00  0.00    +0.109 A 
ATOM      2  C   UNL     1      -8.299  -5.487  -4.735  0.00  0.00    +0.029 A 
ATOM      3  C   UNL     1      -7.250  -4.593  -4.689  0.00  0.00    +0.010 A 
ATOM      4  C   UNL     1      -6.658  -4.279  -3.462  0.00  0.00    -0.025 A 
ATOM      5  C   UNL     1      -7.132  -4.879  -2.291  0.00  0.00    +0.010 A 
ATOM      6  C   UNL     1      -8.185  -5.767  -2.353  0.00  0.00    +0.029 A 
ENDROOT
BRANCH   1   7
ATOM      7  S   UNL     1     -10.107  -7.213  -3.641  0.00  0.00    +0.072 S 
ATOM      8  O   UNL     1     -10.714  -7.206  -2.356  0.00  0.00    -0.150 OA
ATOM      9  O   UNL     1     -10.832  -6.915  -4.827  0.00  0.00    -0.150 OA
BRANCH   7  10
ATOM     10  N   UNL     1      -9.457  -8.721  -3.850  0.00  0.00    -0.213 N 
ATOM     11  H   UNL     1      -9.681  -9.242  -4.637  0.00  0.00    +0.174 HD
BRANCH  10  17
ATOM     12  C   UNL     1      -7.510 -10.041  -3.282  0.00  0.00    +0.142 A 
ATOM     13  C   UNL     1      -6.649 -10.557  -2.328  0.00  0.00    +0.047 A 
ATOM     14  C   UNL     1      -6.857 -10.283  -0.988  0.00  0.00    +0.004 A 
ATOM     15  C   UNL     1      -7.923  -9.494  -0.598  0.00  0.00    +0.002 A 
ATOM     16  C   UNL     1      -8.784  -8.971  -1.544  0.00  0.00    +0.028 A 
ATOM     17  C   UNL     1      -8.584  -9.246  -2.889  0.00  0.00    +0.090 A 
BRANCH  12  19
ATOM     18  C   UNL     1      -6.185 -11.131  -4.929  0.00  0.00    +0.277 C 
ATOM     19  O   UNL     1      -7.306 -10.309  -4.600  0.00  0.00    -0.493 OA
ENDBRANCH  12  19
ENDBRANCH  10  17
ENDBRANCH   7  10
ENDBRANCH   1   7
BRANCH   4  20
ATOM     20  C   UNL     1      -5.537  -3.326  -3.403  0.00  0.00    +0.013 C 
ATOM     21  C   UNL     1      -4.969  -3.026  -2.219  0.00  0.00    +0.068 C 
BRANCH  21  22
ATOM     22  C   UNL     1      -3.854  -2.078  -2.160  0.00  0.00    +0.237 C 
ATOM     23  O   UNL     1      -3.441  -1.561  -3.182  0.00  0.00    -0.271 OA
ATOM     24  N   UNL     1      -3.286  -1.778  -0.976  0.00  0.00    -0.312 N 
ATOM     25  H   UNL     1      -3.615  -2.190  -0.162  0.00  0.00    +0.149 HD
BRANCH  24  26
ATOM     26  C   UNL     1      -2.171  -0.830  -0.918  0.00  0.00    +0.109 C 
BRANCH  26  27
ATOM     27  C   UNL     1      -1.714  -0.668   0.533  0.00  0.00    +0.056 C 
BRANCH  27  28
ATOM     28  C   UNL     1      -0.567   0.308   0.593  0.00  0.00    -0.021 A 
ATOM     29  C   UNL     1       0.741   0.004   0.590  0.00  0.00    +0.087 A 
ATOM     30  N   UNL     1       1.486   1.149   0.656  0.00  0.00    -0.360 N 
ATOM     31  H   UNL     1       2.456   1.183   0.667  0.00  0.00    +0.165 HD
ATOM     32  C   UNL     1       0.656   2.246   0.703  0.00  0.00    +0.047 A 
ATOM     33  C   UNL     1      -0.667   1.767   0.666  0.00  0.00    +0.003 A 
ATOM     34  C   UNL     1      -1.734   2.666   0.706  0.00  0.00    +0.010 A 
ATOM     35  C   UNL     1      -1.489   4.008   0.772  0.00  0.00    +0.001 A 
ATOM     36  C   UNL     1      -0.186   4.486   0.809  0.00  0.00    +0.002 A 
ATOM     37  C   UNL     1       0.882   3.617   0.775  0.00  0.00    +0.026 A 
ENDBRANCH  27  28
ENDBRANCH  26  27
ENDBRANCH  24  26
ENDBRANCH  21  22
ENDBRANCH   4  20
TORSDOF 9
