REMARK  Name = ZINC11619742
REMARK  9 active torsions:
REMARK  status: ('A' for Active; 'I' for Inactive)
REMARK    1  A    between atoms: C_1  and  C_2
REMARK    2  A    between atoms: C_3  and  N_9
REMARK    3  A    between atoms: C_10  and  C_12
REMARK    4  A    between atoms: C_12  and  N_13
REMARK    5  A    between atoms: C_14  and  C_16
REMARK    6  A    between atoms: C_16  and  N_17
REMARK    7  A    between atoms: N_17  and  C_18
REMARK    8  A    between atoms: C_23  and  S_24
REMARK    9  A    between atoms: S_24  and  C_25
REMARK                            x       y       z     vdW  Elec       q    Type
REMARK                         _______ _______ _______ _____ _____    ______ ____
ROOT
ATOM      1  N   UNL     1      -1.365   6.115  -0.777  0.00  0.00    -0.305 N 
ATOM      2  C   UNL     1      -1.630   7.437  -0.771  0.00  0.00    +0.231 C 
ATOM      3  O   UNL     1      -0.719   8.238  -0.775  0.00  0.00    -0.274 OA
ATOM      4  H   UNL     1      -2.094   5.475  -0.774  0.00  0.00    +0.149 HD
ENDROOT
BRANCH   1   5
ATOM      5  C   UNL     1       0.022   5.646  -0.787  0.00  0.00    +0.200 C 
BRANCH   5   7
ATOM      6  N   UNL     1       1.220   3.482  -0.802  0.00  0.00    -0.284 N 
ATOM      7  C   UNL     1       0.043   4.139  -0.792  0.00  0.00    +0.234 C 
ATOM      8  O   UNL     1      -0.999   3.518  -0.787  0.00  0.00    -0.274 OA
ATOM      9  H   UNL     1       2.052   3.975  -0.727  0.00  0.00    +0.155 HD
BRANCH   6  12
ATOM     10  C   UNL     1       3.481   2.082   0.211  0.00  0.00    +0.047 C 
ATOM     11  C   UNL     1       2.325   1.365  -0.438  0.00  0.00    -0.011 A 
ATOM     12  C   UNL     1       1.241   2.087  -0.919  0.00  0.00    +0.038 A 
ATOM     13  C   UNL     1       0.178   1.424  -1.518  0.00  0.00    +0.023 A 
ATOM     14  C   UNL     1       0.201   0.047  -1.633  0.00  0.00    +0.003 A 
ATOM     15  C   UNL     1       1.281  -0.670  -1.153  0.00  0.00    +0.020 A 
ATOM     16  C   UNL     1       2.343  -0.012  -0.556  0.00  0.00    +0.046 A 
ATOM     17 CL   UNL     1       3.697  -0.916   0.044  0.00  0.00    -0.083 Cl
ENDBRANCH   6  12
ENDBRANCH   5   7
ENDBRANCH   1   5
BRANCH   2  18
ATOM     18  C   UNL     1      -3.058   7.919  -0.760  0.00  0.00    +0.197 C 
BRANCH  18  19
ATOM     19  N   UNL     1      -3.078   9.384  -0.756  0.00  0.00    -0.335 N 
ATOM     20  H   UNL     1      -2.245   9.881  -0.760  0.00  0.00    +0.147 HD
BRANCH  19  21
ATOM     21  C   UNL     1      -4.300  10.067  -0.746  0.00  0.00    +0.041 A 
ATOM     22  C   UNL     1      -5.492   9.359  -0.740  0.00  0.00    +0.024 A 
ATOM     23  C   UNL     1      -6.698  10.036  -0.730  0.00  0.00    +0.002 A 
ATOM     24  C   UNL     1      -6.720  11.418  -0.726  0.00  0.00    +0.001 A 
ATOM     25  C   UNL     1      -5.536  12.133  -0.731  0.00  0.00    +0.017 A 
ATOM     26  C   UNL     1      -4.322  11.462  -0.736  0.00  0.00    +0.034 A 
BRANCH  26  27
ATOM     27  S   UNL     1      -2.811  12.369  -0.736  0.00  0.00    -0.088 S 
BRANCH  27  28
ATOM     28  C   UNL     1      -2.210  12.197   0.911  0.00  0.00    +0.013 A 
ATOM     29  C   UNL     1      -2.986  11.562   1.873  0.00  0.00    +0.015 A 
ATOM     30  C   UNL     1      -2.510  11.424   3.162  0.00  0.00    +0.001 A 
ATOM     31  C   UNL     1      -1.267  11.927   3.499  0.00  0.00    +0.000 A 
ATOM     32  C   UNL     1      -0.494  12.565   2.546  0.00  0.00    +0.001 A 
ATOM     33  C   UNL     1      -0.961  12.702   1.254  0.00  0.00    +0.015 A 
ENDBRANCH  27  28
ENDBRANCH  26  27
ENDBRANCH  19  21
ENDBRANCH  18  19
ENDBRANCH   2  18
TORSDOF 8
