REMARK  Name = ZINC44248601
REMARK  6 active torsions:
REMARK  status: ('A' for Active; 'I' for Inactive)
REMARK    1  A    between atoms: C_3  and  O_10
REMARK    2  A    between atoms: C_6  and  C_7
REMARK    3  A    between atoms: C_7  and  C_8
REMARK    4  A    between atoms: C_8  and  N_9
REMARK    5  A    between atoms: O_10  and  S_11
REMARK    6  A    between atoms: S_11  and  C_14
REMARK                            x       y       z     vdW  Elec       q    Type
REMARK                         _______ _______ _______ _____ _____    ______ ____
ROOT
ATOM      1  C   UNL     1      -0.017   1.378   0.010  0.00  0.00    +0.007 A 
ATOM      2  C   UNL     1       1.169   2.087   0.002  0.00  0.00    +0.049 A 
ATOM      3  C   UNL     1       2.380   1.409  -0.013  0.00  0.00    +0.157 A 
ATOM      4  C   UNL     1       2.396   0.022  -0.021  0.00  0.00    +0.049 A 
ATOM      5  C   UNL     1       1.207  -0.681  -0.013  0.00  0.00    +0.007 A 
ATOM      6  C   UNL     1       0.002  -0.004   0.002  0.00  0.00    -0.049 A 
ENDROOT
BRANCH   6   7
ATOM      7  C   UNL     1      -1.293  -0.774   0.011  0.00  0.00    +0.015 C 
BRANCH   7   8
ATOM      8  C   UNL     1      -1.746  -1.027  -1.429  0.00  0.00    -0.082 C 
BRANCH   8   9
ATOM      9  N   UNL     1      -3.009  -1.777  -1.420  0.00  0.00    +0.378 N 
ATOM     10  H   UNL     1      -2.872  -2.660  -0.951  0.00  0.00    -0.090 HD
ATOM     11  H   UNL     1      -3.714  -1.244  -0.935  0.00  0.00    -0.090 HD
ATOM     12  H   UNL     1      -3.307  -1.944  -2.370  0.00  0.00    -0.090 HD
ENDBRANCH   8   9
ENDBRANCH   7   8
ENDBRANCH   6   7
BRANCH   3  13
ATOM     13  O   UNL     1       3.548   2.104  -0.021  0.00  0.00    -0.342 OA
BRANCH  13  14
ATOM     14  S   UNL     1       4.094   2.413   1.366  0.00  0.00    +0.151 S 
ATOM     15  O   UNL     1       5.184   3.307   1.183  0.00  0.00    -0.131 OA
ATOM     16  O   UNL     1       2.975   2.733   2.181  0.00  0.00    -0.131 OA
BRANCH  14  17
ATOM     17  C   UNL     1       4.771   0.917   2.005  0.00  0.00    +0.131 A 
ATOM     18  C   UNL     1       3.973   0.052   2.730  0.00  0.00    +0.050 A 
ATOM     19  C   UNL     1       4.504  -1.123   3.232  0.00  0.00    +0.044 A 
ATOM     20  C   UNL     1       5.834  -1.431   3.009  0.00  0.00    +0.040 A 
ATOM     21  C   UNL     1       6.632  -0.566   2.283  0.00  0.00    +0.044 A 
ATOM     22  C   UNL     1       6.098   0.606   1.776  0.00  0.00    +0.050 A 
ATOM     23 CL   UNL     1       8.301  -0.952   2.002  0.00  0.00    -0.083 Cl
ATOM     24 CL   UNL     1       3.502  -2.208   4.144  0.00  0.00    -0.083 Cl
ENDBRANCH  14  17
ENDBRANCH  13  14
ENDBRANCH   3  13
TORSDOF 6
