REMARK  Name = ZINC01171822
REMARK  14 active torsions:
REMARK  status: ('A' for Active; 'I' for Inactive)
REMARK    1  A    between atoms: C_1  and  C_2
REMARK    2  A    between atoms: C_2  and  C_3
REMARK    3  A    between atoms: C_6  and  N_9
REMARK    4  A    between atoms: C_10  and  C_12
REMARK    5  A    between atoms: C_12  and  S_13
REMARK    6  A    between atoms: S_13  and  C_14
REMARK    7  A    between atoms: C_15  and  C_38
REMARK    8  A    between atoms: C_16  and  C_28
REMARK    9  A    between atoms: C_22  and  C_26
REMARK   10  A    between atoms: C_22  and  C_27
REMARK   11  A    between atoms: C_31  and  O_36
REMARK   12  A    between atoms: C_32  and  O_34
REMARK   13  A    between atoms: O_34  and  C_35
REMARK   14  A    between atoms: O_36  and  C_37
REMARK                            x       y       z     vdW  Elec       q    Type
REMARK                         _______ _______ _______ _____ _____    ______ ____
ROOT
ATOM      1  C   UNL     1       3.675   8.025   0.462  0.00  0.00    +0.080 C 
ATOM      2  C   UNL     1       4.711   8.898   0.573  0.00  0.00    +0.069 C 
ATOM      3  C   UNL     1       4.471  10.376   0.672  0.00  0.00    +0.097 C 
ATOM      4  C   UNL     1       3.047  10.668   1.074  0.00  0.00    +0.024 C 
ATOM      5  C   UNL     1       2.083   9.733   0.941  0.00  0.00    +0.016 C 
ATOM      6  N   UNL     1       2.380   8.488   0.457  0.00  0.00    -0.311 N 
ATOM      7  C   UNL     1       0.653  10.033   1.319  0.00  0.00    +0.058 C 
ATOM      8  C   UNL     1       0.627  11.044   2.467  0.00  0.00    -0.023 C 
ATOM      9  C   UNL     1       1.360  12.311   2.016  0.00  0.00    +0.086 C 
ATOM     10  C   UNL     1       2.754  11.944   1.587  0.00  0.00    +0.162 C 
ATOM     11  O   UNL     1       3.644  12.766   1.685  0.00  0.00    -0.292 OA
ATOM     12  C   UNL     1       1.330  10.451   3.690  0.00  0.00    +0.011 C 
ATOM     13  C   UNL     1      -0.821  11.387   2.823  0.00  0.00    +0.011 C 
ATOM     14  H   UNL     1       1.571   7.856   0.060  0.00  0.00    +0.152 HD
ENDROOT
BRANCH   3  15
ATOM     15  C   UNL     1       4.749  11.016  -0.664  0.00  0.00    -0.031 A 
ATOM     16  C   UNL     1       4.006  10.651  -1.771  0.00  0.00    +0.008 A 
ATOM     17  C   UNL     1       4.254  11.239  -2.998  0.00  0.00    +0.050 A 
ATOM     18  C   UNL     1       5.255  12.188  -3.121  0.00  0.00    +0.162 A 
ATOM     19  C   UNL     1       6.006  12.552  -2.007  0.00  0.00    +0.162 A 
ATOM     20  C   UNL     1       5.750  11.962  -0.780  0.00  0.00    +0.054 A 
BRANCH  19  21
ATOM     21  O   UNL     1       6.991  13.483  -2.124  0.00  0.00    -0.491 OA
ATOM     22  C   UNL     1       7.721  13.806  -0.939  0.00  0.00    +0.277 C 
ENDBRANCH  19  21
BRANCH  18  23
ATOM     23  O   UNL     1       5.504  12.764  -4.328  0.00  0.00    -0.491 OA
ATOM     24  C   UNL     1       4.693  12.342  -5.427  0.00  0.00    +0.277 C 
ENDBRANCH  18  23
ENDBRANCH   3  15
BRANCH   2  25
ATOM     25  C   UNL     1       6.054   8.400   0.591  0.00  0.00    +0.098 C 
ATOM     26  N   UNL     1       7.119   8.005   0.605  0.00  0.00    -0.191 NA
ENDBRANCH   2  25
BRANCH   1  27
ATOM     27  S   UNL     1       3.991   6.296   0.332  0.00  0.00    -0.100 S 
BRANCH  27  28
ATOM     28  C   UNL     1       2.295   5.673   0.225  0.00  0.00    +0.171 C 
BRANCH  28  30
ATOM     29  N   UNL     1       1.162   3.485   0.009  0.00  0.00    -0.285 N 
ATOM     30  C   UNL     1       2.318   4.171   0.104  0.00  0.00    +0.227 C 
ATOM     31  O   UNL     1       3.377   3.580   0.091  0.00  0.00    -0.275 OA
ATOM     32  H   UNL     1       0.206   4.025  -0.067  0.00  0.00    +0.155 HD
BRANCH  29  36
ATOM     33  C   UNL     1       1.206  -0.681   0.005  0.00  0.00    -0.048 A 
ATOM     34  C   UNL     1       2.145   0.019   0.741  0.00  0.00    +0.005 A 
ATOM     35  C   UNL     1       2.133   1.400   0.745  0.00  0.00    +0.023 A 
ATOM     36  C   UNL     1       1.177   2.086   0.008  0.00  0.00    +0.033 A 
ATOM     37  C   UNL     1       0.236   1.381  -0.731  0.00  0.00    +0.023 A 
ATOM     38  C   UNL     1       0.253  -0.000  -0.730  0.00  0.00    +0.005 A 
BRANCH  33  40
ATOM     39  C   UNL     1       0.343  -2.708   1.142  0.00  0.00    +0.009 C 
ATOM     40  C   UNL     1       1.223  -2.188   0.004  0.00  0.00    +0.032 C 
ENDBRANCH  33  40
ENDBRANCH  29  36
ENDBRANCH  28  30
ENDBRANCH  27  28
ENDBRANCH   1  27
TORSDOF 9
