REMARK  Name = ZINC21321318
REMARK  8 active torsions:
REMARK  status: ('A' for Active; 'I' for Inactive)
REMARK    1  A    between atoms: C_1  and  C_2
REMARK    2  A    between atoms: C_5  and  C_7
REMARK    3  A    between atoms: N_8  and  N_9
REMARK    4  A    between atoms: C_13  and  S_16
REMARK    5  A    between atoms: N_14  and  N_15
REMARK    6  A    between atoms: S_16  and  C_17
REMARK    7  A    between atoms: C_17  and  C_18
REMARK    8  A    between atoms: N_20  and  C_21
REMARK                            x       y       z     vdW  Elec       q    Type
REMARK                         _______ _______ _______ _____ _____    ______ ____
ROOT
ATOM      1  N   UNL     1      -0.010   0.963  -0.058  0.00  0.00    -0.204 N 
ATOM      2  C   UNL     1       1.181   1.673  -0.055  0.00  0.00    +0.254 A 
ATOM      3  N   UNL     1       1.300   2.979  -0.053  0.00  0.00    -0.109 NA
ATOM      4  N   UNL     1       2.667   3.289  -0.049  0.00  0.00    -0.119 NA
ATOM      5  C   UNL     1       3.338   2.162  -0.057  0.00  0.00    +0.210 A 
ATOM      6  N   UNL     1       2.438   1.135  -0.061  0.00  0.00    -0.211 N 
ATOM      7  H   UNL     1       0.005  -0.137  -0.060  0.00  0.00    +0.177 HD
ENDROOT
BRANCH   6   8
ATOM      8  N   UNL     1       2.741  -0.197  -0.069  0.00  0.00    -0.294 N 
ATOM      9  H   UNL     1       3.792  -0.523  -0.073  0.00  0.00    +0.163 HD
ATOM     10  H   UNL     1       1.934  -0.945  -0.072  0.00  0.00    +0.163 HD
ENDBRANCH   6   8
BRANCH   1  12
ATOM     11  C   UNL     1      -2.351   0.980  -0.065  0.00  0.00    +0.176 C 
ATOM     12  N   UNL     1      -1.233   1.647  -0.057  0.00  0.00    -0.184 NA
BRANCH  11  17
ATOM     13  C   UNL     1      -5.690   4.715  -0.053  0.00  0.00    +0.086 C 
ATOM     14  C   UNL     1      -5.101   3.328  -0.059  0.00  0.00    +0.103 A 
ATOM     15  C   UNL     1      -5.803   2.176  -0.069  0.00  0.00    +0.045 A 
ATOM     16  C   UNL     1      -4.869   1.123  -0.077  0.00  0.00    +0.051 A 
ATOM     17  C   UNL     1      -3.631   1.696  -0.064  0.00  0.00    +0.148 A 
ATOM     18  O   UNL     1      -3.790   3.034  -0.057  0.00  0.00    -0.459 OA
ENDBRANCH  11  17
ENDBRANCH   1  12
BRANCH   5  19
ATOM     19  S   UNL     1       5.093   2.003  -0.061  0.00  0.00    -0.075 S 
BRANCH  19  20
ATOM     20  C   UNL     1       5.689   3.716  -0.052  0.00  0.00    +0.173 C 
BRANCH  20  21
ATOM     21  C   UNL     1       7.196   3.723  -0.055  0.00  0.00    +0.228 C 
ATOM     22  O   UNL     1       7.808   2.675  -0.062  0.00  0.00    -0.275 OA
ATOM     23  N   UNL     1       7.865   4.893  -0.049  0.00  0.00    -0.284 N 
ATOM     24  H   UNL     1       7.313   5.842  -0.117  0.00  0.00    +0.155 HD
BRANCH  23  25
ATOM     25  C   UNL     1       9.262   4.901   0.043  0.00  0.00    +0.053 A 
ATOM     26  C   UNL     1      10.004   3.895  -0.560  0.00  0.00    +0.025 A 
ATOM     27  C   UNL     1      11.382   3.905  -0.469  0.00  0.00    +0.003 A 
ATOM     28  C   UNL     1      12.024   4.915   0.224  0.00  0.00    +0.021 A 
ATOM     29  C   UNL     1      11.288   5.920   0.827  0.00  0.00    +0.061 A 
ATOM     30  C   UNL     1       9.908   5.918   0.734  0.00  0.00    +0.080 A 
ATOM     31 CL   UNL     1       8.985   7.182   1.485  0.00  0.00    -0.080 Cl
ATOM     32 CL   UNL     1      12.098   7.186   1.696  0.00  0.00    -0.082 Cl
ENDBRANCH  23  25
ENDBRANCH  20  21
ENDBRANCH  19  20
ENDBRANCH   5  19
TORSDOF 7
