REMARK  Name = ZINC10140473
REMARK  6 active torsions:
REMARK  status: ('A' for Active; 'I' for Inactive)
REMARK    1  A    between atoms: C_1  and  C_2
REMARK    2  A    between atoms: C_2  and  C_4
REMARK    3  A    between atoms: C_2  and  N_53
REMARK    4  A    between atoms: N_6  and  C_7
REMARK    5  A    between atoms: C_10  and  N_13
REMARK    6  A    between atoms: C_18  and  C_21
REMARK                            x       y       z     vdW  Elec       q    Type
REMARK                         _______ _______ _______ _____ _____    ______ ____
ROOT
ATOM      1  C   UNL     1      -2.283   8.581   1.543  0.00  0.00    -0.077 C 
ATOM      2  C   UNL     1      -1.723   7.193   1.866  0.00  0.00    -0.011 C 
ATOM      3  C   UNL     1      -1.983   6.256   0.683  0.00  0.00    +0.018 C 
ATOM      4  C   UNL     1      -1.340   6.845  -0.576  0.00  0.00    -0.011 C 
ATOM      5  C   UNL     1      -1.911   8.242  -0.828  0.00  0.00    -0.077 C 
ATOM      6  N   UNL     1      -1.606   9.102   0.336  0.00  0.00    +0.387 N 
ATOM      7  H   UNL     1      -0.592   9.099   0.495  0.00  0.00    -0.081 HD
ENDROOT
BRANCH   3   8
ATOM      8  C   UNL     1      -1.382   4.904   0.971  0.00  0.00    -0.019 A 
ATOM      9  C   UNL     1      -0.087   4.641   1.208  0.00  0.00    +0.087 A 
ATOM     10  N   UNL     1       0.084   3.300   1.426  0.00  0.00    -0.360 N 
ATOM     11  H   UNL     1       0.932   2.871   1.618  0.00  0.00    +0.165 HD
ATOM     12  C   UNL     1      -1.128   2.653   1.333  0.00  0.00    +0.047 A 
ATOM     13  C   UNL     1      -2.099   3.629   1.043  0.00  0.00    +0.003 A 
ATOM     14  C   UNL     1      -3.436   3.258   0.891  0.00  0.00    +0.010 A 
ATOM     15  C   UNL     1      -3.794   1.945   1.019  0.00  0.00    +0.001 A 
ATOM     16  C   UNL     1      -2.841   0.979   1.310  0.00  0.00    +0.002 A 
ATOM     17  C   UNL     1      -1.516   1.324   1.464  0.00  0.00    +0.026 A 
ENDBRANCH   3   8
BRANCH   6  19
ATOM     18  C   UNL     1      -1.400  10.973  -1.230  0.00  0.00    -0.004 C 
ATOM     19  C   UNL     1      -2.046  10.487   0.069  0.00  0.00    +0.016 C 
BRANCH  19  20
ATOM     20  C   UNL     1      -1.604  11.366   1.210  0.00  0.00    +0.203 C 
ATOM     21  O   UNL     1      -0.640  11.055   1.877  0.00  0.00    -0.277 OA
ATOM     22  N   UNL     1      -2.280  12.498   1.490  0.00  0.00    -0.287 N 
ATOM     23  H   UNL     1      -3.095  12.708   1.008  0.00  0.00    +0.155 HD
BRANCH  22  24
ATOM     24  C   UNL     1      -1.806  13.371   2.476  0.00  0.00    +0.033 A 
ATOM     25  C   UNL     1      -1.191  12.867   3.614  0.00  0.00    +0.025 A 
ATOM     26  C   UNL     1      -0.719  13.731   4.582  0.00  0.00    +0.034 A 
ATOM     27  C   UNL     1      -0.868  15.097   4.425  0.00  0.00    +0.126 A 
ATOM     28  C   UNL     1      -1.486  15.601   3.295  0.00  0.00    +0.034 A 
ATOM     29  C   UNL     1      -1.955  14.743   2.320  0.00  0.00    +0.025 A 
BRANCH  27  30
ATOM     30  N   UNL     1      -0.367  16.020   5.467  0.00  0.00    +0.056 N 
ATOM     31  O   UNL     1      -0.498  17.223   5.330  0.00  0.00    -0.126 OA
ATOM     32  O   UNL     1       0.177  15.576   6.463  0.00  0.00    -0.126 OA
ENDBRANCH  27  30
ENDBRANCH  22  24
ENDBRANCH  19  20
ENDBRANCH   6  19
TORSDOF 5
