REMARK  Name = ZINC63980684
REMARK  13 active torsions:
REMARK  status: ('A' for Active; 'I' for Inactive)
REMARK    1  A    between atoms: C_1  and  C_2
REMARK    2  A    between atoms: C_2  and  C_4
REMARK    3  A    between atoms: C_2  and  N_12
REMARK    4  A    between atoms: C_4  and  C_5
REMARK    5  A    between atoms: N_12  and  C_13
REMARK    6  A    between atoms: N_19  and  C_32
REMARK    7  A    between atoms: C_20  and  C_28
REMARK    8  A    between atoms: C_22  and  N_24
REMARK    9  A    between atoms: C_25  and  C_27
REMARK   10  A    between atoms: C_28  and  O_30
REMARK   11  A    between atoms: O_30  and  C_31
REMARK   12  A    between atoms: C_32  and  C_33
REMARK   13  A    between atoms: C_33  and  C_34
REMARK                            x       y       z     vdW  Elec       q    Type
REMARK                         _______ _______ _______ _____ _____    ______ ____
ROOT
ATOM      1  C   UNL     1      -0.020  -0.613  -2.404  0.00  0.00    +0.044 A 
ATOM      2  C   UNL     1       0.618  -1.067  -3.557  0.00  0.00    +0.033 A 
ATOM      3  C   UNL     1      -0.124  -1.185  -4.717  0.00  0.00    +0.015 A 
ATOM      4  C   UNL     1      -1.472  -0.856  -4.717  0.00  0.00    +0.105 A 
ATOM      5  N   UNL     1      -2.043  -0.425  -3.592  0.00  0.00    -0.348 N 
ATOM      6  C   UNL     1      -1.371  -0.305  -2.466  0.00  0.00    +0.107 A 
ATOM      7  N   UNL     1      -2.043  -1.040  -5.974  0.00  0.00    -0.301 N 
ATOM      8  C   UNL     1      -1.037  -1.531  -6.920  0.00  0.00    +0.208 C 
ATOM      9  C   UNL     1       0.263  -1.639  -6.105  0.00  0.00    +0.138 C 
ATOM     10  H   UNL     1      -2.986  -0.198  -3.602  0.00  0.00    +0.167 HD
ENDROOT
BRANCH   9  11
ATOM     11  N   UNL     1       0.736  -3.025  -6.078  0.00  0.00    -0.306 N 
ATOM     12  C   UNL     1       2.031  -3.290  -5.813  0.00  0.00    +0.210 C 
ATOM     13  O   UNL     1       2.804  -2.381  -5.598  0.00  0.00    -0.276 OA
ATOM     14  C   UNL     1       2.518  -4.716  -5.785  0.00  0.00    +0.109 C 
ATOM     15  H   UNL     1       0.118  -3.752  -6.250  0.00  0.00    +0.149 HD
ENDBRANCH   9  11
BRANCH   1  16
ATOM     16  N   UNL     1       0.688  -0.476  -1.203  0.00  0.00    -0.340 N 
ATOM     17  H   UNL     1       1.632  -0.695  -1.170  0.00  0.00    +0.146 HD
BRANCH  16  19
ATOM     18  C   UNL     1      -0.019   1.526   0.010  0.00  0.00    +0.028 C 
ATOM     19  C   UNL     1       0.002  -0.004   0.002  0.00  0.00    +0.072 C 
BRANCH  19  20
ATOM     20  C   UNL     1       0.742  -0.511   1.242  0.00  0.00    +0.057 C 
BRANCH  20  21
ATOM     21  C   UNL     1       0.657  -2.014   1.298  0.00  0.00    -0.045 A 
ATOM     22  C   UNL     1      -0.396  -2.622   1.955  0.00  0.00    +0.006 A 
ATOM     23  C   UNL     1      -0.476  -4.001   2.007  0.00  0.00    +0.038 A 
ATOM     24  C   UNL     1       0.500  -4.774   1.400  0.00  0.00    +0.123 A 
ATOM     25  C   UNL     1       1.554  -4.164   0.742  0.00  0.00    +0.038 A 
ATOM     26  C   UNL     1       1.629  -2.785   0.687  0.00  0.00    +0.006 A 
ATOM     27  F   UNL     1       0.423  -6.122   1.451  0.00  0.00    -0.205 F 
ENDBRANCH  20  21
ENDBRANCH  19  20
ENDBRANCH  16  19
ENDBRANCH   1  16
BRANCH   8  28
ATOM     28  C   UNL     1      -1.436  -2.883  -7.453  0.00  0.00    +0.330 C 
ATOM     29  O   UNL     1      -2.255  -3.547  -6.864  0.00  0.00    -0.249 OA
BRANCH  28  30
ATOM     30  O   UNL     1      -0.880  -3.349  -8.582  0.00  0.00    -0.467 OA
ATOM     31  C   UNL     1      -1.305  -4.638  -9.030  0.00  0.00    +0.280 C 
ENDBRANCH  28  30
ENDBRANCH   8  28
BRANCH   7  32
ATOM     32  C   UNL     1      -3.447  -0.783  -6.303  0.00  0.00    +0.112 C 
BRANCH  32  33
ATOM     33  C   UNL     1      -3.604   0.666  -6.769  0.00  0.00    +0.052 C 
BRANCH  33  34
ATOM     34  C   UNL     1      -5.048   0.931  -7.107  0.00  0.00    -0.040 C 
ATOM     35  C   UNL     1      -5.987   1.475  -6.298  0.00  0.00    -0.001 A 
ATOM     36  C   UNL     1      -5.945   1.962  -4.915  0.00  0.00    +0.010 A 
ATOM     37  C   UNL     1      -7.072   2.464  -4.362  0.00  0.00    +0.001 A 
ATOM     38  C   UNL     1      -8.277   2.529  -5.075  0.00  0.00    +0.002 A 
ATOM     39  C   UNL     1      -8.394   2.101  -6.350  0.00  0.00    +0.026 A 
ATOM     40  C   UNL     1      -7.271   1.556  -7.030  0.00  0.00    +0.043 A 
ATOM     41  N   UNL     1      -7.132   1.080  -8.244  0.00  0.00    -0.380 N 
ATOM     42  C   UNL     1      -5.741   0.649  -8.422  0.00  0.00    +0.144 C 
ATOM     43  H   UNL     1      -7.831   1.026  -8.914  0.00  0.00    +0.160 HD
ENDBRANCH  33  34
ENDBRANCH  32  33
ENDBRANCH   7  32
TORSDOF 10
