REMARK  Name = ZINC08694614
REMARK  4 active torsions:
REMARK  status: ('A' for Active; 'I' for Inactive)
REMARK    1  A    between atoms: C_1  and  O_2
REMARK    2  A    between atoms: O_2  and  C_3
REMARK    3  A    between atoms: C_6  and  N_9
REMARK    4  A    between atoms: C_24  and  C_28
REMARK                            x       y       z     vdW  Elec       q    Type
REMARK                         _______ _______ _______ _____ _____    ______ ____
ROOT
ATOM      1  N   UNL     1       7.227   2.320   0.779  0.00  0.00    -0.193 N 
ATOM      2  C   UNL     1       6.086   2.478   0.092  0.00  0.00    +0.245 C 
ATOM      3  O   UNL     1       6.087   3.179  -0.897  0.00  0.00    -0.274 OA
ATOM      4  C   UNL     1       4.807   1.812   0.514  0.00  0.00    +0.146 C 
ATOM      5  C   UNL     1       3.736   2.874   0.773  0.00  0.00    +0.064 C 
ATOM      6  C   UNL     1       2.385   2.215   0.883  0.00  0.00    -0.022 A 
ATOM      7  C   UNL     1       1.348   2.938   1.453  0.00  0.00    +0.005 A 
ATOM      8  C   UNL     1       0.088   2.387   1.567  0.00  0.00    +0.003 A 
ATOM      9  C   UNL     1      -0.146   1.102   1.110  0.00  0.00    +0.040 A 
ATOM     10  C   UNL     1       0.881   0.375   0.545  0.00  0.00    +0.145 A 
ATOM     11  C   UNL     1       2.160   0.928   0.430  0.00  0.00    +0.069 A 
ATOM     12  N   UNL     1       3.159   0.137  -0.137  0.00  0.00    -0.323 N 
ATOM     13  C   UNL     1       4.309   0.903  -0.616  0.00  0.00    +0.098 C 
ATOM     14  C   UNL     1       5.431  -0.054  -1.027  0.00  0.00    +0.032 C 
ATOM     15  C   UNL     1       4.918  -0.988  -2.127  0.00  0.00    +0.022 C 
ATOM     16  C   UNL     1       3.689  -1.743  -1.614  0.00  0.00    +0.027 C 
ATOM     17  C   UNL     1       2.618  -0.735  -1.188  0.00  0.00    +0.106 C 
ATOM     18  F   UNL     1       0.649  -0.880   0.101  0.00  0.00    -0.204 F 
ATOM     19  C   UNL     1       5.019   0.995   1.757  0.00  0.00    +0.238 C 
ATOM     20  O   UNL     1       4.080   0.392   2.231  0.00  0.00    -0.274 OA
ATOM     21  N   UNL     1       6.215   0.914   2.356  0.00  0.00    -0.238 N 
ATOM     22  C   UNL     1       7.291   1.559   1.882  0.00  0.00    +0.319 C 
ATOM     23  O   UNL     1       8.351   1.450   2.465  0.00  0.00    -0.251 OA
ATOM     24  H   UNL     1       6.304   0.374   3.156  0.00  0.00    +0.159 HD
ENDROOT
BRANCH   1  28
ATOM     25  C   UNL     1      10.676   4.255  -0.550  0.00  0.00    +0.120 A 
ATOM     26  C   UNL     1       9.832   4.885   0.353  0.00  0.00    +0.047 A 
ATOM     27  C   UNL     1       8.690   4.245   0.793  0.00  0.00    +0.027 A 
ATOM     28  C   UNL     1       8.387   2.971   0.332  0.00  0.00    +0.046 A 
ATOM     29  C   UNL     1       9.234   2.340  -0.568  0.00  0.00    +0.027 A 
ATOM     30  C   UNL     1      10.373   2.982  -1.011  0.00  0.00    +0.047 A 
BRANCH  25  32
ATOM     31  C   UNL     1      12.623   4.179  -1.912  0.00  0.00    +0.277 C 
ATOM     32  O   UNL     1      11.800   4.886  -0.983  0.00  0.00    -0.495 OA
ENDBRANCH  25  32
ENDBRANCH   1  28
BRANCH  15  33
ATOM     33  C   UNL     1       4.542  -0.178  -3.341  0.00  0.00    -0.044 A 
ATOM     34  C   UNL     1       3.521  -0.607  -4.168  0.00  0.00    +0.004 A 
ATOM     35  C   UNL     1       3.172   0.139  -5.279  0.00  0.00    +0.000 A 
ATOM     36  C   UNL     1       3.852   1.307  -5.568  0.00  0.00    +0.000 A 
ATOM     37  C   UNL     1       4.877   1.733  -4.743  0.00  0.00    +0.000 A 
ATOM     38  C   UNL     1       5.222   0.990  -3.630  0.00  0.00    +0.004 A 
ENDBRANCH  15  33
TORSDOF 3
