REMARK  Name = ZINC09291426
REMARK  11 active torsions:
REMARK  status: ('A' for Active; 'I' for Inactive)
REMARK    1  A    between atoms: C_1  and  C_2
REMARK    2  A    between atoms: C_5  and  C_36
REMARK    3  A    between atoms: N_8  and  S_10
REMARK    4  A    between atoms: S_10  and  C_13
REMARK    5  A    between atoms: C_17  and  C_19
REMARK    6  A    between atoms: N_23  and  C_24
REMARK    7  A    between atoms: N_30  and  C_31
REMARK    8  A    between atoms: C_31  and  C_32
REMARK    9  A    between atoms: C_32  and  C_33
REMARK   10  A    between atoms: C_33  and  O_34
REMARK   11  A    between atoms: O_34  and  C_35
REMARK                            x       y       z     vdW  Elec       q    Type
REMARK                         _______ _______ _______ _____ _____    ______ ____
ROOT
ATOM      1  C   UNL     1       4.837  -3.309  -0.079  0.00  0.00    +0.058 A 
ATOM      2  C   UNL     1       4.136  -2.983   1.027  0.00  0.00    +0.075 A 
ATOM      3  S   UNL     1       2.554  -3.749   0.707  0.00  0.00    -0.059 S 
ATOM      4  C   UNL     1       2.942  -4.462  -0.884  0.00  0.00    +0.152 A 
ATOM      5  N   UNL     1       2.178  -5.182  -1.684  0.00  0.00    -0.336 N 
ATOM      6  N   UNL     1       4.245  -4.059  -1.058  0.00  0.00    -0.321 N 
ATOM      7  H   UNL     1       1.112  -5.321  -1.448  0.00  0.00    +0.168 HD
ENDROOT
BRANCH   1  12
ATOM      8  C   UNL     1       8.546  -3.353  -0.668  0.00  0.00    +0.106 A 
ATOM      9  C   UNL     1       8.858  -2.013  -0.517  0.00  0.00    +0.028 A 
ATOM     10  C   UNL     1       7.867  -1.094  -0.224  0.00  0.00    +0.003 A 
ATOM     11  C   UNL     1       6.558  -1.508  -0.081  0.00  0.00    +0.010 A 
ATOM     12  C   UNL     1       6.237  -2.858  -0.231  0.00  0.00    +0.001 A 
ATOM     13  C   UNL     1       7.243  -3.781  -0.520  0.00  0.00    +0.038 A 
BRANCH   8  14
ATOM     14  S   UNL     1       9.816  -4.515  -1.041  0.00  0.00    +0.061 S 
ATOM     15  O   UNL     1       9.183  -5.621  -1.670  0.00  0.00    -0.153 OA
ATOM     16  O   UNL     1      10.866  -3.784  -1.661  0.00  0.00    -0.153 OA
BRANCH  14  22
ATOM     17  C   UNL     1       9.996  -3.022   2.476  0.00  0.00    +0.009 C 
ATOM     18  C   UNL     1      11.134  -4.043   2.495  0.00  0.00    +0.002 C 
ATOM     19  C   UNL     1      10.668  -5.315   3.207  0.00  0.00    +0.009 C 
ATOM     20  C   UNL     1       9.445  -5.887   2.486  0.00  0.00    +0.002 C 
ATOM     21  C   UNL     1       9.829  -6.251   1.049  0.00  0.00    +0.112 C 
ATOM     22  N   UNL     1      10.413  -5.069   0.401  0.00  0.00    -0.176 NA
ATOM     23  C   UNL     1      11.541  -4.390   1.054  0.00  0.00    +0.112 C 
ATOM     24  C   UNL     1       8.960  -7.139   3.219  0.00  0.00    +0.009 C 
ENDBRANCH  14  22
ENDBRANCH   8  14
ENDBRANCH   1  12
BRANCH   5  25
ATOM     25  C   UNL     1       2.710  -5.753  -2.806  0.00  0.00    +0.041 A 
ATOM     26  C   UNL     1       3.330  -7.003  -2.731  0.00  0.00    +0.025 A 
ATOM     27  C   UNL     1       3.864  -7.574  -3.867  0.00  0.00    +0.002 A 
ATOM     28  C   UNL     1       3.787  -6.912  -5.080  0.00  0.00    +0.000 A 
ATOM     29  C   UNL     1       3.174  -5.674  -5.162  0.00  0.00    +0.002 A 
ATOM     30  C   UNL     1       2.635  -5.091  -4.034  0.00  0.00    +0.025 A 
ENDBRANCH   5  25
BRANCH   6  31
ATOM     31  C   UNL     1       4.985  -4.426  -2.269  0.00  0.00    +0.126 C 
BRANCH  31  32
ATOM     32  C   UNL     1       4.864  -3.302  -3.300  0.00  0.00    +0.050 C 
BRANCH  32  33
ATOM     33  C   UNL     1       5.745  -3.622  -4.509  0.00  0.00    +0.161 C 
BRANCH  33  34
ATOM     34  O   UNL     1       5.721  -2.522  -5.421  0.00  0.00    -0.383 OA
ATOM     35  C   UNL     1       6.516  -2.720  -6.591  0.00  0.00    +0.193 C 
ENDBRANCH  33  34
ENDBRANCH  32  33
ENDBRANCH  31  32
ENDBRANCH   6  31
TORSDOF 8
