REMARK  Name = ZINC39730329
REMARK  8 active torsions:
REMARK  status: ('A' for Active; 'I' for Inactive)
REMARK    1  A    between atoms: C_4  and  N_7
REMARK    2  A    between atoms: C_8  and  S_27
REMARK    3  A    between atoms: C_12  and  C_13
REMARK    4  A    between atoms: C_17  and  S_19
REMARK    5  A    between atoms: S_19  and  N_22
REMARK    6  A    between atoms: S_27  and  C_28
REMARK    7  A    between atoms: C_28  and  C_29
REMARK    8  A    between atoms: C_29  and  C_31
REMARK                            x       y       z     vdW  Elec       q    Type
REMARK                         _______ _______ _______ _____ _____    ______ ____
ROOT
ATOM      1  N   UNL     1       3.778  -0.634   0.493  0.00  0.00    -0.254 N 
ATOM      2  C   UNL     1       3.912  -2.096   0.376  0.00  0.00    +0.241 C 
ATOM      3  N   UNL     1       5.173  -2.280  -0.361  0.00  0.00    -0.237 N 
ATOM      4  N   UNL     1       5.671  -0.997  -0.616  0.00  0.00    -0.168 NA
ATOM      5  C   UNL     1       4.889  -0.083  -0.144  0.00  0.00    +0.153 C 
ATOM      6  H   UNL     1       5.578  -3.123  -0.619  0.00  0.00    +0.171 HD
ENDROOT
BRANCH   1  10
ATOM      7  C   UNL     1       0.683   1.444   2.347  0.00  0.00    +0.000 A 
ATOM      8  C   UNL     1       0.649   1.230   0.981  0.00  0.00    +0.002 A 
ATOM      9  C   UNL     1       1.674   0.541   0.363  0.00  0.00    +0.023 A 
ATOM     10  C   UNL     1       2.740   0.064   1.115  0.00  0.00    +0.038 A 
ATOM     11  C   UNL     1       2.771   0.281   2.487  0.00  0.00    +0.023 A 
ATOM     12  C   UNL     1       1.743   0.971   3.099  0.00  0.00    +0.002 A 
ENDBRANCH   1  10
BRANCH   5  13
ATOM     13  C   UNL     1       5.143   1.369  -0.262  0.00  0.00    +0.019 A 
ATOM     14  C   UNL     1       4.328   2.280   0.412  0.00  0.00    +0.011 A 
ATOM     15  C   UNL     1       4.571   3.633   0.299  0.00  0.00    +0.003 A 
ATOM     16  C   UNL     1       5.620   4.088  -0.481  0.00  0.00    +0.028 A 
ATOM     17  C   UNL     1       6.431   3.190  -1.152  0.00  0.00    +0.106 A 
ATOM     18  C   UNL     1       6.203   1.834  -1.042  0.00  0.00    +0.040 A 
BRANCH  17  19
ATOM     19  S   UNL     1       7.763   3.780  -2.143  0.00  0.00    +0.061 S 
ATOM     20  O   UNL     1       8.036   2.767  -3.101  0.00  0.00    -0.153 OA
ATOM     21  O   UNL     1       7.434   5.111  -2.515  0.00  0.00    -0.153 OA
BRANCH  19  22
ATOM     22  N   UNL     1       9.096   3.877  -1.165  0.00  0.00    -0.177 NA
ATOM     23  C   UNL     1       9.493   5.050  -0.372  0.00  0.00    +0.109 C 
ATOM     24  C   UNL     1      10.805   4.688   0.356  0.00  0.00    +0.018 C 
ATOM     25  C   UNL     1      11.374   3.533  -0.508  0.00  0.00    +0.018 C 
ATOM     26  C   UNL     1      10.077   2.800  -0.939  0.00  0.00    +0.109 C 
ENDBRANCH  19  22
ENDBRANCH  17  19
ENDBRANCH   5  13
BRANCH   2  27
ATOM     27  S   UNL     1       2.518  -2.789  -0.556  0.00  0.00    -0.110 S 
BRANCH  27  28
ATOM     28  C   UNL     1       2.624  -1.974  -2.174  0.00  0.00    +0.153 C 
BRANCH  28  29
ATOM     29  C   UNL     1       1.508  -2.467  -3.058  0.00  0.00    +0.187 C 
ATOM     30  O   UNL     1       0.719  -3.288  -2.639  0.00  0.00    -0.290 OA
BRANCH  29  31
ATOM     31  C   UNL     1       1.377  -1.957  -4.423  0.00  0.00    +0.088 C 
ATOM     32  N   UNL     1       2.146  -1.084  -5.011  0.00  0.00    -0.256 NA
ATOM     33  C   UNL     1       1.781  -0.808  -6.265  0.00  0.00    +0.107 C 
ATOM     34  C   UNL     1       0.696  -1.494  -6.646  0.00  0.00    -0.001 C 
ATOM     35  C   UNL     1       0.321  -2.340  -5.443  0.00  0.00    +0.087 C 
ENDBRANCH  29  31
ENDBRANCH  28  29
ENDBRANCH  27  28
ENDBRANCH   2  27
TORSDOF 8
