REMARK  Name = ZINC14466068
REMARK  6 active torsions:
REMARK  status: ('A' for Active; 'I' for Inactive)
REMARK    1  A    between atoms: C_1  and  C_2
REMARK    2  A    between atoms: C_5  and  N_9
REMARK    3  A    between atoms: C_6  and  C_8
REMARK    4  A    between atoms: N_9  and  S_10
REMARK    5  A    between atoms: S_10  and  C_13
REMARK    6  A    between atoms: C_26  and  C_29
REMARK                            x       y       z     vdW  Elec       q    Type
REMARK                         _______ _______ _______ _____ _____    ______ ____
ROOT
ATOM      1  C   UNL     1       1.300  -0.480   4.343  0.00  0.00    +0.109 A 
ATOM      2  C   UNL     1       0.186  -0.805   5.097  0.00  0.00    +0.030 A 
ATOM      3  C   UNL     1      -0.124  -2.131   5.323  0.00  0.00    +0.025 A 
ATOM      4  C   UNL     1       0.686  -3.133   4.803  0.00  0.00    +0.031 A 
ATOM      5  C   UNL     1       1.805  -2.812   4.050  0.00  0.00    -0.018 A 
ATOM      6  C   UNL     1       2.104  -1.475   3.826  0.00  0.00    +0.034 A 
ATOM      7  C   UNL     1       2.704  -3.856   3.468  0.00  0.00    +0.049 C 
ATOM      8  C   UNL     1       2.487  -4.003   1.981  0.00  0.00    -0.023 C 
ATOM      9  C   UNL     1       2.610  -5.259   1.626  0.00  0.00    -0.030 C 
ATOM     10  C   UNL     1       2.933  -6.122   2.830  0.00  0.00    +0.033 C 
ATOM     11  C   UNL     1       2.421  -5.268   4.018  0.00  0.00    +0.029 C 
ATOM     12  C   UNL     1       0.911  -5.492   4.130  0.00  0.00    +0.106 C 
ATOM     13  N   UNL     1       0.343  -4.472   5.017  0.00  0.00    -0.336 N 
ATOM     14  H   UNL     1      -0.250  -4.720   5.744  0.00  0.00    +0.147 HD
ENDROOT
BRANCH  12  15
ATOM     15  C   UNL     1       0.282  -5.383   2.764  0.00  0.00    -0.009 A 
ATOM     16  C   UNL     1      -0.091  -4.146   2.272  0.00  0.00    +0.007 A 
ATOM     17  C   UNL     1      -0.667  -4.045   1.020  0.00  0.00    +0.000 A 
ATOM     18  C   UNL     1      -0.871  -5.181   0.259  0.00  0.00    +0.001 A 
ATOM     19  C   UNL     1      -0.499  -6.418   0.750  0.00  0.00    +0.020 A 
ATOM     20  C   UNL     1       0.083  -6.519   2.001  0.00  0.00    +0.046 A 
ATOM     21 CL   UNL     1       0.558  -8.072   2.615  0.00  0.00    -0.083 Cl
ENDBRANCH  12  15
BRANCH   1  22
ATOM     22  S   UNL     1       1.696   1.211   4.047  0.00  0.00    +0.072 S 
ATOM     23  O   UNL     1       3.091   1.260   3.780  0.00  0.00    -0.150 OA
ATOM     24  O   UNL     1       1.095   1.958   5.095  0.00  0.00    -0.150 OA
BRANCH  22  25
ATOM     25  N   UNL     1       0.930   1.656   2.648  0.00  0.00    -0.216 N 
ATOM     26  H   UNL     1       1.449   1.960   1.887  0.00  0.00    +0.174 HD
BRANCH  25  31
ATOM     27  C   UNL     1      -4.724   1.404   2.308  0.00  0.00    +0.044 C 
ATOM     28  C   UNL     1      -3.222   1.471   2.398  0.00  0.00    -0.050 A 
ATOM     29  C   UNL     1      -2.617   1.830   3.590  0.00  0.00    +0.005 A 
ATOM     30  C   UNL     1      -1.241   1.893   3.676  0.00  0.00    +0.025 A 
ATOM     31  C   UNL     1      -0.462   1.594   2.564  0.00  0.00    +0.051 A 
ATOM     32  C   UNL     1      -1.073   1.234   1.370  0.00  0.00    -0.028 A 
ATOM     33  C   UNL     1      -2.450   1.178   1.289  0.00  0.00    +0.008 A 
ATOM     34  C   UNL     1      -0.232   0.910   0.161  0.00  0.00    +0.046 C 
ENDBRANCH  25  31
ENDBRANCH  22  25
ENDBRANCH   1  22
TORSDOF 4
