REMARK  Name = ZINC32867552
REMARK  11 active torsions:
REMARK  status: ('A' for Active; 'I' for Inactive)
REMARK    1  A    between atoms: C_1  and  C_2
REMARK    2  A    between atoms: C_2  and  O_3
REMARK    3  A    between atoms: O_3  and  C_4
REMARK    4  A    between atoms: C_4  and  C_6
REMARK    5  A    between atoms: C_10  and  N_11
REMARK    6  A    between atoms: C_12  and  C_14
REMARK    7  A    between atoms: C_14  and  N_15
REMARK    8  A    between atoms: C_26  and  C_32
REMARK    9  A    between atoms: C_26  and  C_33
REMARK   10  A    between atoms: C_28  and  C_30
REMARK   11  A    between atoms: C_28  and  C_31
REMARK                            x       y       z     vdW  Elec       q    Type
REMARK                         _______ _______ _______ _____ _____    ______ ____
ROOT
ATOM      1  C   UNL     1      -0.647   1.516  -4.905  0.00  0.00    +0.091 A 
ATOM      2  C   UNL     1      -1.520   2.112  -5.894  0.00  0.00    -0.024 A 
ATOM      3  C   UNL     1      -2.556   2.829  -5.401  0.00  0.00    -0.016 A 
ATOM      4  S   UNL     1      -2.385   2.712  -3.644  0.00  0.00    -0.079 S 
ATOM      5  C   UNL     1      -0.959   1.731  -3.566  0.00  0.00    +0.086 A 
ATOM      6  C   UNL     1      -3.593   3.554  -6.195  0.00  0.00    -0.041 C 
ATOM      7  N   UNL     1      -3.504   3.239  -7.617  0.00  0.00    +0.389 N 
ATOM      8  C   UNL     1      -2.780   2.042  -8.010  0.00  0.00    -0.069 C 
ATOM      9  C   UNL     1      -1.372   1.995  -7.404  0.00  0.00    +0.024 C 
ATOM     10  C   UNL     1      -3.545   0.779  -7.607  0.00  0.00    -0.010 C 
ATOM     11  C   UNL     1      -2.634   2.037  -9.543  0.00  0.00    -0.010 C 
ATOM     12  C   UNL     1      -4.986   3.198  -5.657  0.00  0.00    -0.005 C 
ATOM     13  C   UNL     1      -3.382   5.068  -6.002  0.00  0.00    -0.005 C 
ATOM     14  H   UNL     1      -4.516   3.106  -8.027  0.00  0.00    -0.084 HD
ATOM     15  H   UNL     1      -3.000   4.062  -8.144  0.00  0.00    -0.084 HD
ENDROOT
BRANCH   5  16
ATOM     16  N   UNL     1      -0.288   1.272  -2.443  0.00  0.00    -0.278 N 
ATOM     17  C   UNL     1      -0.742   1.585  -1.213  0.00  0.00    +0.239 C 
ATOM     18  O   UNL     1      -1.736   2.268  -1.088  0.00  0.00    -0.273 OA
ATOM     19  H   UNL     1       0.614   0.653  -2.556  0.00  0.00    +0.155 HD
BRANCH  17  20
ATOM     20  C   UNL     1      -0.013   1.086   0.008  0.00  0.00    +0.245 C 
BRANCH  20  21
ATOM     21  N   UNL     1      -0.698   1.558   1.213  0.00  0.00    -0.201 N 
ATOM     22  C   UNL     1      -1.683   0.812   1.768  0.00  0.00    +0.278 A 
ATOM     23  O   UNL     1      -2.017  -0.254   1.284  0.00  0.00    -0.265 OA
ATOM     24  C   UNL     1      -2.330   1.339   2.979  0.00  0.00    +0.068 A 
ATOM     25  C   UNL     1      -3.350   0.643   3.625  0.00  0.00    +0.015 A 
ATOM     26  C   UNL     1      -3.929   1.179   4.754  0.00  0.00    +0.001 A 
ATOM     27  C   UNL     1      -3.505   2.405   5.251  0.00  0.00    +0.002 A 
ATOM     28  C   UNL     1      -2.499   3.108   4.628  0.00  0.00    +0.030 A 
ATOM     29  C   UNL     1      -1.895   2.585   3.481  0.00  0.00    +0.100 A 
ATOM     30  N   UNL     1      -0.902   3.250   2.841  0.00  0.00    -0.131 NA
ATOM     31  N   UNL     1      -0.340   2.781   1.786  0.00  0.00    -0.062 NA
ENDBRANCH  20  21
ENDBRANCH  17  20
ENDBRANCH   5  16
BRANCH   1  32
ATOM     32  C   UNL     1       0.521   0.718  -5.284  0.00  0.00    +0.342 C 
ATOM     33  O   UNL     1       0.412  -0.484  -5.441  0.00  0.00    -0.245 OA
BRANCH  32  34
ATOM     34  O   UNL     1       1.717   1.315  -5.461  0.00  0.00    -0.461 OA
BRANCH  34  36
ATOM     35  C   UNL     1       4.094   1.311  -5.990  0.00  0.00    +0.048 C 
ATOM     36  C   UNL     1       2.831   0.462  -5.837  0.00  0.00    +0.229 C 
ENDBRANCH  34  36
ENDBRANCH  32  34
ENDBRANCH   1  32
TORSDOF 6
