REMARK  Name = ZINC66746024
REMARK  5 active torsions:
REMARK  status: ('A' for Active; 'I' for Inactive)
REMARK    1  A    between atoms: C_10  and  C_11
REMARK    2  A    between atoms: C_10  and  O_24
REMARK    3  A    between atoms: C_11  and  N_12
REMARK    4  A    between atoms: C_13  and  C_14
REMARK    5  A    between atoms: C_16  and  N_21
REMARK                            x       y       z     vdW  Elec       q    Type
REMARK                         _______ _______ _______ _____ _____    ______ ____
ROOT
ATOM      1  C   UNL     1       4.670   0.060  -0.988  0.00  0.00    +0.151 C 
ENDROOT
BRANCH   1  11
ATOM      2  C   UNL     1      -0.130   1.155  -0.319  0.00  0.00    +0.000 A 
ATOM      3  C   UNL     1       1.025   1.911  -0.238  0.00  0.00    +0.000 A 
ATOM      4  C   UNL     1       2.251   1.282  -0.169  0.00  0.00    +0.007 A 
ATOM      5  C   UNL     1       2.335  -0.104  -0.182  0.00  0.00    -0.011 A 
ATOM      6  C   UNL     1       1.185  -0.856  -0.268  0.00  0.00    -0.041 A 
ATOM      7  C   UNL     1      -0.049  -0.222  -0.333  0.00  0.00    +0.004 A 
ATOM      8  C   UNL     1       1.202  -2.362  -0.304  0.00  0.00    +0.035 C 
ATOM      9  C   UNL     1       2.541  -2.896   0.201  0.00  0.00    +0.008 C 
ATOM     10  C   UNL     1       3.665  -2.180  -0.557  0.00  0.00    +0.042 C 
ATOM     11  C   UNL     1       3.705  -0.724  -0.097  0.00  0.00    +0.108 C 
BRANCH  11  12
ATOM     12  O   UNL     1       4.164  -0.670   1.255  0.00  0.00    -0.382 OA
ATOM     13  H   UNL     1       4.231   0.226   1.612  0.00  0.00    +0.211 HD
ENDBRANCH  11  12
ENDBRANCH   1  11
BRANCH   1  14
ATOM     14  N   UNL     1       5.976  -0.604  -0.996  0.00  0.00    -0.387 N 
ATOM     15  C   UNL     1       6.465  -1.108  -2.138  0.00  0.00    +0.090 C 
ATOM     16  H   UNL     1       6.488  -0.678  -0.175  0.00  0.00    +0.159 HD
BRANCH  15  17
ATOM     17  C   UNL     1       7.663  -1.828  -2.128  0.00  0.00    +0.039 A 
ATOM     18  C   UNL     1       8.135  -2.460  -3.300  0.00  0.00    +0.045 A 
ATOM     19  C   UNL     1       9.303  -3.155  -3.270  0.00  0.00    +0.127 A 
ATOM     20  C   UNL     1      10.055  -3.263  -2.104  0.00  0.00    +0.036 A 
ATOM     21  C   UNL     1       9.656  -2.679  -0.941  0.00  0.00    +0.054 A 
ATOM     22  C   UNL     1       8.462  -1.938  -0.901  0.00  0.00    +0.188 A 
ATOM     23  O   UNL     1       8.093  -1.402   0.135  0.00  0.00    -0.287 OA
BRANCH  19  24
ATOM     24  N   UNL     1       9.785  -3.812  -4.505  0.00  0.00    +0.056 N 
ATOM     25  O   UNL     1       9.142  -3.727  -5.526  0.00  0.00    -0.126 OA
ATOM     26  O   UNL     1      10.822  -4.434  -4.494  0.00  0.00    -0.126 OA
ENDBRANCH  19  24
ENDBRANCH  15  17
ENDBRANCH   1  14
TORSDOF 5
