REMARK  Name = ZINC54646735
REMARK  9 active torsions:
REMARK  status: ('A' for Active; 'I' for Inactive)
REMARK    1  A    between atoms: C_1  and  C_2
REMARK    2  A    between atoms: C_7  and  C_8
REMARK    3  A    between atoms: C_7  and  C_9
REMARK    4  A    between atoms: N_12  and  C_15
REMARK    5  A    between atoms: C_15  and  C_16
REMARK    6  A    between atoms: C_16  and  C_17
REMARK    7  A    between atoms: C_17  and  C_18
REMARK    8  A    between atoms: N_20  and  C_21
REMARK    9  A    between atoms: C_22  and  C_30
REMARK                            x       y       z     vdW  Elec       q    Type
REMARK                         _______ _______ _______ _____ _____    ______ ____
ROOT
ATOM      1  C   UNL     1      -5.512  -2.715   3.171  0.00  0.00    +0.218 C 
ATOM      2  O   UNL     1      -4.895  -2.116   4.026  0.00  0.00    -0.275 OA
ATOM      3  N   UNL     1      -6.750  -3.179   3.433  0.00  0.00    -0.279 N 
ATOM      4  H   UNL     1      -7.244  -3.658   2.748  0.00  0.00    +0.155 HD
ENDROOT
BRANCH   3   5
ATOM      5  C   UNL     1      -7.318  -2.972   4.681  0.00  0.00    +0.084 A 
ATOM      6  C   UNL     1      -8.566  -3.379   5.127  0.00  0.00    +0.068 A 
ATOM      7  C   UNL     1      -8.929  -3.034   6.490  0.00  0.00    -0.023 A 
ATOM      8  C   UNL     1      -7.978  -2.345   7.157  0.00  0.00    -0.004 A 
ATOM      9  S   UNL     1      -6.650  -2.178   6.000  0.00  0.00    -0.077 S 
ATOM     10  C   UNL     1      -8.050  -1.847   8.568  0.00  0.00    +0.043 C 
ATOM     11  C   UNL     1      -9.515  -1.905   9.025  0.00  0.00    +0.005 C 
ATOM     12  C   UNL     1     -10.092  -3.278   8.667  0.00  0.00    +0.005 C 
ATOM     13  C   UNL     1     -10.251  -3.397   7.149  0.00  0.00    +0.037 C 
BRANCH   6  14
ATOM     14  C   UNL     1      -9.482  -4.126   4.258  0.00  0.00    +0.244 C 
ATOM     15  O   UNL     1      -9.445  -5.342   4.238  0.00  0.00    -0.270 OA
ATOM     16  N   UNL     1     -10.364  -3.465   3.483  0.00  0.00    -0.325 N 
ATOM     17  H   UNL     1     -10.393  -2.496   3.499  0.00  0.00    +0.145 HD
ATOM     18  H   UNL     1     -10.970  -3.959   2.908  0.00  0.00    +0.145 HD
ENDBRANCH   6  14
ENDBRANCH   3   5
BRANCH   1  19
ATOM     19  C   UNL     1      -4.895  -2.939   1.814  0.00  0.00    +0.097 C 
BRANCH  19  20
ATOM     20  C   UNL     1      -3.497  -2.317   1.781  0.00  0.00    +0.029 C 
BRANCH  20  21
ATOM     21  C   UNL     1      -2.870  -2.546   0.404  0.00  0.00    +0.117 C 
BRANCH  21  32
ATOM     22  C   UNL     1      -0.019   1.526   0.010  0.00  0.00    +0.021 C 
ATOM     23  C   UNL     1       0.002  -0.004   0.002  0.00  0.00    +0.051 C 
ATOM     24  C   UNL     1       0.777  -0.595  -1.201  0.00  0.00    +0.017 C 
ATOM     25  C   UNL     1       1.361  -1.934  -0.713  0.00  0.00    +0.014 C 
ATOM     26  C   UNL     1       0.910  -2.085   0.760  0.00  0.00    +0.082 C 
ATOM     27  C   UNL     1       0.737  -0.613   1.230  0.00  0.00    -0.010 C 
ATOM     28  C   UNL     1       2.093   0.060   1.451  0.00  0.00    +0.012 C 
ATOM     29  C   UNL     1      -0.130  -0.532   2.488  0.00  0.00    +0.012 C 
ATOM     30  C   UNL     1      -0.477  -2.702   0.736  0.00  0.00    +0.225 C 
ATOM     31  O   UNL     1      -0.633  -3.864   1.044  0.00  0.00    -0.275 OA
ATOM     32  N   UNL     1      -1.532  -1.950   0.372  0.00  0.00    -0.241 N 
ATOM     33  C   UNL     1      -1.387  -0.616   0.002  0.00  0.00    +0.228 C 
ATOM     34  O   UNL     1      -2.342   0.039  -0.355  0.00  0.00    -0.275 OA
ENDBRANCH  21  32
ENDBRANCH  20  21
ENDBRANCH  19  20
ENDBRANCH   1  19
TORSDOF 6
