REMARK  Name = ZINC09460753
REMARK  7 active torsions:
REMARK  status: ('A' for Active; 'I' for Inactive)
REMARK    1  A    between atoms: C_1  and  C_2
REMARK    2  A    between atoms: C_2  and  C_26
REMARK    3  A    between atoms: N_3  and  N_4
REMARK    4  A    between atoms: C_5  and  C_7
REMARK    5  A    between atoms: C_8  and  C_18
REMARK    6  A    between atoms: C_18  and  S_19
REMARK    7  A    between atoms: S_19  and  C_20
REMARK                            x       y       z     vdW  Elec       q    Type
REMARK                         _______ _______ _______ _____ _____    ______ ____
ROOT
ATOM      1  C   UNL     1       1.121   3.561   0.011  0.00  0.00    +0.173 A 
ATOM      2  C   UNL     1       2.219   4.375   0.004  0.00  0.00    +0.089 A 
ATOM      3  N   UNL     1       1.762   5.647   0.016  0.00  0.00    -0.191 N 
ATOM      4  N   UNL     1       0.361   5.573   0.029  0.00  0.00    -0.058 NA
ATOM      5  N   UNL     1       0.019   4.332   0.019  0.00  0.00    -0.124 NA
ATOM      6  C   UNL     1       2.536   6.812   0.015  0.00  0.00    +0.240 A 
ATOM      7  C   UNL     1       2.022   8.184   0.027  0.00  0.00    +0.206 A 
ATOM      8  N   UNL     1       3.037   9.003   0.022  0.00  0.00    -0.032 NA
ATOM      9  O   UNL     1       4.222   8.226   0.007  0.00  0.00    -0.239 OA
ATOM     10  N   UNL     1       3.838   6.862   0.009  0.00  0.00    -0.027 NA
ATOM     11  N   UNL     1       0.681   8.550   0.042  0.00  0.00    -0.337 N 
ATOM     12  H   UNL     1      -0.009   7.868   0.044  0.00  0.00    +0.144 HD
ATOM     13  H   UNL     1       0.434   9.489   0.049  0.00  0.00    +0.144 HD
ENDROOT
BRANCH   1  15
ATOM     14  N   UNL     1      -0.017   1.397   0.010  0.00  0.00    -0.201 N 
ATOM     15  C   UNL     1       1.141   2.087   0.002  0.00  0.00    +0.285 C 
ATOM     16  O   UNL     1       2.202   1.493  -0.011  0.00  0.00    -0.267 OA
ATOM     17  H   UNL     1      -0.864   1.870   0.016  0.00  0.00    +0.178 HD
BRANCH  14  20
ATOM     18  C   UNL     1      -2.428   0.068   0.026  0.00  0.00    +0.068 C 
ATOM     19  C   UNL     1      -1.113  -0.668   0.009  0.00  0.00    +0.063 C 
ATOM     20  N   UNL     1       0.002  -0.004   0.002  0.00  0.00    -0.184 NA
BRANCH  19  21
ATOM     21  C   UNL     1      -1.093  -2.143   0.001  0.00  0.00    -0.002 A 
ATOM     22  C   UNL     1      -2.291  -2.861   0.014  0.00  0.00    +0.011 A 
ATOM     23  C   UNL     1      -2.265  -4.239   0.000  0.00  0.00    +0.016 A 
ATOM     24  C   UNL     1      -1.055  -4.912  -0.015  0.00  0.00    +0.018 A 
ATOM     25  C   UNL     1       0.136  -4.207  -0.022  0.00  0.00    +0.016 A 
ATOM     26  C   UNL     1       0.124  -2.828  -0.014  0.00  0.00    +0.011 A 
ATOM     27 BR   UNL     1      -1.030  -6.803  -0.026  0.00  0.00    -0.050 Br
ENDBRANCH  19  21
ENDBRANCH  14  20
ENDBRANCH   1  15
BRANCH   2  28
ATOM     28  C   UNL     1       3.661   3.938  -0.011  0.00  0.00    +0.132 C 
BRANCH  28  29
ATOM     29  S   UNL     1       4.255   3.753   1.692  0.00  0.00    -0.119 S 
BRANCH  29  30
ATOM     30  C   UNL     1       5.932   3.246   1.506  0.00  0.00    +0.008 A 
ATOM     31  C   UNL     1       6.473   3.080   0.237  0.00  0.00    +0.015 A 
ATOM     32  C   UNL     1       7.789   2.688   0.095  0.00  0.00    +0.001 A 
ATOM     33  C   UNL     1       8.566   2.450   1.214  0.00  0.00    +0.000 A 
ATOM     34  C   UNL     1       8.030   2.608   2.479  0.00  0.00    +0.001 A 
ATOM     35  C   UNL     1       6.716   3.006   2.628  0.00  0.00    +0.015 A 
ENDBRANCH  29  30
ENDBRANCH  28  29
ENDBRANCH   2  28
TORSDOF 6
