REMARK  Name = ZINC00530269
REMARK  3 active torsions:
REMARK  status: ('A' for Active; 'I' for Inactive)
REMARK    1  A    between atoms: C_1  and  C_2
REMARK    2  A    between atoms: C_5  and  C_8
REMARK    3  A    between atoms: C_11  and  C_20
REMARK                            x       y       z     vdW  Elec       q    Type
REMARK                         _______ _______ _______ _____ _____    ______ ____
ROOT
ATOM      1  C   UNL     1       0.059  -4.275  -0.021  0.00  0.00    +0.143 C 
ATOM      2  C   UNL     1       1.318  -4.777   0.697  0.00  0.00    +0.059 C 
ATOM      3  C   UNL     1       1.211  -6.288   0.935  0.00  0.00    +0.107 C 
ATOM      4  N   UNL     1       0.056  -6.545   1.817  0.00  0.00    -0.307 N 
ATOM      5  C   UNL     1      -1.104  -5.838   1.531  0.00  0.00    +0.216 A 
ATOM      6  N   UNL     1      -1.121  -4.785   0.677  0.00  0.00    -0.224 N 
ATOM      7  N   UNL     1      -2.438  -4.329   0.627  0.00  0.00    -0.132 NA
ATOM      8  C   UNL     1      -3.138  -5.102   1.427  0.00  0.00    +0.233 A 
ATOM      9  N   UNL     1      -2.319  -6.016   1.979  0.00  0.00    -0.180 NA
ATOM     10  N   UNL     1      -4.508  -4.988   1.670  0.00  0.00    -0.326 N 
ATOM     11  H   UNL     1       0.105  -7.172   2.555  0.00  0.00    +0.149 HD
ATOM     12  H   UNL     1      -5.022  -4.293   1.231  0.00  0.00    +0.145 HD
ATOM     13  H   UNL     1      -4.945  -5.604   2.279  0.00  0.00    +0.145 HD
ENDROOT
BRANCH   1  18
ATOM     14  C   UNL     1      -0.018   1.503   0.010  0.00  0.00    +0.044 C 
ATOM     15  C   UNL     1       0.002  -0.004   0.002  0.00  0.00    -0.050 A 
ATOM     16  C   UNL     1       0.006  -0.689  -1.199  0.00  0.00    +0.004 A 
ATOM     17  C   UNL     1       0.025  -2.071  -1.206  0.00  0.00    +0.006 A 
ATOM     18  C   UNL     1       0.040  -2.768  -0.013  0.00  0.00    -0.023 A 
ATOM     19  C   UNL     1       0.037  -2.084   1.188  0.00  0.00    +0.006 A 
ATOM     20  C   UNL     1       0.023  -0.702   1.195  0.00  0.00    +0.004 A 
ENDBRANCH   1  18
BRANCH   3  21
ATOM     21  C   UNL     1       2.473  -6.788   1.589  0.00  0.00    -0.009 A 
ATOM     22  C   UNL     1       2.502  -7.015   2.952  0.00  0.00    +0.007 A 
ATOM     23  C   UNL     1       3.660  -7.474   3.552  0.00  0.00    +0.000 A 
ATOM     24  C   UNL     1       4.789  -7.706   2.789  0.00  0.00    +0.001 A 
ATOM     25  C   UNL     1       4.761  -7.479   1.426  0.00  0.00    +0.020 A 
ATOM     26  C   UNL     1       3.601  -7.025   0.824  0.00  0.00    +0.046 A 
ATOM     27 CL   UNL     1       3.563  -6.746  -0.889  0.00  0.00    -0.083 Cl
ENDBRANCH   3  21
TORSDOF 2
