REMARK  Name = ZINC14257829
REMARK  10 active torsions:
REMARK  status: ('A' for Active; 'I' for Inactive)
REMARK    1  A    between atoms: C_1  and  C_2
REMARK    2  A    between atoms: C_3  and  C_24
REMARK    3  A    between atoms: C_5  and  N_9
REMARK    4  A    between atoms: C_6  and  C_7
REMARK    5  A    between atoms: N_9  and  C_10
REMARK    6  A    between atoms: C_10  and  N_12
REMARK    7  A    between atoms: C_13  and  C_15
REMARK    8  A    between atoms: C_18  and  C_21
REMARK    9  A    between atoms: C_21  and  C_22
REMARK   10  A    between atoms: C_21  and  C_23
REMARK                            x       y       z     vdW  Elec       q    Type
REMARK                         _______ _______ _______ _____ _____    ______ ____
ROOT
ATOM      1  C   UNL     1       2.749   3.885  -0.004  0.00  0.00    +0.141 C 
ATOM      2  S   UNL     1       4.044   2.765  -0.021  0.00  0.00    -0.018 S 
ENDROOT
BRANCH   1   3
ATOM      3  N   UNL     1       3.004   5.209   0.001  0.00  0.00    -0.264 N 
ATOM      4  C   UNL     1       4.277   5.650  -0.009  0.00  0.00    +0.250 C 
ATOM      5  O   UNL     1       5.196   4.855  -0.022  0.00  0.00    -0.270 OA
ATOM      6  H   UNL     1       2.270   5.843   0.011  0.00  0.00    +0.157 HD
BRANCH   4   7
ATOM      7  C   UNL     1       4.556   7.101  -0.004  0.00  0.00    +0.037 A 
ATOM      8  C   UNL     1       3.502   8.018   0.004  0.00  0.00    +0.013 A 
ATOM      9  C   UNL     1       3.770   9.371   0.014  0.00  0.00    +0.004 A 
ATOM     10  C   UNL     1       5.078   9.821   0.004  0.00  0.00    -0.045 A 
ATOM     11  C   UNL     1       6.127   8.918  -0.010  0.00  0.00    +0.004 A 
ATOM     12  C   UNL     1       5.873   7.562  -0.014  0.00  0.00    +0.013 A 
BRANCH  10  13
ATOM     13  C   UNL     1       5.362  11.301   0.009  0.00  0.00    +0.013 C 
ATOM     14  C   UNL     1       4.739  11.944  -1.232  0.00  0.00    +0.012 C 
ATOM     15  C   UNL     1       4.762  11.932   1.267  0.00  0.00    +0.012 C 
ENDBRANCH  10  13
ENDBRANCH   4   7
ENDBRANCH   1   3
BRANCH   1  16
ATOM     16  N   UNL     1       1.476   3.443   0.006  0.00  0.00    -0.290 N 
ATOM     17  H   UNL     1       0.743   4.078   0.016  0.00  0.00    +0.154 HD
BRANCH  16  22
ATOM     18  C   UNL     1      -1.273  -0.807   0.010  0.00  0.00    +0.046 C 
ATOM     19  C   UNL     1       0.002  -0.004   0.002  0.00  0.00    -0.021 A 
ATOM     20  C   UNL     1       1.208  -0.602  -0.013  0.00  0.00    -0.007 A 
ATOM     21  S   UNL     1       2.344   0.769  -0.016  0.00  0.00    -0.077 S 
ATOM     22  C   UNL     1       1.214   2.081   0.002  0.00  0.00    +0.089 A 
ATOM     23  C   UNL     1      -0.018   1.439   0.010  0.00  0.00    +0.083 A 
ATOM     24  C   UNL     1       1.520  -2.076  -0.024  0.00  0.00    +0.052 C 
BRANCH  23  25
ATOM     25  C   UNL     1      -1.247   2.173   0.020  0.00  0.00    +0.102 C 
ATOM     26  N   UNL     1      -2.222   2.756   0.028  0.00  0.00    -0.191 NA
ENDBRANCH  23  25
ENDBRANCH  16  22
ENDBRANCH   1  16
TORSDOF 6
