REMARK  Name = ZINC09171920
REMARK  6 active torsions:
REMARK  status: ('A' for Active; 'I' for Inactive)
REMARK    1  A    between atoms: C_4  and  C_15
REMARK    2  A    between atoms: C_6  and  S_7
REMARK    3  A    between atoms: S_7  and  N_10
REMARK    4  A    between atoms: N_17  and  C_18
REMARK    5  A    between atoms: C_18  and  C_19
REMARK    6  A    between atoms: C_19  and  N_65
REMARK                            x       y       z     vdW  Elec       q    Type
REMARK                         _______ _______ _______ _____ _____    ______ ____
ROOT
ATOM      1  C   UNL     1      -3.535   0.220   4.464  0.00  0.00    +0.245 C 
ATOM      2  O   UNL     1      -4.082   0.273   5.549  0.00  0.00    -0.270 OA
ATOM      3  N   UNL     1      -3.834  -0.776   3.607  0.00  0.00    -0.313 N 
ATOM      4  H   UNL     1      -3.398  -0.819   2.742  0.00  0.00    +0.149 HD
ENDROOT
BRANCH   1   8
ATOM      5  C   UNL     1      -0.680   3.171   3.377  0.00  0.00    +0.030 A 
ATOM      6  C   UNL     1      -1.303   3.239   4.610  0.00  0.00    +0.022 A 
ATOM      7  C   UNL     1      -2.231   2.282   4.972  0.00  0.00    +0.053 A 
ATOM      8  C   UNL     1      -2.543   1.248   4.086  0.00  0.00    +0.057 A 
ATOM      9  C   UNL     1      -1.914   1.190   2.841  0.00  0.00    +0.043 A 
ATOM     10  C   UNL     1      -0.989   2.153   2.494  0.00  0.00    +0.106 A 
ATOM     11 CL   UNL     1      -3.008   2.365   6.522  0.00  0.00    -0.083 Cl
BRANCH  10  12
ATOM     12  S   UNL     1      -0.194   2.081   0.923  0.00  0.00    +0.061 S 
ATOM     13  O   UNL     1      -0.249   0.725   0.502  0.00  0.00    -0.153 OA
ATOM     14  O   UNL     1       1.031   2.788   1.055  0.00  0.00    -0.153 OA
BRANCH  12  15
ATOM     15  N   UNL     1      -1.127   2.944  -0.138  0.00  0.00    -0.177 NA
ATOM     16  C   UNL     1      -2.220   2.399  -0.958  0.00  0.00    +0.109 C 
ATOM     17  C   UNL     1      -2.781   3.561  -1.804  0.00  0.00    +0.018 C 
ATOM     18  C   UNL     1      -1.599   4.566  -1.838  0.00  0.00    +0.018 C 
ATOM     19  C   UNL     1      -0.996   4.384  -0.423  0.00  0.00    +0.109 C 
ENDBRANCH  12  15
ENDBRANCH  10  12
ENDBRANCH   1   8
BRANCH   3  20
ATOM     20  C   UNL     1      -4.818  -1.795   3.983  0.00  0.00    +0.092 C 
BRANCH  20  21
ATOM     21  C   UNL     1      -4.855  -2.887   2.912  0.00  0.00    -0.050 C 
ATOM     22  C   UNL     1      -5.072  -2.248   1.539  0.00  0.00    -0.010 C 
ATOM     23  C   UNL     1      -6.398  -1.485   1.535  0.00  0.00    -0.001 C 
ATOM     24  C   UNL     1      -7.544  -2.454   1.834  0.00  0.00    -0.000 C 
ATOM     25  C   UNL     1      -7.327  -3.093   3.207  0.00  0.00    -0.001 C 
ATOM     26  C   UNL     1      -6.001  -3.856   3.210  0.00  0.00    -0.010 C 
BRANCH  21  32
ATOM     27  C   UNL     1      -3.322  -4.219   4.231  0.00  0.00    -0.078 C 
ATOM     28  C   UNL     1      -2.067  -5.091   4.157  0.00  0.00    -0.019 C 
ATOM     29  C   UNL     1      -0.877  -4.230   3.725  0.00  0.00    -0.004 C 
ATOM     30  C   UNL     1      -1.192  -3.579   2.375  0.00  0.00    -0.019 C 
ATOM     31  C   UNL     1      -2.473  -2.751   2.500  0.00  0.00    -0.078 C 
ATOM     32  N   UNL     1      -3.584  -3.642   2.895  0.00  0.00    +0.384 N 
ATOM     33  H   UNL     1      -3.659  -4.404   2.211  0.00  0.00    -0.081 HD
ENDBRANCH  21  32
ENDBRANCH  20  21
ENDBRANCH   3  20
TORSDOF 6
