REMARK  Name = ZINC17085815
REMARK  9 active torsions:
REMARK  status: ('A' for Active; 'I' for Inactive)
REMARK    1  A    between atoms: C_1  and  C_2
REMARK    2  A    between atoms: C_2  and  O_3
REMARK    3  A    between atoms: O_3  and  C_4
REMARK    4  A    between atoms: C_9  and  C_10
REMARK    5  A    between atoms: C_19  and  C_23
REMARK    6  A    between atoms: C_23  and  C_24
REMARK    7  A    between atoms: C_23  and  C_25
REMARK    8  A    between atoms: C_23  and  C_26
REMARK    9  A    between atoms: C_27  and  O_29
REMARK                            x       y       z     vdW  Elec       q    Type
REMARK                         _______ _______ _______ _____ _____    ______ ____
ROOT
ATOM      1  C   UNL     1       1.415  -6.853  -0.705  0.00  0.00    +0.227 C 
ATOM      2  N   UNL     1       1.942  -5.836  -1.633  0.00  0.00    -0.313 N 
ATOM      3  C   UNL     1       1.607  -4.531  -1.361  0.00  0.00    +0.080 A 
ATOM      4  C   UNL     1       1.263  -4.097  -0.075  0.00  0.00    +0.068 A 
ATOM      5  C   UNL     1       0.945  -2.686   0.055  0.00  0.00    -0.023 A 
ATOM      6  C   UNL     1       1.013  -1.964  -1.087  0.00  0.00    -0.004 A 
ATOM      7  S   UNL     1       1.497  -3.129  -2.335  0.00  0.00    -0.078 S 
ATOM      8  C   UNL     1       0.736  -0.502  -1.251  0.00  0.00    +0.046 C 
ATOM      9  C   UNL     1       0.002  -0.004   0.002  0.00  0.00    -0.000 C 
ATOM     10  C   UNL     1       0.742  -0.514   1.242  0.00  0.00    +0.009 C 
ATOM     11  C   UNL     1       0.556  -2.027   1.373  0.00  0.00    +0.037 C 
ATOM     12  C   UNL     1       1.275  -5.112   1.010  0.00  0.00    +0.220 C 
ATOM     13  N   UNL     1       1.391  -6.365   0.669  0.00  0.00    -0.223 NA
ATOM     14  H   UNL     1       2.494  -6.074  -2.394  0.00  0.00    +0.149 HD
ENDROOT
BRANCH   1  20
ATOM     15  C   UNL     1      -0.862  -7.772  -0.197  0.00  0.00    +0.127 A 
ATOM     16  C   UNL     1      -2.153  -8.103  -0.582  0.00  0.00    +0.047 A 
ATOM     17  C   UNL     1      -2.560  -7.895  -1.885  0.00  0.00    +0.019 A 
ATOM     18  C   UNL     1      -1.683  -7.351  -2.806  0.00  0.00    +0.018 A 
ATOM     19  C   UNL     1      -0.397  -7.014  -2.424  0.00  0.00    +0.026 A 
ATOM     20  C   UNL     1       0.014  -7.221  -1.121  0.00  0.00    +0.037 A 
ATOM     21 BR   UNL     1      -2.242  -7.067  -4.590  0.00  0.00    -0.050 Br
BRANCH  15  22
ATOM     22  O   UNL     1      -0.458  -7.981   1.083  0.00  0.00    -0.492 OA
BRANCH  22  24
ATOM     23  C   UNL     1      -0.782  -8.711   3.364  0.00  0.00    +0.048 C 
ATOM     24  C   UNL     1      -1.413  -8.552   1.980  0.00  0.00    +0.225 C 
ENDBRANCH  22  24
ENDBRANCH  15  22
ENDBRANCH   1  20
BRANCH   9  25
ATOM     25  C   UNL     1      -0.019   1.526   0.010  0.00  0.00    -0.035 C 
ATOM     26  C   UNL     1       1.417   2.055  -0.000  0.00  0.00    +0.011 C 
ATOM     27  C   UNL     1      -0.759   2.033  -1.229  0.00  0.00    +0.011 C 
ATOM     28  C   UNL     1      -0.735   2.019   1.269  0.00  0.00    +0.011 C 
ENDBRANCH   9  25
BRANCH  12  29
ATOM     29  O   UNL     1       1.169  -4.748   2.309  0.00  0.00    -0.492 OA
ATOM     30  H   UNL     1       1.188  -5.490   2.929  0.00  0.00    +0.294 HD
ENDBRANCH  12  29
TORSDOF 5
