REMARK  Name = ZINC04418648
REMARK  6 active torsions:
REMARK  status: ('A' for Active; 'I' for Inactive)
REMARK    1  A    between atoms: C_4  and  C_7
REMARK    2  A    between atoms: C_8  and  C_20
REMARK    3  A    between atoms: C_10  and  C_13
REMARK    4  A    between atoms: C_16  and  O_19
REMARK    5  A    between atoms: C_23  and  C_26
REMARK    6  A    between atoms: C_29  and  N_32
REMARK                            x       y       z     vdW  Elec       q    Type
REMARK                         _______ _______ _______ _____ _____    ______ ____
ROOT
ATOM      1  C   UNL     1       3.660  -0.601  -0.088  0.00  0.00    +0.072 A 
ATOM      2  C   UNL     1       3.985  -1.861  -0.812  0.00  0.00    +0.072 A 
ATOM      3  N   UNL     1       5.225  -2.179  -0.475  0.00  0.00    -0.339 N 
ATOM      4  C   UNL     1       5.713  -1.274   0.367  0.00  0.00    +0.117 A 
ATOM      5  N   UNL     1       4.784  -0.294   0.620  0.00  0.00    -0.339 N 
ATOM      6  H   UNL     1       4.905   0.475   1.199  0.00  0.00    +0.167 HD
ATOM      7  H   UNL     1       5.707  -2.957  -0.796  0.00  0.00    +0.167 HD
ENDROOT
BRANCH   1  11
ATOM      8  C   UNL     1       0.079   1.545  -0.215  0.00  0.00    +0.000 A 
ATOM      9  C   UNL     1       1.287   2.214  -0.356  0.00  0.00    +0.001 A 
ATOM     10  C   UNL     1       2.464   1.524  -0.316  0.00  0.00    +0.010 A 
ATOM     11  C   UNL     1       2.449   0.125  -0.131  0.00  0.00    +0.000 A 
ATOM     12  C   UNL     1       1.214  -0.543   0.012  0.00  0.00    +0.010 A 
ATOM     13  C   UNL     1       0.051   0.169  -0.032  0.00  0.00    +0.001 A 
ENDBRANCH   1  11
BRANCH   4  14
ATOM     14  C   UNL     1       7.056  -1.314   0.943  0.00  0.00    +0.016 A 
ATOM     15  C   UNL     1       7.938  -2.360   0.610  0.00  0.00    +0.015 A 
ATOM     16  C   UNL     1       9.189  -2.391   1.149  0.00  0.00    +0.046 A 
ATOM     17  C   UNL     1       9.597  -1.389   2.031  0.00  0.00    +0.117 A 
ATOM     18  C   UNL     1       8.728  -0.349   2.366  0.00  0.00    +0.046 A 
ATOM     19  C   UNL     1       7.476  -0.303   1.828  0.00  0.00    +0.015 A 
BRANCH  17  20
ATOM     20  O   UNL     1      10.842  -1.425   2.564  0.00  0.00    -0.507 OA
ATOM     21  H   UNL     1      11.508  -0.962   2.038  0.00  0.00    +0.292 HD
ENDBRANCH  17  20
ENDBRANCH   4  14
BRANCH   2  22
ATOM     22  C   UNL     1       3.105  -2.603  -1.718  0.00  0.00    +0.000 A 
ATOM     23  C   UNL     1       2.391  -1.923  -2.723  0.00  0.00    +0.010 A 
ATOM     24  C   UNL     1       1.574  -2.617  -3.563  0.00  0.00    +0.009 A 
ATOM     25  C   UNL     1       1.443  -4.005  -3.428  0.00  0.00    -0.018 A 
ATOM     26  C   UNL     1       2.152  -4.686  -2.429  0.00  0.00    +0.009 A 
ATOM     27  C   UNL     1       2.976  -3.999  -1.589  0.00  0.00    +0.010 A 
BRANCH  25  28
ATOM     28  C   UNL     1       0.554  -4.755  -4.342  0.00  0.00    -0.018 A 
ATOM     29  C   UNL     1      -0.151  -4.082  -5.343  0.00  0.00    +0.011 A 
ATOM     30  C   UNL     1      -0.978  -4.787  -6.192  0.00  0.00    +0.033 A 
ATOM     31  C   UNL     1      -1.111  -6.158  -6.053  0.00  0.00    +0.126 A 
ATOM     32  C   UNL     1      -0.415  -6.831  -5.063  0.00  0.00    +0.033 A 
ATOM     33  C   UNL     1       0.420  -6.139  -4.212  0.00  0.00    +0.011 A 
BRANCH  31  34
ATOM     34  N   UNL     1      -2.001  -6.908  -6.968  0.00  0.00    +0.056 N 
ATOM     35  O   UNL     1      -2.664  -6.271  -7.911  0.00  0.00    -0.126 OA
ATOM     36  O   UNL     1      -2.129  -8.212  -6.839  0.00  0.00    -0.126 OA
ENDBRANCH  31  34
ENDBRANCH  25  28
ENDBRANCH   2  22
TORSDOF 6
