REMARK  Name = ZINC20207389
REMARK  9 active torsions:
REMARK  status: ('A' for Active; 'I' for Inactive)
REMARK    1  A    between atoms: C_1  and  C_2
REMARK    2  A    between atoms: C_6  and  C_8
REMARK    3  A    between atoms: C_8  and  O_10
REMARK    4  A    between atoms: O_10  and  C_11
REMARK    5  A    between atoms: C_14  and  C_17
REMARK    6  A    between atoms: C_28  and  S_29
REMARK    7  A    between atoms: S_29  and  C_32
REMARK    8  A    between atoms: C_32  and  C_33
REMARK    9  A    between atoms: C_32  and  C_34
REMARK                            x       y       z     vdW  Elec       q    Type
REMARK                         _______ _______ _______ _____ _____    ______ ____
ROOT
ATOM      1  C   UNL     1      -1.191  -7.177   8.104  0.00  0.00    +0.024 C 
ATOM      2  C   UNL     1      -0.551  -8.336   7.727  0.00  0.00    +0.078 C 
ATOM      3  C   UNL     1       0.209  -9.169   8.703  0.00  0.00    +0.117 C 
ATOM      4  N   UNL     1      -0.121  -9.284   9.960  0.00  0.00    -0.386 N 
ATOM      5  N   UNL     1       1.321  -9.819   8.129  0.00  0.00    -0.203 N 
ATOM      6  C   UNL     1       1.321 -10.041   6.768  0.00  0.00    +0.183 C 
ATOM      7  N   UNL     1       0.424  -9.618   5.905  0.00  0.00    -0.152 NA
ATOM      8  C   UNL     1      -0.584  -8.830   6.327  0.00  0.00    +0.273 C 
ATOM      9  O   UNL     1      -1.499  -8.526   5.579  0.00  0.00    -0.268 OA
ATOM     10  S   UNL     1       2.710 -10.931   6.527  0.00  0.00    +0.049 S 
ATOM     11  N   UNL     1       3.315 -10.919   8.090  0.00  0.00    -0.174 NA
ATOM     12  C   UNL     1       2.420 -10.276   8.774  0.00  0.00    +0.257 C 
ATOM     13  H   UNL     1      -0.872  -8.781  10.313  0.00  0.00    +0.157 HD
ATOM     14  H   UNL     1       0.384  -9.873  10.543  0.00  0.00    +0.157 HD
ENDROOT
BRANCH   1  18
ATOM     15  C   UNL     1      -2.862  -4.630   5.165  0.00  0.00    +0.132 A 
ATOM     16  C   UNL     1      -3.503  -4.789   6.389  0.00  0.00    +0.047 A 
ATOM     17  C   UNL     1      -2.967  -5.613   7.345  0.00  0.00    +0.011 A 
ATOM     18  C   UNL     1      -1.770  -6.296   7.086  0.00  0.00    -0.024 A 
ATOM     19  C   UNL     1      -1.128  -6.131   5.851  0.00  0.00    +0.011 A 
ATOM     20  C   UNL     1      -1.677  -5.308   4.901  0.00  0.00    +0.047 A 
BRANCH  15  21
ATOM     21  O   UNL     1      -3.397  -3.813   4.223  0.00  0.00    -0.422 OA
BRANCH  21  22
ATOM     22  C   UNL     1      -3.266  -2.482   4.390  0.00  0.00    +0.344 C 
ATOM     23  O   UNL     1      -2.762  -2.045   5.405  0.00  0.00    -0.245 OA
BRANCH  22  29
ATOM     24  C   UNL     1      -3.896   2.172   2.706  0.00  0.00    +0.044 C 
ATOM     25  C   UNL     1      -4.040   0.683   2.524  0.00  0.00    -0.050 A 
ATOM     26  C   UNL     1      -4.613   0.181   1.369  0.00  0.00    +0.003 A 
ATOM     27  C   UNL     1      -4.750  -1.185   1.194  0.00  0.00    +0.001 A 
ATOM     28  C   UNL     1      -4.314  -2.056   2.171  0.00  0.00    +0.015 A 
ATOM     29  C   UNL     1      -3.734  -1.556   3.339  0.00  0.00    +0.060 A 
ATOM     30  C   UNL     1      -3.595  -0.176   3.507  0.00  0.00    +0.018 A 
ENDBRANCH  22  29
ENDBRANCH  21  22
ENDBRANCH  15  21
ENDBRANCH   1  18
BRANCH  12  31
ATOM     31  S   UNL     1       2.630 -10.002  10.502  0.00  0.00    +0.031 S 
ATOM     32  O   UNL     1       2.127  -8.693  10.726  0.00  0.00    -0.166 OA
ATOM     33  O   UNL     1       2.023 -11.127  11.123  0.00  0.00    -0.166 OA
BRANCH  31  34
ATOM     34  C   UNL     1       4.424 -10.036  10.765  0.00  0.00    +0.133 C 
ATOM     35  C   UNL     1       4.732  -9.700  12.225  0.00  0.00    +0.032 C 
ATOM     36  C   UNL     1       4.962 -11.430  10.438  0.00  0.00    +0.032 C 
ENDBRANCH  31  34
ENDBRANCH  12  31
TORSDOF 6
