REMARK  Name = ZINC40981219
REMARK  11 active torsions:
REMARK  status: ('A' for Active; 'I' for Inactive)
REMARK    1  A    between atoms: C_1  and  C_2
REMARK    2  A    between atoms: C_2  and  C_3
REMARK    3  A    between atoms: C_3  and  S_4
REMARK    4  A    between atoms: S_4  and  C_5
REMARK    5  A    between atoms: C_10  and  C_20
REMARK    6  A    between atoms: C_23  and  O_29
REMARK    7  A    between atoms: C_24  and  O_26
REMARK    8  A    between atoms: O_26  and  C_27
REMARK    9  A    between atoms: C_27  and  C_28
REMARK   10  A    between atoms: O_29  and  C_30
REMARK   11  A    between atoms: C_30  and  C_31
REMARK                            x       y       z     vdW  Elec       q    Type
REMARK                         _______ _______ _______ _____ _____    ______ ____
ROOT
ATOM      1  C   UNL     1      -3.112  -2.797   0.017  0.00  0.00    +0.210 A 
ATOM      2  N   UNL     1      -4.144  -1.940   0.025  0.00  0.00    -0.187 NA
ATOM      3  C   UNL     1      -5.265  -2.608   0.032  0.00  0.00    +0.219 A 
ATOM      4  N   UNL     1      -4.969  -3.930   0.032  0.00  0.00    -0.220 N 
ATOM      5  N   UNL     1      -3.578  -4.028   0.015  0.00  0.00    -0.141 NA
ATOM      6  C   UNL     1      -5.981  -4.979   0.048  0.00  0.00    +0.176 C 
ATOM      7  C   UNL     1      -7.337  -4.395  -0.280  0.00  0.00    +0.041 C 
ATOM      8  C   UNL     1      -7.568  -3.064  -0.264  0.00  0.00    +0.020 C 
ATOM      9  N   UNL     1      -6.576  -2.161   0.035  0.00  0.00    -0.287 N 
ATOM     10  C   UNL     1      -8.939  -2.512  -0.572  0.00  0.00    +0.052 C 
ATOM     11  C   UNL     1      -9.648  -3.425  -1.575  0.00  0.00    +0.014 C 
ATOM     12  C   UNL     1      -9.743  -4.828  -0.966  0.00  0.00    +0.080 C 
ATOM     13  C   UNL     1      -8.361  -5.301  -0.609  0.00  0.00    +0.163 C 
ATOM     14  O   UNL     1      -8.124  -6.492  -0.606  0.00  0.00    -0.292 OA
ATOM     15  H   UNL     1      -6.788  -1.237   0.242  0.00  0.00    +0.155 HD
ENDROOT
BRANCH   6  16
ATOM     16  C   UNL     1      -6.027  -5.608   1.417  0.00  0.00    -0.015 A 
ATOM     17  C   UNL     1      -6.334  -4.835   2.521  0.00  0.00    +0.010 A 
ATOM     18  C   UNL     1      -6.378  -5.407   3.779  0.00  0.00    +0.050 A 
ATOM     19  C   UNL     1      -6.115  -6.759   3.935  0.00  0.00    +0.162 A 
ATOM     20  C   UNL     1      -5.807  -7.537   2.823  0.00  0.00    +0.162 A 
ATOM     21  C   UNL     1      -5.769  -6.958   1.565  0.00  0.00    +0.055 A 
BRANCH  20  22
ATOM     22  O   UNL     1      -5.549  -8.864   2.971  0.00  0.00    -0.489 OA
BRANCH  22  23
ATOM     23  C   UNL     1      -5.240  -9.601   1.786  0.00  0.00    +0.226 C 
ATOM     24  C   UNL     1      -4.980 -11.065   2.148  0.00  0.00    +0.048 C 
ENDBRANCH  22  23
ENDBRANCH  20  22
BRANCH  19  25
ATOM     25  O   UNL     1      -6.158  -7.324   5.171  0.00  0.00    -0.484 OA
BRANCH  25  26
ATOM     26  C   UNL     1      -6.480  -6.464   6.266  0.00  0.00    +0.264 C 
BRANCH  26  27
ATOM     27  C   UNL     1      -6.480  -7.259   7.546  0.00  0.00    -0.010 A 
ATOM     28  C   UNL     1      -7.641  -7.872   7.979  0.00  0.00    +0.008 A 
ATOM     29  C   UNL     1      -7.642  -8.601   9.153  0.00  0.00    +0.020 A 
ATOM     30  C   UNL     1      -6.480  -8.718   9.895  0.00  0.00    +0.041 A 
ATOM     31  C   UNL     1      -5.319  -8.105   9.461  0.00  0.00    +0.020 A 
ATOM     32  C   UNL     1      -5.318  -7.380   8.284  0.00  0.00    +0.008 A 
ATOM     33 CL   UNL     1      -6.480  -9.634  11.370  0.00  0.00    -0.084 Cl
ENDBRANCH  26  27
ENDBRANCH  25  26
ENDBRANCH  19  25
ENDBRANCH   6  16
BRANCH   1  34
ATOM     34  S   UNL     1      -1.409  -2.348   0.003  0.00  0.00    -0.084 S 
BRANCH  34  35
ATOM     35  C   UNL     1      -1.433  -0.534   0.013  0.00  0.00    +0.077 C 
BRANCH  35  37
ATOM     36  C   UNL     1      -0.019   1.526   0.010  0.00  0.00    +0.004 C 
ATOM     37  C   UNL     1       0.002  -0.004   0.002  0.00  0.00    +0.008 C 
ENDBRANCH  35  37
ENDBRANCH  34  35
ENDBRANCH   1  34
TORSDOF 9
