REMARK  Name = ZINC36207671
REMARK  13 active torsions:
REMARK  status: ('A' for Active; 'I' for Inactive)
REMARK    1  A    between atoms: C_1  and  C_2
REMARK    2  A    between atoms: C_2  and  N_3
REMARK    3  A    between atoms: N_3  and  C_4
REMARK    4  A    between atoms: N_3  and  C_23
REMARK    5  A    between atoms: C_4  and  C_5
REMARK    6  A    between atoms: C_11  and  C_16
REMARK    7  A    between atoms: C_21  and  C_22
REMARK    8  A    between atoms: C_23  and  C_24
REMARK    9  A    between atoms: C_24  and  C_26
REMARK   10  A    between atoms: C_24  and  O_35
REMARK   11  A    between atoms: C_26  and  O_27
REMARK   12  A    between atoms: O_27  and  C_28
REMARK   13  A    between atoms: C_33  and  C_34
REMARK                            x       y       z     vdW  Elec       q    Type
REMARK                         _______ _______ _______ _____ _____    ______ ____
ROOT
ATOM      1  C   UNL     1      -2.153  -0.014  -0.890  0.00  0.00    -0.003 C 
ENDROOT
BRANCH   1   2
ATOM      2  C   UNL     1      -2.197   1.492  -0.855  0.00  0.00    +0.094 A 
ATOM      3  N   UNL     1      -2.855   2.164  -1.834  0.00  0.00    -0.312 N 
ATOM      4  H   UNL     1      -3.289   1.665  -2.544  0.00  0.00    +0.170 HD
ATOM      5  C   UNL     1      -2.918   3.508  -1.839  0.00  0.00    +0.260 A 
ATOM      6  O   UNL     1      -3.514   4.096  -2.725  0.00  0.00    -0.267 OA
ATOM      7  C   UNL     1      -2.276   4.237  -0.788  0.00  0.00    +0.080 A 
ATOM      8  C   UNL     1      -2.203   5.677  -0.574  0.00  0.00    +0.004 A 
ATOM      9  C   UNL     1      -1.531   6.143   0.506  0.00  0.00    +0.056 A 
ATOM     10  S   UNL     1      -0.952   4.657   1.304  0.00  0.00    -0.076 S 
ATOM     11  C   UNL     1      -1.620   3.458   0.179  0.00  0.00    +0.116 A 
ATOM     12  N   UNL     1      -1.606   2.129   0.120  0.00  0.00    -0.229 NA
BRANCH   8  13
ATOM     13  C   UNL     1      -2.852   6.615  -1.521  0.00  0.00    -0.014 A 
ATOM     14  C   UNL     1      -2.077   7.489  -2.282  0.00  0.00    +0.009 A 
ATOM     15  C   UNL     1      -2.687   8.359  -3.163  0.00  0.00    +0.001 A 
ATOM     16  C   UNL     1      -4.065   8.365  -3.291  0.00  0.00    +0.000 A 
ATOM     17  C   UNL     1      -4.839   7.500  -2.538  0.00  0.00    +0.004 A 
ATOM     18  C   UNL     1      -4.239   6.622  -1.658  0.00  0.00    -0.043 A 
ATOM     19  C   UNL     1      -5.084   5.676  -0.843  0.00  0.00    +0.044 C 
ENDBRANCH   8  13
ENDBRANCH   1   2
BRANCH   1  20
ATOM     20  N   UNL     1      -1.275  -0.503   0.181  0.00  0.00    +0.386 N 
ATOM     21  H   UNL     1      -1.573  -0.116   1.063  0.00  0.00    -0.081 HD
BRANCH  20  23
ATOM     22  C   UNL     1       0.607  -0.791  -1.360  0.00  0.00    -0.017 C 
ATOM     23  C   UNL     1       0.108  -0.092  -0.093  0.00  0.00    -0.082 C 
ENDBRANCH  20  23
BRANCH  20  24
ATOM     24  C   UNL     1      -1.347  -1.970   0.241  0.00  0.00    -0.043 C 
BRANCH  24  25
ATOM     25  C   UNL     1      -0.571  -2.468   1.462  0.00  0.00    +0.135 C 
BRANCH  25  26
ATOM     26  O   UNL     1       0.821  -2.202   1.283  0.00  0.00    -0.390 OA
ATOM     27  H   UNL     1       1.207  -2.629   0.506  0.00  0.00    +0.210 HD
ENDBRANCH  25  26
BRANCH  25  28
ATOM     28  C   UNL     1      -0.786  -3.975   1.622  0.00  0.00    +0.258 C 
BRANCH  28  29
ATOM     29  O   UNL     1      -0.158  -4.420   2.826  0.00  0.00    -0.489 OA
BRANCH  29  30
ATOM     30  C   UNL     1      -0.255  -5.744   3.119  0.00  0.00    +0.124 A 
ATOM     31  C   UNL     1      -0.936  -6.597   2.263  0.00  0.00    +0.046 A 
ATOM     32  C   UNL     1      -1.033  -7.942   2.563  0.00  0.00    +0.004 A 
ATOM     33  C   UNL     1      -0.453  -8.438   3.716  0.00  0.00    +0.000 A 
ATOM     34  C   UNL     1       0.226  -7.589   4.571  0.00  0.00    +0.007 A 
ATOM     35  C   UNL     1       0.331  -6.244   4.272  0.00  0.00    -0.009 A 
ATOM     36  C   UNL     1       1.076  -5.321   5.202  0.00  0.00    +0.047 C 
ENDBRANCH  29  30
ENDBRANCH  28  29
ENDBRANCH  25  28
ENDBRANCH  24  25
ENDBRANCH  20  24
ENDBRANCH   1  20
TORSDOF 10
