REMARK  Name = ZINC06806570
REMARK  4 active torsions:
REMARK  status: ('A' for Active; 'I' for Inactive)
REMARK    1  A    between atoms: C_1  and  C_2
REMARK    2  A    between atoms: N_7  and  C_17
REMARK    3  A    between atoms: C_17  and  C_18
REMARK    4  A    between atoms: N_20  and  C_21
REMARK                            x       y       z     vdW  Elec       q    Type
REMARK                         _______ _______ _______ _____ _____    ______ ____
ROOT
ATOM      1  C   UNL     1      -0.043   1.516  -0.008  0.00  0.00    +0.032 C 
ATOM      2  C   UNL     1      -0.020  -0.014  -0.019  0.00  0.00    +0.142 C 
ATOM      3  C   UNL     1       0.732  -0.517  -1.264  0.00  0.00    +0.122 C 
ATOM      4  C   UNL     1       1.161  -1.942  -1.074  0.00  0.00    +0.222 C 
ATOM      5  O   UNL     1       0.414  -2.836  -1.411  0.00  0.00    -0.275 OA
ATOM      6  N   UNL     1       2.349  -2.249  -0.539  0.00  0.00    -0.261 N 
ATOM      7  C   UNL     1       3.139  -1.260   0.060  0.00  0.00    +0.062 A 
ATOM      8  C   UNL     1       4.473  -1.110  -0.292  0.00  0.00    +0.025 A 
ATOM      9  C   UNL     1       5.234  -0.128   0.314  0.00  0.00    +0.002 A 
ATOM     10  C   UNL     1       4.670   0.702   1.266  0.00  0.00    +0.002 A 
ATOM     11  C   UNL     1       3.340   0.554   1.617  0.00  0.00    +0.029 A 
ATOM     12  C   UNL     1       2.578  -0.425   1.015  0.00  0.00    +0.110 A 
ATOM     13  S   UNL     1       0.877  -0.633   1.444  0.00  0.00    +0.002 S 
ATOM     14  O   UNL     1       0.701  -2.037   1.572  0.00  0.00    -0.169 OA
ATOM     15  O   UNL     1       0.669   0.232   2.552  0.00  0.00    -0.169 OA
ENDROOT
BRANCH   6  16
ATOM     16  C   UNL     1       2.828  -3.633  -0.581  0.00  0.00    +0.209 C 
BRANCH  16  17
ATOM     17  C   UNL     1       3.619  -3.852  -1.845  0.00  0.00    +0.235 C 
ATOM     18  O   UNL     1       3.769  -2.942  -2.632  0.00  0.00    -0.274 OA
ATOM     19  N   UNL     1       4.161  -5.060  -2.099  0.00  0.00    -0.282 N 
ATOM     20  H   UNL     1       4.111  -5.764  -1.434  0.00  0.00    +0.155 HD
BRANCH  19  21
ATOM     21  C   UNL     1       4.797  -5.298  -3.324  0.00  0.00    +0.069 A 
ATOM     22  C   UNL     1       4.455  -4.550  -4.442  0.00  0.00    +0.026 A 
ATOM     23  C   UNL     1       5.085  -4.787  -5.649  0.00  0.00    +0.002 A 
ATOM     24  C   UNL     1       6.054  -5.768  -5.745  0.00  0.00    +0.003 A 
ATOM     25  C   UNL     1       6.398  -6.516  -4.634  0.00  0.00    +0.040 A 
ATOM     26  C   UNL     1       5.776  -6.281  -3.421  0.00  0.00    +0.144 A 
ATOM     27  F   UNL     1       6.116  -7.008  -2.334  0.00  0.00    -0.204 F 
ENDBRANCH  19  21
ENDBRANCH  16  17
ENDBRANCH   6  16
TORSDOF 3
