REMARK  Name = ZINC15942651
REMARK  7 active torsions:
REMARK  status: ('A' for Active; 'I' for Inactive)
REMARK    1  A    between atoms: C_3  and  C_8
REMARK    2  A    between atoms: C_8  and  N_9
REMARK    3  A    between atoms: C_12  and  C_15
REMARK    4  A    between atoms: C_15  and  N_16
REMARK    5  A    between atoms: N_16  and  S_17
REMARK    6  A    between atoms: S_17  and  C_20
REMARK    7  A    between atoms: C_23  and  C_25
REMARK                            x       y       z     vdW  Elec       q    Type
REMARK                         _______ _______ _______ _____ _____    ______ ____
ROOT
ATOM      1  N   UNL     1       6.635   4.982   5.080  0.00  0.00    -0.189 NA
ATOM      2  H   UNL     1       7.163   5.109   4.276  0.00  0.00    +0.148 HD
ENDROOT
BRANCH   1   3
ATOM      3  S   UNL     1       7.171   5.588   6.525  0.00  0.00    +0.065 S 
ATOM      4  O   UNL     1       8.425   6.205   6.268  0.00  0.00    -0.153 OA
ATOM      5  O   UNL     1       6.079   6.292   7.100  0.00  0.00    -0.153 OA
BRANCH   3   6
ATOM      6  C   UNL     1       7.493   4.212   7.578  0.00  0.00    +0.143 A 
ATOM      7  C   UNL     1       8.646   3.512   7.740  0.00  0.00    +0.037 A 
ATOM      8  C   UNL     1       8.673   2.460   8.628  0.00  0.00    +0.020 A 
ATOM      9  C   UNL     1       7.533   2.155   9.322  0.00  0.00    +0.041 A 
ATOM     10  S   UNL     1       6.391   3.386   8.714  0.00  0.00    -0.067 S 
BRANCH   9  11
ATOM     11  C   UNL     1       7.307   1.088  10.319  0.00  0.00    +0.098 A 
ATOM     12  C   UNL     1       6.033   0.941  10.920  0.00  0.00    +0.036 A 
ATOM     13  C   UNL     1       5.862  -0.054  11.836  0.00  0.00    +0.073 A 
ATOM     14  C   UNL     1       6.970  -0.880  12.129  0.00  0.00    +0.265 A 
ATOM     15  O   UNL     1       6.864  -1.784  12.942  0.00  0.00    -0.266 OA
ATOM     16  N   UNL     1       8.144  -0.663  11.507  0.00  0.00    -0.243 N 
ATOM     17  H   UNL     1       8.900  -1.234  11.713  0.00  0.00    +0.192 HD
ATOM     18  N   UNL     1       8.288   0.275  10.642  0.00  0.00    -0.170 NA
ENDBRANCH   9  11
ENDBRANCH   3   6
ENDBRANCH   1   3
BRANCH   1  19
ATOM     19  C   UNL     1       5.364   4.256   5.016  0.00  0.00    +0.109 C 
BRANCH  19  23
ATOM     20  N   UNL     1       4.105   2.430   1.361  0.00  0.00    +0.382 N 
ATOM     21  C   UNL     1       3.129   3.296   2.033  0.00  0.00    -0.078 C 
ATOM     22  C   UNL     1       3.533   3.487   3.496  0.00  0.00    -0.014 C 
ATOM     23  C   UNL     1       4.920   4.135   3.557  0.00  0.00    +0.001 C 
ATOM     24  C   UNL     1       5.915   3.259   2.789  0.00  0.00    -0.014 C 
ATOM     25  C   UNL     1       5.423   3.077   1.352  0.00  0.00    -0.078 C 
ATOM     26  H   UNL     1       4.166   1.551   1.853  0.00  0.00    -0.081 HD
BRANCH  20  27
ATOM     27  C   UNL     1       3.672   2.186  -0.021  0.00  0.00    -0.043 C 
BRANCH  27  30
ATOM     28  C   UNL     1      -0.017   1.377   0.010  0.00  0.00    +0.003 A 
ATOM     29  C   UNL     1       1.171   2.086   0.002  0.00  0.00    +0.002 A 
ATOM     30  C   UNL     1       2.378   1.413  -0.013  0.00  0.00    -0.061 A 
ATOM     31  C   UNL     1       2.399   0.030  -0.021  0.00  0.00    +0.040 A 
ATOM     32  C   UNL     1       1.211  -0.679  -0.013  0.00  0.00    +0.124 A 
ATOM     33  C   UNL     1       0.002  -0.004   0.002  0.00  0.00    +0.038 A 
ATOM     34  F   UNL     1       1.230  -2.030  -0.022  0.00  0.00    -0.205 F 
ENDBRANCH  27  30
ENDBRANCH  20  27
ENDBRANCH  19  23
ENDBRANCH   1  19
TORSDOF 7
