REMARK  Name = ZINC14482767
REMARK  5 active torsions:
REMARK  status: ('A' for Active; 'I' for Inactive)
REMARK    1  A    between atoms: C_7  and  C_13
REMARK    2  A    between atoms: N_15  and  C_16
REMARK    3  A    between atoms: C_19  and  N_22
REMARK    4  A    between atoms: N_22  and  S_23
REMARK    5  A    between atoms: S_23  and  C_26
REMARK                            x       y       z     vdW  Elec       q    Type
REMARK                         _______ _______ _______ _____ _____    ______ ____
ROOT
ATOM      1  C   UNL     1       4.938   1.975  -4.264  0.00  0.00    +0.034 A 
ATOM      2  C   UNL     1       5.788   0.878  -4.239  0.00  0.00    +0.025 A 
ATOM      3  C   UNL     1       5.564  -0.149  -3.344  0.00  0.00    +0.026 A 
ATOM      4  C   UNL     1       4.489  -0.084  -2.468  0.00  0.00    +0.048 A 
ATOM      5  C   UNL     1       3.635   1.011  -2.496  0.00  0.00    +0.026 A 
ATOM      6  C   UNL     1       3.862   2.040  -3.388  0.00  0.00    +0.025 A 
ENDROOT
BRANCH   1   9
ATOM      7  C   UNL     1       5.687   2.752  -6.386  0.00  0.00    +0.225 C 
ATOM      8  O   UNL     1       5.872   1.603  -6.728  0.00  0.00    -0.275 OA
ATOM      9  N   UNL     1       5.165   3.018  -5.173  0.00  0.00    -0.285 N 
ATOM     10  H   UNL     1       4.947   3.931  -4.928  0.00  0.00    +0.155 HD
BRANCH   7  17
ATOM     11  C   UNL     1       6.286   2.580 -10.854  0.00  0.00    +0.000 A 
ATOM     12  C   UNL     1       7.633   2.284 -10.949  0.00  0.00    +0.002 A 
ATOM     13  C   UNL     1       8.468   2.504  -9.871  0.00  0.00    +0.023 A 
ATOM     14  C   UNL     1       7.953   3.023  -8.691  0.00  0.00    +0.037 A 
ATOM     15  C   UNL     1       6.599   3.320  -8.600  0.00  0.00    -0.014 A 
ATOM     16  C   UNL     1       5.769   3.097  -9.681  0.00  0.00    +0.006 A 
ATOM     17  C   UNL     1       6.040   3.882  -7.319  0.00  0.00    +0.116 C 
ATOM     18  C   UNL     1       7.085   4.781  -6.656  0.00  0.00    +0.113 C 
ATOM     19  C   UNL     1       8.411   4.072  -6.603  0.00  0.00    +0.218 C 
ATOM     20  O   UNL     1       9.145   4.245  -5.652  0.00  0.00    -0.275 OA
ATOM     21  N   UNL     1       8.792   3.249  -7.596  0.00  0.00    -0.285 N 
ATOM     22  H   UNL     1       9.656   2.808  -7.553  0.00  0.00    +0.155 HD
ENDBRANCH   7  17
ENDBRANCH   1   9
BRANCH   4  23
ATOM     23  N   UNL     1       4.261  -1.125  -1.561  0.00  0.00    -0.216 N 
ATOM     24  H   UNL     1       3.533  -1.747  -1.709  0.00  0.00    +0.174 HD
BRANCH  23  25
ATOM     25  S   UNL     1       5.237  -1.293  -0.233  0.00  0.00    +0.072 S 
ATOM     26  O   UNL     1       6.576  -1.280  -0.708  0.00  0.00    -0.150 OA
ATOM     27  O   UNL     1       4.708  -2.373   0.525  0.00  0.00    -0.150 OA
BRANCH  25  28
ATOM     28  C   UNL     1       5.037   0.157   0.748  0.00  0.00    +0.112 A 
ATOM     29  C   UNL     1       3.989   0.241   1.647  0.00  0.00    +0.032 A 
ATOM     30  C   UNL     1       3.825   1.377   2.420  0.00  0.00    +0.051 A 
ATOM     31  C   UNL     1       4.715   2.429   2.291  0.00  0.00    +0.162 A 
ATOM     32  C   UNL     1       5.766   2.345   1.389  0.00  0.00    +0.164 A 
ATOM     33  C   UNL     1       5.928   1.207   0.616  0.00  0.00    +0.078 A 
ATOM     34  O   UNL     1       6.637   3.389   1.267  0.00  0.00    -0.488 OA
ATOM     35  C   UNL     1       7.485   3.629   2.392  0.00  0.00    +0.232 C 
ATOM     36  C   UNL     1       6.775   4.486   3.429  0.00  0.00    +0.082 C 
ATOM     37  C   UNL     1       5.571   3.783   4.036  0.00  0.00    +0.232 C 
ATOM     38  O   UNL     1       4.562   3.557   3.043  0.00  0.00    -0.488 OA
ENDBRANCH  25  28
ENDBRANCH  23  25
ENDBRANCH   4  23
TORSDOF 5
