REMARK  Name = ZINC12704430
REMARK  9 active torsions:
REMARK  status: ('A' for Active; 'I' for Inactive)
REMARK    1  A    between atoms: C_1  and  C_2
REMARK    2  A    between atoms: C_2  and  N_64
REMARK    3  A    between atoms: C_6  and  C_8
REMARK    4  A    between atoms: C_8  and  N_9
REMARK    5  A    between atoms: N_9  and  C_10
REMARK    6  A    between atoms: C_10  and  C_11
REMARK    7  A    between atoms: C_16  and  C_24
REMARK    8  A    between atoms: C_17  and  C_23
REMARK    9  A    between atoms: N_27  and  C_28
REMARK                            x       y       z     vdW  Elec       q    Type
REMARK                         _______ _______ _______ _____ _____    ______ ____
ROOT
ATOM      1  N   UNL     1      -3.092  -3.344  -1.032  0.00  0.00    -0.282 N 
ATOM      2  C   UNL     1      -3.020  -4.614  -1.475  0.00  0.00    +0.307 C 
ATOM      3  O   UNL     1      -2.555  -5.481  -0.761  0.00  0.00    -0.252 OA
ATOM      4  N   UNL     1      -3.463  -4.924  -2.710  0.00  0.00    -0.269 N 
ATOM      5  H   UNL     1      -3.905  -4.250  -3.250  0.00  0.00    +0.156 HD
ENDROOT
BRANCH   4   6
ATOM      6  C   UNL     1      -3.286  -6.218  -3.212  0.00  0.00    +0.035 A 
ATOM      7  C   UNL     1      -2.158  -6.950  -2.867  0.00  0.00    +0.023 A 
ATOM      8  C   UNL     1      -1.988  -8.229  -3.361  0.00  0.00    +0.002 A 
ATOM      9  C   UNL     1      -2.936  -8.776  -4.207  0.00  0.00    +0.000 A 
ATOM     10  C   UNL     1      -4.058  -8.048  -4.556  0.00  0.00    +0.002 A 
ATOM     11  C   UNL     1      -4.236  -6.771  -4.061  0.00  0.00    +0.023 A 
ENDBRANCH   4   6
BRANCH   1  12
ATOM     12  C   UNL     1      -3.653  -2.299  -1.893  0.00  0.00    +0.094 C 
BRANCH  12  16
ATOM     13  C   UNL     1      -7.208  -2.983  -2.274  0.00  0.00    -0.078 C 
ATOM     14  C   UNL     1      -6.895  -1.810  -3.237  0.00  0.00    -0.020 C 
ATOM     15  C   UNL     1      -5.752  -1.063  -2.511  0.00  0.00    -0.016 C 
ATOM     16  C   UNL     1      -5.133  -2.103  -1.559  0.00  0.00    -0.051 C 
ATOM     17  N   UNL     1      -5.870  -3.347  -1.776  0.00  0.00    +0.382 N 
ATOM     18  H   UNL     1      -5.384  -3.921  -2.475  0.00  0.00    -0.081 HD
BRANCH  17  20
ATOM     19  C   UNL     1      -6.833  -5.368  -0.721  0.00  0.00    -0.017 C 
ATOM     20  C   UNL     1      -5.979  -4.118  -0.498  0.00  0.00    -0.082 C 
ENDBRANCH  17  20
ENDBRANCH  12  16
ENDBRANCH   1  12
BRANCH   1  21
ATOM     21  C   UNL     1      -2.611  -3.007   0.310  0.00  0.00    +0.149 C 
BRANCH  21  22
ATOM     22  C   UNL     1      -1.196  -2.497   0.222  0.00  0.00    +0.035 A 
ATOM     23  C   UNL     1      -0.960  -1.163   0.179  0.00  0.00    +0.020 A 
ATOM     24  C   UNL     1       0.427  -0.700   0.094  0.00  0.00    -0.001 A 
ATOM     25  C   UNL     1       0.733   0.664   0.047  0.00  0.00    +0.010 A 
ATOM     26  C   UNL     1       2.037   1.064  -0.031  0.00  0.00    +0.004 A 
ATOM     27  C   UNL     1       3.061   0.127  -0.066  0.00  0.00    -0.046 A 
ATOM     28  C   UNL     1       2.783  -1.222  -0.020  0.00  0.00    -0.024 A 
ATOM     29  C   UNL     1       1.463  -1.652   0.060  0.00  0.00    +0.052 A 
ATOM     30  N   UNL     1       1.156  -2.995   0.107  0.00  0.00    -0.322 N 
ATOM     31  H   UNL     1       1.871  -3.650   0.083  0.00  0.00    +0.169 HD
ATOM     32  C   UNL     1      -0.120  -3.411   0.185  0.00  0.00    +0.254 A 
ATOM     33  O   UNL     1      -0.354  -4.606   0.225  0.00  0.00    -0.268 OA
ATOM     34  C   UNL     1       3.906  -2.227  -0.057  0.00  0.00    +0.046 C 
ATOM     35  C   UNL     1       4.493   0.591  -0.153  0.00  0.00    +0.044 C 
ENDBRANCH  21  22
ENDBRANCH   1  21
TORSDOF 6
