REMARK  Name = ZINC45513258
REMARK  7 active torsions:
REMARK  status: ('A' for Active; 'I' for Inactive)
REMARK    1  A    between atoms: C_1  and  C_2
REMARK    2  A    between atoms: C_2  and  C_4
REMARK    3  A    between atoms: C_2  and  N_12
REMARK    4  A    between atoms: C_13  and  C_15
REMARK    5  A    between atoms: C_15  and  C_17
REMARK    6  A    between atoms: C_15  and  N_18
REMARK    7  A    between atoms: C_21  and  N_24
REMARK                            x       y       z     vdW  Elec       q    Type
REMARK                         _______ _______ _______ _____ _____    ______ ____
ROOT
ATOM      1  N   UNL     1       4.212  -1.241   2.087  0.00  0.00    +0.387 N 
ATOM      2  C   UNL     1       4.375  -2.099   0.908  0.00  0.00    -0.076 C 
ATOM      3  C   UNL     1       5.856  -2.185   0.535  0.00  0.00    +0.006 C 
ATOM      4  C   UNL     1       6.639  -2.777   1.710  0.00  0.00    +0.089 C 
ATOM      5  C   UNL     1       6.403  -1.915   2.954  0.00  0.00    +0.006 C 
ATOM      6  C   UNL     1       4.901  -1.840   3.237  0.00  0.00    -0.076 C 
ATOM      7  H   UNL     1       4.606  -0.332   1.897  0.00  0.00    -0.081 HD
ENDROOT
BRANCH   4   8
ATOM      8  N   UNL     1       8.069  -2.792   1.389  0.00  0.00    -0.289 N 
ATOM      9  C   UNL     1       8.878  -3.923   1.323  0.00  0.00    +0.070 A 
ATOM     10  C   UNL     1       8.640  -5.276   1.515  0.00  0.00    +0.028 A 
ATOM     11  C   UNL     1       9.672  -6.182   1.375  0.00  0.00    +0.002 A 
ATOM     12  C   UNL     1      10.944  -5.746   1.044  0.00  0.00    +0.002 A 
ATOM     13  C   UNL     1      11.190  -4.401   0.850  0.00  0.00    +0.028 A 
ATOM     14  C   UNL     1      10.160  -3.484   0.988  0.00  0.00    +0.067 A 
ATOM     15  N   UNL     1      10.090  -2.099   0.861  0.00  0.00    -0.306 N 
ATOM     16  H   UNL     1      10.828  -1.511   0.634  0.00  0.00    +0.170 HD
ATOM     17  C   UNL     1       8.823  -1.714   1.102  0.00  0.00    +0.328 A 
ATOM     18  O   UNL     1       8.420  -0.566   1.069  0.00  0.00    -0.247 OA
ENDBRANCH   4   8
BRANCH   1  19
ATOM     19  C   UNL     1       2.783  -1.099   2.395  0.00  0.00    +0.016 C 
ATOM     20  C   UNL     1       2.611  -0.192   3.615  0.00  0.00    -0.004 C 
BRANCH  19  22
ATOM     21  N   UNL     1       0.774  -0.772   0.989  0.00  0.00    -0.310 N 
ATOM     22  C   UNL     1       2.073  -0.490   1.212  0.00  0.00    +0.200 C 
ATOM     23  O   UNL     1       2.671   0.252   0.463  0.00  0.00    -0.278 OA
ATOM     24  H   UNL     1       0.296  -1.365   1.588  0.00  0.00    +0.149 HD
BRANCH  21  26
ATOM     25  C   UNL     1      -0.433   1.210   0.215  0.00  0.00    +0.033 C 
ATOM     26  C   UNL     1       0.084  -0.180  -0.161  0.00  0.00    +0.101 C 
BRANCH  26  27
ATOM     27  C   UNL     1      -1.075  -1.057  -0.556  0.00  0.00    -0.009 A 
ATOM     28  C   UNL     1      -1.666  -1.886   0.379  0.00  0.00    +0.008 A 
ATOM     29  C   UNL     1      -2.729  -2.691   0.017  0.00  0.00    +0.020 A 
ATOM     30  C   UNL     1      -3.204  -2.667  -1.283  0.00  0.00    +0.042 A 
ATOM     31  C   UNL     1      -2.614  -1.838  -2.219  0.00  0.00    +0.040 A 
ATOM     32  C   UNL     1      -1.552  -1.029  -1.855  0.00  0.00    +0.047 A 
ATOM     33 CL   UNL     1      -0.815   0.016  -3.028  0.00  0.00    -0.083 Cl
ATOM     34 CL   UNL     1      -4.540  -3.679  -1.738  0.00  0.00    -0.083 Cl
ENDBRANCH  26  27
ENDBRANCH  21  26
ENDBRANCH  19  22
ENDBRANCH   1  19
TORSDOF 5
