REMARK  Name = ZINC39677016
REMARK  9 active torsions:
REMARK  status: ('A' for Active; 'I' for Inactive)
REMARK    1  A    between atoms: C_1  and  C_2
REMARK    2  A    between atoms: C_5  and  C_34
REMARK    3  A    between atoms: C_6  and  C_8
REMARK    4  A    between atoms: C_8  and  C_9
REMARK    5  A    between atoms: C_9  and  N_10
REMARK    6  A    between atoms: C_11  and  C_13
REMARK    7  A    between atoms: C_24  and  C_26
REMARK    8  A    between atoms: C_29  and  C_33
REMARK    9  A    between atoms: C_30  and  C_32
REMARK                            x       y       z     vdW  Elec       q    Type
REMARK                         _______ _______ _______ _____ _____    ______ ____
ROOT
ATOM      1  C   UNL     1       2.882  -4.426   5.939  0.00  0.00    +0.100 C 
ATOM      2  C   UNL     1       2.284  -3.810   7.224  0.00  0.00    +0.121 C 
ATOM      3  N   UNL     1       3.152  -4.309   8.316  0.00  0.00    -0.296 N 
ATOM      4  C   UNL     1       4.521  -4.263   7.750  0.00  0.00    +0.115 C 
ATOM      5  C   UNL     1       4.350  -4.721   6.288  0.00  0.00    -0.004 C 
ATOM      6  C   UNL     1       4.631  -6.216   6.167  0.00  0.00    -0.010 C 
ATOM      7  C   UNL     1       6.111  -6.478   6.464  0.00  0.00    -0.082 C 
ATOM      8  N   UNL     1       6.942  -5.725   5.518  0.00  0.00    +0.379 N 
ATOM      9  C   UNL     1       6.734  -4.284   5.704  0.00  0.00    -0.082 C 
ATOM     10  C   UNL     1       5.281  -3.929   5.375  0.00  0.00    -0.010 C 
ATOM     11  C   UNL     1       2.780  -4.713   9.547  0.00  0.00    +0.247 C 
ATOM     12  O   UNL     1       1.601  -4.815   9.823  0.00  0.00    -0.270 OA
ATOM     13  H   UNL     1       7.914  -5.946   5.676  0.00  0.00    -0.086 HD
ATOM     14  H   UNL     1       6.691  -5.980   4.574  0.00  0.00    -0.086 HD
ENDROOT
BRANCH  11  15
ATOM     15  C   UNL     1       3.807  -5.033  10.562  0.00  0.00    +0.037 A 
ATOM     16  C   UNL     1       5.102  -4.529  10.432  0.00  0.00    +0.013 A 
ATOM     17  C   UNL     1       6.055  -4.830  11.382  0.00  0.00    +0.004 A 
ATOM     18  C   UNL     1       5.729  -5.631  12.463  0.00  0.00    -0.047 A 
ATOM     19  C   UNL     1       4.448  -6.133  12.598  0.00  0.00    -0.047 A 
ATOM     20  C   UNL     1       3.483  -5.835  11.658  0.00  0.00    +0.016 A 
ATOM     21  C   UNL     1       4.102  -7.005  13.778  0.00  0.00    +0.044 C 
ATOM     22  C   UNL     1       6.776  -5.957  13.497  0.00  0.00    +0.044 C 
ENDBRANCH  11  15
BRANCH   1  24
ATOM     23  N   UNL     1       2.677  -3.888   3.533  0.00  0.00    -0.315 N 
ATOM     24  C   UNL     1       2.801  -3.443   4.799  0.00  0.00    +0.218 C 
ATOM     25  O   UNL     1       2.849  -2.252   5.021  0.00  0.00    -0.275 OA
ATOM     26  H   UNL     1       2.639  -4.841   3.355  0.00  0.00    +0.149 HD
BRANCH  23  27
ATOM     27  C   UNL     1       2.599  -2.932   2.425  0.00  0.00    +0.109 C 
BRANCH  27  28
ATOM     28  C   UNL     1       2.462  -3.693   1.105  0.00  0.00    +0.054 C 
BRANCH  28  34
ATOM     29  C   UNL     1      -0.268  -0.977  -2.092  0.00  0.00    +0.044 C 
ATOM     30  C   UNL     1       1.075  -1.411  -1.565  0.00  0.00    -0.050 A 
ATOM     31  C   UNL     1       2.234  -0.908  -2.126  0.00  0.00    +0.003 A 
ATOM     32  C   UNL     1       3.466  -1.306  -1.643  0.00  0.00    +0.004 A 
ATOM     33  C   UNL     1       3.540  -2.207  -0.597  0.00  0.00    -0.047 A 
ATOM     34  C   UNL     1       2.382  -2.710  -0.035  0.00  0.00    -0.043 A 
ATOM     35  C   UNL     1       1.149  -2.308  -0.516  0.00  0.00    +0.007 A 
ATOM     36  C   UNL     1       4.883  -2.642  -0.070  0.00  0.00    +0.044 C 
ENDBRANCH  28  34
ENDBRANCH  27  28
ENDBRANCH  23  27
ENDBRANCH   1  24
TORSDOF 5
