REMARK  Name = ZINC03655848
REMARK  16 active torsions:
REMARK  status: ('A' for Active; 'I' for Inactive)
REMARK    1  A    between atoms: C_1  and  C_2
REMARK    2  A    between atoms: C_2  and  O_3
REMARK    3  A    between atoms: O_3  and  C_4
REMARK    4  A    between atoms: C_4  and  C_6
REMARK    5  A    between atoms: C_7  and  C_37
REMARK    6  A    between atoms: N_8  and  C_30
REMARK    7  A    between atoms: C_12  and  O_15
REMARK    8  A    between atoms: O_15  and  C_16
REMARK    9  A    between atoms: C_16  and  C_17
REMARK   10  A    between atoms: C_17  and  C_19
REMARK   11  A    between atoms: C_17  and  O_29
REMARK   12  A    between atoms: C_19  and  N_69
REMARK   13  A    between atoms: C_20  and  C_22
REMARK   14  A    between atoms: C_20  and  C_23
REMARK   15  A    between atoms: C_20  and  N_69
REMARK   16  A    between atoms: C_33  and  C_36
REMARK                            x       y       z     vdW  Elec       q    Type
REMARK                         _______ _______ _______ _____ _____    ______ ____
ROOT
ATOM      1  C   UNL     1       2.889   5.498   0.004  0.00  0.00    +0.088 A 
ATOM      2  C   UNL     1       4.254   5.500  -0.009  0.00  0.00    +0.036 A 
ATOM      3  N   UNL     1       4.714   4.225  -0.020  0.00  0.00    -0.312 N 
ATOM      4  C   UNL     1       3.658   3.332  -0.015  0.00  0.00    +0.055 A 
ATOM      5  C   UNL     1       2.472   4.083   0.000  0.00  0.00    +0.018 A 
ATOM      6  C   UNL     1       1.237   3.440   0.009  0.00  0.00    +0.056 A 
ATOM      7  C   UNL     1       1.186   2.058   0.002  0.00  0.00    +0.121 A 
ATOM      8  C   UNL     1       2.361   1.315  -0.008  0.00  0.00    +0.048 A 
ATOM      9  C   UNL     1       3.588   1.943  -0.022  0.00  0.00    +0.030 A 
ATOM     10  C   UNL     1       5.119   6.734  -0.011  0.00  0.00    +0.065 C 
ENDROOT
BRANCH   3  11
ATOM     11  C   UNL     1       6.067   3.863  -0.036  0.00  0.00    +0.047 A 
ATOM     12  C   UNL     1       6.596   3.194  -1.132  0.00  0.00    +0.026 A 
ATOM     13  C   UNL     1       7.931   2.843  -1.146  0.00  0.00    +0.005 A 
ATOM     14  C   UNL     1       8.740   3.148  -0.066  0.00  0.00    -0.050 A 
ATOM     15  C   UNL     1       8.215   3.809   1.029  0.00  0.00    +0.005 A 
ATOM     16  C   UNL     1       6.881   4.168   1.047  0.00  0.00    +0.026 A 
ATOM     17  C   UNL     1      10.195   2.758  -0.083  0.00  0.00    +0.044 C 
ENDBRANCH   3  11
BRANCH   1  18
ATOM     18  C   UNL     1       2.010   6.672   0.018  0.00  0.00    +0.342 C 
ATOM     19  O   UNL     1       1.655   7.153   1.077  0.00  0.00    -0.245 OA
BRANCH  18  20
ATOM     20  O   UNL     1       1.595   7.218  -1.143  0.00  0.00    -0.461 OA
BRANCH  20  22
ATOM     21  C   UNL     1       0.362   8.853  -2.461  0.00  0.00    +0.048 C 
ATOM     22  C   UNL     1       0.726   8.378  -1.053  0.00  0.00    +0.229 C 
ENDBRANCH  20  22
ENDBRANCH  18  20
ENDBRANCH   1  18
BRANCH   7  23
ATOM     23  O   UNL     1      -0.017   1.425   0.010  0.00  0.00    -0.489 OA
BRANCH  23  24
ATOM     24  C   UNL     1       0.002  -0.004   0.002  0.00  0.00    +0.258 C 
BRANCH  24  25
ATOM     25  C   UNL     1      -1.433  -0.534   0.013  0.00  0.00    +0.135 C 
BRANCH  25  26
ATOM     26  O   UNL     1      -2.089  -0.158  -1.200  0.00  0.00    -0.390 OA
ATOM     27  H   UNL     1      -1.665  -0.500  -1.999  0.00  0.00    +0.210 HD
ENDBRANCH  25  26
BRANCH  25  28
ATOM     28  C   UNL     1      -1.413  -2.059   0.130  0.00  0.00    -0.047 C 
BRANCH  28  29
ATOM     29  N   UNL     1      -2.800  -2.561   0.140  0.00  0.00    +0.385 N 
ATOM     30  H   UNL     1      -3.267  -2.285  -0.732  0.00  0.00    -0.085 HD
ATOM     31  H   UNL     1      -3.301  -2.157   0.940  0.00  0.00    -0.085 HD
BRANCH  29  32
ATOM     32  C   UNL     1      -2.811  -4.032   0.253  0.00  0.00    -0.044 C 
ATOM     33  C   UNL     1      -2.722  -4.432   1.727  0.00  0.00    -0.009 C 
BRANCH  32  34
ATOM     34  C   UNL     1      -4.093  -4.563  -0.336  0.00  0.00    -0.062 A 
ATOM     35  C   UNL     1      -5.284  -3.897  -0.113  0.00  0.00    +0.002 A 
ATOM     36  C   UNL     1      -6.459  -4.383  -0.656  0.00  0.00    +0.000 A 
ATOM     37  C   UNL     1      -6.445  -5.539  -1.414  0.00  0.00    +0.000 A 
ATOM     38  C   UNL     1      -5.255  -6.207  -1.633  0.00  0.00    +0.000 A 
ATOM     39  C   UNL     1      -4.079  -5.720  -1.093  0.00  0.00    +0.002 A 
ENDBRANCH  32  34
ENDBRANCH  29  32
ENDBRANCH  28  29
ENDBRANCH  25  28
ENDBRANCH  24  25
ENDBRANCH  23  24
ENDBRANCH   7  23
TORSDOF 12
