REMARK  Name = ZINC19531937
REMARK  7 active torsions:
REMARK  status: ('A' for Active; 'I' for Inactive)
REMARK    1  A    between atoms: C_4  and  S_26
REMARK    2  A    between atoms: C_5  and  N_7
REMARK    3  A    between atoms: C_8  and  C_10
REMARK    4  A    between atoms: C_10  and  N_11
REMARK    5  A    between atoms: N_14  and  C_17
REMARK    6  A    between atoms: C_22  and  N_23
REMARK    7  A    between atoms: S_26  and  C_27
REMARK                            x       y       z     vdW  Elec       q    Type
REMARK                         _______ _______ _______ _____ _____    ______ ____
ROOT
ATOM      1  N   UNL     1       2.410   1.042  -0.033  0.00  0.00    +0.387 N 
ATOM      2  C   UNL     1       2.480   0.279   1.221  0.00  0.00    -0.059 C 
ATOM      3  C   UNL     1       3.618  -0.741   1.132  0.00  0.00    +0.086 C 
ATOM      4  N   UNL     1       4.883  -0.038   0.874  0.00  0.00    -0.332 N 
ATOM      5  C   UNL     1       4.812   0.724  -0.381  0.00  0.00    +0.086 C 
ATOM      6  C   UNL     1       3.675   1.744  -0.291  0.00  0.00    -0.059 C 
ATOM      7  H   UNL     1       2.243   0.330  -0.855  0.00  0.00    -0.081 HD
ENDROOT
BRANCH   4   8
ATOM      8  C   UNL     1       5.957  -0.931   0.857  0.00  0.00    +0.060 A 
ATOM      9  C   UNL     1       6.020  -1.926  -0.111  0.00  0.00    +0.025 A 
ATOM     10  C   UNL     1       7.086  -2.803  -0.129  0.00  0.00    +0.002 A 
ATOM     11  C   UNL     1       8.085  -2.700   0.823  0.00  0.00    +0.002 A 
ATOM     12  C   UNL     1       8.022  -1.715   1.792  0.00  0.00    +0.034 A 
ATOM     13  C   UNL     1       6.961  -0.830   1.811  0.00  0.00    +0.147 A 
BRANCH  13  14
ATOM     14  N   UNL     1       6.894   0.224   2.848  0.00  0.00    +0.058 N 
ATOM     15  O   UNL     1       7.775   0.311   3.685  0.00  0.00    -0.126 OA
ATOM     16  O   UNL     1       5.958   1.003   2.865  0.00  0.00    -0.126 OA
ENDBRANCH  13  14
ENDBRANCH   4   8
BRANCH   1  17
ATOM     17  C   UNL     1       1.280   1.981  -0.015  0.00  0.00    +0.019 C 
BRANCH  17  19
ATOM     18  N   UNL     1      -1.191   1.867   0.018  0.00  0.00    -0.286 N 
ATOM     19  C   UNL     1      -0.014   1.209   0.005  0.00  0.00    +0.201 C 
ATOM     20  O   UNL     1       0.003  -0.004   0.005  0.00  0.00    -0.278 OA
ATOM     21  H   UNL     1      -1.207   2.963   0.110  0.00  0.00    +0.155 HD
BRANCH  18  26
ATOM     22  C   UNL     1      -3.599  -0.794  -0.794  0.00  0.00    +0.002 A 
ATOM     23  C   UNL     1      -4.770  -0.256  -0.292  0.00  0.00    +0.001 A 
ATOM     24  C   UNL     1      -4.761   0.986   0.314  0.00  0.00    +0.017 A 
ATOM     25  C   UNL     1      -3.574   1.697   0.420  0.00  0.00    +0.034 A 
ATOM     26  C   UNL     1      -2.393   1.154  -0.086  0.00  0.00    +0.047 A 
ATOM     27  C   UNL     1      -2.413  -0.090  -0.698  0.00  0.00    +0.024 A 
BRANCH  25  28
ATOM     28  S   UNL     1      -3.559   3.281   1.192  0.00  0.00    -0.054 S 
BRANCH  28  29
ATOM     29  C   UNL     1      -5.286   3.550   1.676  0.00  0.00    +0.404 C 
ATOM     30  F   UNL     1      -6.099   3.526   0.537  0.00  0.00    -0.197 F 
ATOM     31  F   UNL     1      -5.687   2.539   2.556  0.00  0.00    -0.197 F 
ENDBRANCH  28  29
ENDBRANCH  25  28
ENDBRANCH  18  26
ENDBRANCH  17  19
ENDBRANCH   1  17
TORSDOF 7
