REMARK  Name = ZINC38762974
REMARK  9 active torsions:
REMARK  status: ('A' for Active; 'I' for Inactive)
REMARK    1  A    between atoms: C_1  and  C_2
REMARK    2  A    between atoms: C_3  and  C_15
REMARK    3  A    between atoms: N_6  and  C_8
REMARK    4  A    between atoms: C_15  and  S_16
REMARK    5  A    between atoms: S_16  and  C_17
REMARK    6  A    between atoms: C_21  and  C_23
REMARK    7  A    between atoms: C_23  and  C_24
REMARK    8  A    between atoms: C_23  and  C_25
REMARK    9  A    between atoms: C_23  and  C_26
REMARK                            x       y       z     vdW  Elec       q    Type
REMARK                         _______ _______ _______ _____ _____    ______ ____
ROOT
ATOM      1  C   UNL     1      -0.018   1.503   0.010  0.00  0.00    +0.062 C 
ATOM      2  C   UNL     1       0.002  -0.004   0.002  0.00  0.00    +0.022 C 
ATOM      3  C   UNL     1      -1.078  -0.756   0.003  0.00  0.00    -0.005 C 
ATOM      4  C   UNL     1      -0.628  -2.200  -0.007  0.00  0.00    +0.213 C 
ATOM      5  N   UNL     1       0.843  -2.128  -0.013  0.00  0.00    -0.231 N 
ATOM      6  N   UNL     1       1.157  -0.762  -0.014  0.00  0.00    -0.267 N 
ATOM      7 CL   UNL     1      -1.227  -3.035  -1.488  0.00  0.00    -0.094 Cl
ATOM      8  H   UNL     1       2.057  -0.401  -0.021  0.00  0.00    +0.170 HD
ENDROOT
BRANCH   5   9
ATOM      9  C   UNL     1       1.739  -3.200  -0.024  0.00  0.00    +0.050 A 
ATOM     10  C   UNL     1       1.263  -4.505  -0.034  0.00  0.00    +0.025 A 
ATOM     11  C   UNL     1       2.152  -5.562  -0.045  0.00  0.00    +0.002 A 
ATOM     12  C   UNL     1       3.514  -5.322  -0.044  0.00  0.00    +0.000 A 
ATOM     13  C   UNL     1       3.991  -4.024  -0.033  0.00  0.00    +0.002 A 
ATOM     14  C   UNL     1       3.107  -2.962  -0.029  0.00  0.00    +0.025 A 
ENDBRANCH   5   9
BRANCH   3  15
ATOM     15  C   UNL     1      -2.504  -0.267   0.013  0.00  0.00    +0.112 C 
BRANCH  15  16
ATOM     16  S   UNL     1      -3.228  -0.480  -1.636  0.00  0.00    -0.082 S 
BRANCH  16  17
ATOM     17  C   UNL     1      -4.872   0.129  -1.462  0.00  0.00    +0.185 A 
ATOM     18  N   UNL     1      -5.811   0.172  -2.431  0.00  0.00    -0.254 N 
ATOM     19  H   UNL     1      -5.713  -0.123  -3.350  0.00  0.00    +0.191 HD
ATOM     20  N   UNL     1      -6.959   0.730  -1.845  0.00  0.00    -0.156 NA
ATOM     21  C   UNL     1      -6.665   0.986  -0.598  0.00  0.00    +0.157 A 
ATOM     22  N   UNL     1      -5.405   0.618  -0.362  0.00  0.00    -0.205 NA
BRANCH  21  23
ATOM     23  C   UNL     1      -7.602   1.593   0.413  0.00  0.00    +0.024 C 
ATOM     24  C   UNL     1      -8.956   1.865  -0.245  0.00  0.00    +0.019 C 
ATOM     25  C   UNL     1      -7.789   0.623   1.582  0.00  0.00    +0.019 C 
ATOM     26  C   UNL     1      -7.013   2.907   0.930  0.00  0.00    +0.019 C 
ENDBRANCH  21  23
ENDBRANCH  16  17
ENDBRANCH  15  16
ENDBRANCH   3  15
TORSDOF 5
