REMARK  Name = ZINC39277270
REMARK  0 active torsions:
REMARK  status: ('A' for Active; 'I' for Inactive)
REMARK                            x       y       z     vdW  Elec       q    Type
REMARK                         _______ _______ _______ _____ _____    ______ ____
ROOT
ATOM      1  C   UNL     1      -0.018   1.507   0.010  0.00  0.00    -0.003 C 
ATOM      2  C   UNL     1       1.247   1.922   0.001  0.00  0.00    +0.029 C 
ATOM      3  C   UNL     1       2.150   0.772  -0.014  0.00  0.00    +0.114 A 
ATOM      4  C   UNL     1       3.543   0.667  -0.028  0.00  0.00    +0.312 A 
ATOM      5  O   UNL     1       4.316   1.785  -0.029  0.00  0.00    -0.262 OA
ATOM      6  N   UNL     1       4.103  -0.536  -0.039  0.00  0.00    -0.100 NA
ATOM      7  N   UNL     1       3.394  -1.608  -0.038  0.00  0.00    -0.086 NA
ATOM      8  C   UNL     1       2.056  -1.569  -0.026  0.00  0.00    +0.368 A 
ATOM      9  O   UNL     1       1.416  -2.607  -0.025  0.00  0.00    -0.243 OA
ATOM     10  N   UNL     1       1.416  -0.385  -0.013  0.00  0.00    -0.283 N 
ATOM     11  C   UNL     1       0.002  -0.004   0.002  0.00  0.00    +0.154 C 
ENDROOT
TORSDOF 0
