REMARK  Name = ZINC40404575
REMARK  13 active torsions:
REMARK  status: ('A' for Active; 'I' for Inactive)
REMARK    1  A    between atoms: C_1  and  C_2
REMARK    2  A    between atoms: C_2  and  C_3
REMARK    3  A    between atoms: C_2  and  C_4
REMARK    4  A    between atoms: C_4  and  N_5
REMARK    5  A    between atoms: N_5  and  C_6
REMARK    6  A    between atoms: N_5  and  C_24
REMARK    7  A    between atoms: C_6  and  C_7
REMARK    8  A    between atoms: C_13  and  C_18
REMARK    9  A    between atoms: C_24  and  C_25
REMARK   10  A    between atoms: C_25  and  C_27
REMARK   11  A    between atoms: C_25  and  O_30
REMARK   12  A    between atoms: C_27  and  C_28
REMARK   13  A    between atoms: C_27  and  C_29
REMARK                            x       y       z     vdW  Elec       q    Type
REMARK                         _______ _______ _______ _____ _____    ______ ____
ROOT
ATOM      1  C   UNL     1      -0.492  -2.692  -1.068  0.00  0.00    +0.094 A 
ATOM      2  N   UNL     1       0.541  -3.520  -0.768  0.00  0.00    -0.312 N 
ATOM      3  H   UNL     1       0.455  -4.138  -0.025  0.00  0.00    +0.170 HD
ATOM      4  C   UNL     1       1.682  -3.501  -1.481  0.00  0.00    +0.260 A 
ATOM      5  O   UNL     1       2.600  -4.252  -1.200  0.00  0.00    -0.267 OA
ATOM      6  C   UNL     1       1.801  -2.586  -2.575  0.00  0.00    +0.080 A 
ATOM      7  C   UNL     1       2.920  -2.379  -3.487  0.00  0.00    +0.004 A 
ATOM      8  C   UNL     1       2.803  -1.444  -4.461  0.00  0.00    +0.056 A 
ATOM      9  S   UNL     1       1.167  -0.784  -4.204  0.00  0.00    -0.076 S 
ATOM     10  C   UNL     1       0.683  -1.769  -2.810  0.00  0.00    +0.116 A 
ATOM     11  N   UNL     1      -0.415  -1.850  -2.063  0.00  0.00    -0.229 NA
ENDROOT
BRANCH   7  12
ATOM     12  C   UNL     1       4.163  -3.175  -3.350  0.00  0.00    -0.017 A 
ATOM     13  C   UNL     1       4.787  -3.292  -2.109  0.00  0.00    +0.008 A 
ATOM     14  C   UNL     1       5.943  -4.035  -1.988  0.00  0.00    +0.001 A 
ATOM     15  C   UNL     1       6.484  -4.663  -3.095  0.00  0.00    +0.000 A 
ATOM     16  C   UNL     1       5.870  -4.550  -4.330  0.00  0.00    +0.001 A 
ATOM     17  C   UNL     1       4.710  -3.814  -4.462  0.00  0.00    +0.008 A 
ENDBRANCH   7  12
BRANCH   1  18
ATOM     18  C   UNL     1      -1.751  -2.748  -0.242  0.00  0.00    -0.003 C 
BRANCH  18  19
ATOM     19  N   UNL     1      -2.744  -1.819  -0.797  0.00  0.00    +0.386 N 
ATOM     20  H   UNL     1      -2.887  -2.025  -1.774  0.00  0.00    -0.081 HD
BRANCH  19  21
ATOM     21  C   UNL     1      -2.258  -0.440  -0.653  0.00  0.00    -0.075 C 
BRANCH  21  23
ATOM     22  C   UNL     1      -0.897   1.100   0.768  0.00  0.00    +0.005 C 
ATOM     23  C   UNL     1      -1.514  -0.297   0.676  0.00  0.00    -0.034 C 
ATOM     24  C   UNL     1      -2.496  -0.498   1.833  0.00  0.00    +0.005 C 
ENDBRANCH  21  23
ENDBRANCH  19  21
BRANCH  19  25
ATOM     25  C   UNL     1      -4.013  -1.968  -0.073  0.00  0.00    -0.046 C 
BRANCH  25  26
ATOM     26  C   UNL     1      -5.138  -1.309  -0.875  0.00  0.00    +0.101 C 
BRANCH  26  27
ATOM     27  C   UNL     1      -6.485  -1.635  -0.226  0.00  0.00    +0.010 C 
ATOM     28  C   UNL     1      -6.550  -0.996   1.163  0.00  0.00    +0.010 C 
ATOM     29  C   UNL     1      -7.616  -1.081  -1.095  0.00  0.00    +0.010 C 
ENDBRANCH  26  27
BRANCH  26  30
ATOM     30  O   UNL     1      -4.946   0.107  -0.889  0.00  0.00    -0.393 OA
ATOM     31  H   UNL     1      -4.909   0.508  -0.009  0.00  0.00    +0.210 HD
ENDBRANCH  26  30
ENDBRANCH  25  26
ENDBRANCH  19  25
ENDBRANCH  18  19
ENDBRANCH   1  18
TORSDOF 9
