REMARK  Name = ZINC07097732
REMARK  14 active torsions:
REMARK  status: ('A' for Active; 'I' for Inactive)
REMARK    1  A    between atoms: C_1  and  C_2
REMARK    2  A    between atoms: C_2  and  C_3
REMARK    3  A    between atoms: C_3  and  C_4
REMARK    4  A    between atoms: C_3  and  C_5
REMARK    5  A    between atoms: C_5  and  C_6
REMARK    6  A    between atoms: C_5  and  N_10
REMARK    7  A    between atoms: C_6  and  O_8
REMARK    8  A    between atoms: O_8  and  C_9
REMARK    9  A    between atoms: C_11  and  C_13
REMARK   10  A    between atoms: C_13  and  S_14
REMARK   11  A    between atoms: S_14  and  C_15
REMARK   12  A    between atoms: C_18  and  C_27
REMARK   13  A    between atoms: N_19  and  C_20
REMARK   14  A    between atoms: C_25  and  C_26
REMARK                            x       y       z     vdW  Elec       q    Type
REMARK                         _______ _______ _______ _____ _____    ______ ____
ROOT
ATOM      1  C   UNL     1      -4.212  -3.099   2.910  0.00  0.00    +0.173 C 
ENDROOT
BRANCH   1   3
ATOM      2  N   UNL     1      -3.271  -1.024   1.946  0.00  0.00    -0.301 N 
ATOM      3  C   UNL     1      -3.080  -2.308   2.305  0.00  0.00    +0.224 C 
ATOM      4  O   UNL     1      -1.996  -2.829   2.142  0.00  0.00    -0.275 OA
ATOM      5  H   UNL     1      -4.138  -0.608   2.076  0.00  0.00    +0.150 HD
BRANCH   2   6
ATOM      6  C   UNL     1      -2.171  -0.256   1.358  0.00  0.00    +0.185 C 
BRANCH   6   7
ATOM      7  C   UNL     1      -2.115  -0.515  -0.149  0.00  0.00    +0.017 C 
ATOM      8  C   UNL     1      -3.487  -0.232  -0.766  0.00  0.00    +0.010 C 
BRANCH   7  10
ATOM      9  C   UNL     1      -0.305  -2.221   0.086  0.00  0.00    +0.004 C 
ATOM     10  C   UNL     1      -1.735  -1.976  -0.401  0.00  0.00    +0.002 C 
ENDBRANCH   7  10
ENDBRANCH   6   7
BRANCH   6  11
ATOM     11  C   UNL     1      -2.395   1.214   1.607  0.00  0.00    +0.328 C 
ATOM     12  O   UNL     1      -3.516   1.635   1.767  0.00  0.00    -0.249 OA
BRANCH  11  13
ATOM     13  O   UNL     1      -1.349   2.054   1.650  0.00  0.00    -0.467 OA
ATOM     14  C   UNL     1      -1.633   3.431   1.907  0.00  0.00    +0.280 C 
ENDBRANCH  11  13
ENDBRANCH   6  11
ENDBRANCH   2   6
ENDBRANCH   1   3
BRANCH   1  15
ATOM     15  S   UNL     1      -3.643  -4.781   3.282  0.00  0.00    -0.076 S 
BRANCH  15  16
ATOM     16  C   UNL     1      -5.061  -5.566   3.973  0.00  0.00    +0.197 A 
ATOM     17  N   UNL     1      -6.244  -5.025   4.154  0.00  0.00    -0.122 NA
ATOM     18  N   UNL     1      -7.042  -5.883   4.681  0.00  0.00    -0.133 NA
ATOM     19  C   UNL     1      -6.425  -7.015   4.867  0.00  0.00    +0.135 A 
ATOM     20  N   UNL     1      -5.140  -6.857   4.418  0.00  0.00    -0.274 N 
ATOM     21  C   UNL     1      -7.016  -8.268   5.462  0.00  0.00    +0.088 C 
BRANCH  20  22
ATOM     22  C   UNL     1      -4.119  -7.819   4.416  0.00  0.00    +0.053 A 
ATOM     23  C   UNL     1      -3.279  -7.942   5.515  0.00  0.00    +0.026 A 
ATOM     24  C   UNL     1      -2.274  -8.890   5.510  0.00  0.00    +0.002 A 
ATOM     25  C   UNL     1      -2.103  -9.714   4.413  0.00  0.00    +0.000 A 
ATOM     26  C   UNL     1      -2.938  -9.593   3.318  0.00  0.00    +0.005 A 
ATOM     27  C   UNL     1      -3.949  -8.651   3.319  0.00  0.00    -0.027 A 
ATOM     28  C   UNL     1      -4.863  -8.524   2.127  0.00  0.00    +0.046 C 
ENDBRANCH  20  22
ENDBRANCH  15  16
ENDBRANCH   1  15
TORSDOF 9
