REMARK  Name = ZINC08914623
REMARK  6 active torsions:
REMARK  status: ('A' for Active; 'I' for Inactive)
REMARK    1  A    between atoms: C_1  and  C_2
REMARK    2  A    between atoms: C_8  and  C_9
REMARK    3  A    between atoms: C_8  and  N_64
REMARK    4  A    between atoms: C_9  and  C_10
REMARK    5  A    between atoms: C_10  and  N_11
REMARK    6  A    between atoms: N_11  and  C_12
REMARK                            x       y       z     vdW  Elec       q    Type
REMARK                         _______ _______ _______ _____ _____    ______ ____
ROOT
ATOM      1  C   UNL     1      -0.017   1.397   0.010  0.00  0.00    +0.042 A 
ATOM      2  C   UNL     1       1.180   2.111  -0.026  0.00  0.00    +0.072 A 
ATOM      3  C   UNL     1       2.392   1.450  -0.042  0.00  0.00    +0.154 A 
ATOM      4  C   UNL     1       2.430   0.043  -0.021  0.00  0.00    +0.094 A 
ATOM      5  C   UNL     1       1.242  -0.687   0.014  0.00  0.00    +0.062 A 
ATOM      6  C   UNL     1       0.002  -0.004   0.030  0.00  0.00    +0.056 A 
ATOM      7  C   UNL     1      -1.253  -0.760   0.067  0.00  0.00    +0.196 A 
ATOM      8  O   UNL     1      -2.318  -0.171   0.081  0.00  0.00    -0.287 OA
ATOM      9  C   UNL     1      -1.224  -2.237   0.088  0.00  0.00    +0.033 A 
ATOM     10  C   UNL     1      -2.413  -2.962   0.124  0.00  0.00    +0.012 A 
ATOM     11  C   UNL     1      -2.376  -4.344   0.144  0.00  0.00    +0.001 A 
ATOM     12  C   UNL     1      -1.165  -5.013   0.128  0.00  0.00    +0.001 A 
ATOM     13  C   UNL     1       0.024  -4.310   0.093  0.00  0.00    +0.012 A 
ATOM     14  C   UNL     1       0.006  -2.917   0.073  0.00  0.00    +0.033 A 
ATOM     15  C   UNL     1       1.272  -2.156   0.035  0.00  0.00    +0.197 A 
ATOM     16  O   UNL     1       2.337  -2.744   0.022  0.00  0.00    -0.287 OA
ATOM     17  N   UNL     1       3.653  -0.610  -0.037  0.00  0.00    -0.349 N 
ATOM     18  H   UNL     1       3.693  -1.579  -0.023  0.00  0.00    +0.166 HD
ATOM     19  C   UNL     1       4.828   0.149  -0.072  0.00  0.00    +0.083 A 
ATOM     20  C   UNL     1       6.064  -0.478  -0.088  0.00  0.00    +0.029 A 
ATOM     21  C   UNL     1       7.221   0.279  -0.122  0.00  0.00    +0.002 A 
ATOM     22  C   UNL     1       7.146   1.659  -0.142  0.00  0.00    +0.004 A 
ATOM     23  C   UNL     1       5.917   2.292  -0.126  0.00  0.00    +0.048 A 
ATOM     24  C   UNL     1       4.752   1.541  -0.091  0.00  0.00    +0.152 A 
ATOM     25  O   UNL     1       3.545   2.162  -0.076  0.00  0.00    -0.452 OA
ENDROOT
BRANCH   1  26
ATOM     26  N   UNL     1      -1.226   2.073   0.019  0.00  0.00    -0.343 N 
ATOM     27  H   UNL     1      -2.058   1.579  -0.049  0.00  0.00    +0.146 HD
BRANCH  26  28
ATOM     28  C   UNL     1      -1.248   3.533   0.132  0.00  0.00    +0.100 C 
BRANCH  28  29
ATOM     29  C   UNL     1      -2.697   4.024   0.118  0.00  0.00    +0.000 C 
BRANCH  29  30
ATOM     30  C   UNL     1      -2.721   5.549   0.236  0.00  0.00    -0.077 C 
BRANCH  30  37
ATOM     31  C   UNL     1      -3.269   8.245  -0.356  0.00  0.00    -0.013 C 
ATOM     32  C   UNL     1      -4.188   7.445   0.570  0.00  0.00    -0.072 C 
ATOM     33  C   UNL     1      -5.629   7.935   0.405  0.00  0.00    -0.016 C 
ATOM     34  C   UNL     1      -6.548   7.119   1.317  0.00  0.00    -0.003 C 
ATOM     35  C   UNL     1      -6.413   5.634   0.968  0.00  0.00    -0.019 C 
ATOM     36  C   UNL     1      -4.950   5.211   1.116  0.00  0.00    -0.078 C 
ATOM     37  N   UNL     1      -4.122   6.017   0.195  0.00  0.00    +0.381 N 
ATOM     38  H   UNL     1      -4.482   5.906  -0.760  0.00  0.00    -0.081 HD
ENDBRANCH  30  37
ENDBRANCH  29  30
ENDBRANCH  28  29
ENDBRANCH  26  28
ENDBRANCH   1  26
TORSDOF 5
