REMARK  Name = ZINC04871045
REMARK  3 active torsions:
REMARK  status: ('A' for Active; 'I' for Inactive)
REMARK    1  A    between atoms: C_4  and  N_7
REMARK    2  A    between atoms: C_8  and  C_25
REMARK    3  A    between atoms: C_11  and  C_18
REMARK                            x       y       z     vdW  Elec       q    Type
REMARK                         _______ _______ _______ _____ _____    ______ ____
ROOT
ATOM      1  N   UNL     1       3.618  -0.664  -0.284  0.00  0.00    -0.254 N 
ATOM      2  C   UNL     1       3.809  -2.120  -0.273  0.00  0.00    +0.149 C 
ATOM      3  C   UNL     1       5.291  -2.346  -0.154  0.00  0.00    +0.035 A 
ATOM      4  C   UNL     1       6.341  -3.266  -0.071  0.00  0.00    +0.099 A 
ATOM      5  N   UNL     1       7.462  -2.578   0.022  0.00  0.00    -0.173 NA
ATOM      6  N   UNL     1       7.224  -1.315   0.006  0.00  0.00    -0.272 N 
ATOM      7  H   UNL     1       7.899  -0.620   0.063  0.00  0.00    +0.189 HD
ATOM      8  C   UNL     1       5.880  -1.097  -0.102  0.00  0.00    +0.127 A 
ATOM      9  C   UNL     1       4.826  -0.080  -0.190  0.00  0.00    +0.270 C 
ATOM     10  O   UNL     1       5.018   1.121  -0.176  0.00  0.00    -0.268 OA
ENDROOT
BRANCH   4  11
ATOM     11  C   UNL     1       6.217  -4.745  -0.086  0.00  0.00    +0.003 A 
ATOM     12  C   UNL     1       5.309  -5.361  -0.945  0.00  0.00    +0.013 A 
ATOM     13  C   UNL     1       5.197  -6.737  -0.955  0.00  0.00    +0.039 A 
ATOM     14  C   UNL     1       5.984  -7.504  -0.112  0.00  0.00    +0.123 A 
ATOM     15  C   UNL     1       6.887  -6.896   0.744  0.00  0.00    +0.039 A 
ATOM     16  C   UNL     1       7.011  -5.521   0.756  0.00  0.00    +0.013 A 
ATOM     17  F   UNL     1       5.871  -8.851  -0.125  0.00  0.00    -0.205 F 
ENDBRANCH   4  11
BRANCH   2  18
ATOM     18  C   UNL     1       3.094  -2.728   0.906  0.00  0.00    +0.013 A 
ATOM     19  C   UNL     1       2.323  -3.863   0.737  0.00  0.00    +0.008 A 
ATOM     20  C   UNL     1       1.667  -4.421   1.818  0.00  0.00    +0.001 A 
ATOM     21  C   UNL     1       1.781  -3.844   3.070  0.00  0.00    +0.003 A 
ATOM     22  C   UNL     1       2.551  -2.710   3.241  0.00  0.00    +0.039 A 
ATOM     23  C   UNL     1       3.213  -2.153   2.159  0.00  0.00    +0.129 A 
ATOM     24  F   UNL     1       3.970  -1.047   2.327  0.00  0.00    -0.205 F 
ENDBRANCH   2  18
BRANCH   1  28
ATOM     25  C   UNL     1      -0.034   1.317  -0.578  0.00  0.00    +0.000 A 
ATOM     26  C   UNL     1       1.139   2.043  -0.484  0.00  0.00    +0.002 A 
ATOM     27  C   UNL     1       2.352   1.389  -0.387  0.00  0.00    +0.023 A 
ATOM     28  C   UNL     1       2.392   0.001  -0.382  0.00  0.00    +0.038 A 
ATOM     29  C   UNL     1       1.212  -0.725  -0.475  0.00  0.00    +0.023 A 
ATOM     30  C   UNL     1       0.003  -0.065  -0.573  0.00  0.00    +0.002 A 
ENDBRANCH   1  28
TORSDOF 3
