REMARK  Name = ZINC08570275
REMARK  5 active torsions:
REMARK  status: ('A' for Active; 'I' for Inactive)
REMARK    1  A    between atoms: C_5  and  C_7
REMARK    2  A    between atoms: C_7  and  O_9
REMARK    3  A    between atoms: O_9  and  N_10
REMARK    4  A    between atoms: C_11  and  C_12
REMARK    5  A    between atoms: C_12  and  C_13
REMARK                            x       y       z     vdW  Elec       q    Type
REMARK                         _______ _______ _______ _____ _____    ______ ____
ROOT
ATOM      1  N   UNL     1       3.359   2.025  -2.423  0.00  0.00    -0.063 NA
ATOM      2  C   UNL     1       4.089   2.450  -1.445  0.00  0.00    +0.137 C 
ATOM      3  N   UNL     1       5.248   3.144  -1.703  0.00  0.00    -0.344 N 
ATOM      4  H   UNL     1       5.796   3.464  -0.970  0.00  0.00    +0.144 HD
ATOM      5  H   UNL     1       5.517   3.315  -2.620  0.00  0.00    +0.144 HD
ENDROOT
BRANCH   1   6
ATOM      6  O   UNL     1       3.696   2.239  -3.573  0.00  0.00    -0.310 OA
BRANCH   6   7
ATOM      7  C   UNL     1       2.891   1.769  -4.544  0.00  0.00    +0.368 C 
ATOM      8  O   UNL     1       1.879   1.162  -4.253  0.00  0.00    -0.243 OA
BRANCH   7  13
ATOM      9  C   UNL     1       4.716   2.893  -7.626  0.00  0.00    +0.001 A 
ATOM     10  C   UNL     1       3.886   2.409  -8.623  0.00  0.00    +0.001 A 
ATOM     11  C   UNL     1       2.734   1.717  -8.297  0.00  0.00    +0.021 A 
ATOM     12  C   UNL     1       2.404   1.505  -6.973  0.00  0.00    +0.055 A 
ATOM     13  C   UNL     1       3.237   1.991  -5.962  0.00  0.00    +0.080 A 
ATOM     14  C   UNL     1       4.396   2.693  -6.300  0.00  0.00    +0.016 A 
ATOM     15 CL   UNL     1       0.957   0.636  -6.565  0.00  0.00    -0.083 Cl
ENDBRANCH   7  13
ENDBRANCH   6   7
ENDBRANCH   1   6
BRANCH   2  16
ATOM     16  C   UNL     1       3.672   2.185  -0.021  0.00  0.00    +0.109 C 
BRANCH  16  17
ATOM     17  C   UNL     1       2.378   1.412  -0.013  0.00  0.00    -0.039 A 
ATOM     18  C   UNL     1       1.171   2.087   0.002  0.00  0.00    +0.005 A 
ATOM     19  C   UNL     1      -0.017   1.379   0.010  0.00  0.00    +0.022 A 
ATOM     20  C   UNL     1       0.002  -0.004   0.002  0.00  0.00    +0.059 A 
ATOM     21  C   UNL     1       1.211  -0.679  -0.013  0.00  0.00    +0.060 A 
ATOM     22  C   UNL     1       2.398   0.030  -0.021  0.00  0.00    +0.025 A 
ATOM     23 CL   UNL     1       1.236  -2.415  -0.022  0.00  0.00    -0.082 Cl
ATOM     24 CL   UNL     1      -1.489  -0.893   0.011  0.00  0.00    -0.082 Cl
ENDBRANCH  16  17
ENDBRANCH   2  16
TORSDOF 5
