REMARK  Name = ZINC45839800
REMARK  11 active torsions:
REMARK  status: ('A' for Active; 'I' for Inactive)
REMARK    1  A    between atoms: C_1  and  C_2
REMARK    2  A    between atoms: C_2  and  C_4
REMARK    3  A    between atoms: C_2  and  N_14
REMARK    4  A    between atoms: C_15  and  C_17
REMARK    5  A    between atoms: C_17  and  C_19
REMARK    6  A    between atoms: C_17  and  S_20
REMARK    7  A    between atoms: S_20  and  C_21
REMARK    8  A    between atoms: C_24  and  C_27
REMARK    9  A    between atoms: N_25  and  N_26
REMARK   10  A    between atoms: C_30  and  O_33
REMARK   11  A    between atoms: O_33  and  C_34
REMARK                            x       y       z     vdW  Elec       q    Type
REMARK                         _______ _______ _______ _____ _____    ______ ____
ROOT
ATOM      1  S   UNL     1      -0.710  -2.081   4.601  0.00  0.00    -0.072 S 
ENDROOT
BRANCH   1   2
ATOM      2  C   UNL     1       0.217  -2.735   5.949  0.00  0.00    +0.209 A 
ATOM      3  N   UNL     1       1.510  -2.599   6.145  0.00  0.00    -0.121 NA
ATOM      4  N   UNL     1       1.858  -3.201   7.225  0.00  0.00    -0.127 NA
ATOM      5  C   UNL     1       0.810  -3.759   7.786  0.00  0.00    +0.182 A 
ATOM      6  N   UNL     1      -0.274  -3.473   6.989  0.00  0.00    -0.224 N 
BRANCH   5   7
ATOM      7  C   UNL     1       0.797  -4.542   9.039  0.00  0.00    +0.021 A 
ATOM      8  C   UNL     1      -0.305  -5.339   9.355  0.00  0.00    +0.015 A 
ATOM      9  C   UNL     1      -0.313  -6.069  10.524  0.00  0.00    +0.046 A 
ATOM     10  C   UNL     1       0.772  -6.011  11.389  0.00  0.00    +0.127 A 
ATOM     11  C   UNL     1       1.870  -5.219  11.078  0.00  0.00    +0.046 A 
ATOM     12  C   UNL     1       1.889  -4.491   9.908  0.00  0.00    +0.015 A 
BRANCH  10  13
ATOM     13  O   UNL     1       0.760  -6.731  12.541  0.00  0.00    -0.434 OA
BRANCH  13  14
ATOM     14  C   UNL     1       1.909  -6.625  13.384  0.00  0.00    +0.541 C 
ATOM     15  F   UNL     1       3.042  -7.055  12.684  0.00  0.00    -0.166 F 
ATOM     16  F   UNL     1       2.080  -5.293  13.775  0.00  0.00    -0.166 F 
ENDBRANCH  13  14
ENDBRANCH  10  13
ENDBRANCH   5   7
BRANCH   6  17
ATOM     17  N   UNL     1      -1.571  -3.851   7.192  0.00  0.00    -0.295 N 
ATOM     18  H   UNL     1      -1.760  -4.742   6.758  0.00  0.00    +0.163 HD
ATOM     19  H   UNL     1      -1.790  -3.875   8.177  0.00  0.00    +0.163 HD
ENDBRANCH   6  17
ENDBRANCH   1   2
BRANCH   1  20
ATOM     20  C   UNL     1       0.528  -1.218   3.594  0.00  0.00    +0.137 C 
ATOM     21  C   UNL     1       1.098  -0.039   4.386  0.00  0.00    +0.029 C 
BRANCH  20  23
ATOM     22  N   UNL     1       0.630  -0.498   1.230  0.00  0.00    -0.308 N 
ATOM     23  C   UNL     1      -0.118  -0.710   2.331  0.00  0.00    +0.227 C 
ATOM     24  O   UNL     1      -1.310  -0.490   2.306  0.00  0.00    -0.275 OA
ATOM     25  H   UNL     1       1.584  -0.674   1.250  0.00  0.00    +0.149 HD
BRANCH  22  27
ATOM     26  C   UNL     1      -0.038   1.525   0.030  0.00  0.00    +0.033 C 
ATOM     27  C   UNL     1       0.002  -0.004   0.002  0.00  0.00    +0.101 C 
BRANCH  27  28
ATOM     28  C   UNL     1       0.800  -0.464  -1.191  0.00  0.00    -0.020 A 
ATOM     29  C   UNL     1       2.132  -0.715  -1.067  0.00  0.00    +0.006 A 
ATOM     30  C   UNL     1       2.886  -1.141  -2.158  0.00  0.00    +0.001 A 
ATOM     31  C   UNL     1       2.313  -1.319  -3.380  0.00  0.00    +0.008 A 
ATOM     32  C   UNL     1       0.940  -1.070  -3.546  0.00  0.00    -0.018 A 
ATOM     33  C   UNL     1       0.172  -0.642  -2.435  0.00  0.00    -0.013 A 
ATOM     34  C   UNL     1      -1.203  -0.399  -2.600  0.00  0.00    +0.009 A 
ATOM     35  C   UNL     1      -1.777  -0.583  -3.820  0.00  0.00    +0.001 A 
ATOM     36  C   UNL     1      -1.023  -1.009  -4.912  0.00  0.00    +0.001 A 
ATOM     37  C   UNL     1       0.313  -1.242  -4.792  0.00  0.00    +0.008 A 
ENDBRANCH  27  28
ENDBRANCH  22  27
ENDBRANCH  20  23
ENDBRANCH   1  20
TORSDOF 9
