REMARK  Name = ZINC40138402
REMARK  13 active torsions:
REMARK  status: ('A' for Active; 'I' for Inactive)
REMARK    1  A    between atoms: C_1  and  C_2
REMARK    2  A    between atoms: N_9  and  N_10
REMARK    3  A    between atoms: C_11  and  C_13
REMARK    4  A    between atoms: C_13  and  C_15
REMARK    5  A    between atoms: C_13  and  O_16
REMARK    6  A    between atoms: O_16  and  C_17
REMARK    7  A    between atoms: C_22  and  C_23
REMARK    8  A    between atoms: N_27  and  C_28
REMARK    9  A    between atoms: C_28  and  C_29
REMARK   10  A    between atoms: C_29  and  C_30
REMARK   11  A    between atoms: C_30  and  O_31
REMARK   12  A    between atoms: O_31  and  C_32
REMARK   13  A    between atoms: C_37  and  C_38
REMARK                            x       y       z     vdW  Elec       q    Type
REMARK                         _______ _______ _______ _____ _____    ______ ____
ROOT
ATOM      1  C   UNL     1       0.110   2.057   0.454  0.00  0.00    +0.044 C 
ATOM      2  C   UNL     1       0.321   0.568   0.348  0.00  0.00    -0.050 A 
ATOM      3  C   UNL     1       0.543  -0.013  -0.889  0.00  0.00    +0.005 A 
ATOM      4  C   UNL     1       0.738  -1.375  -1.001  0.00  0.00    +0.024 A 
ATOM      5  C   UNL     1       0.712  -2.179   0.133  0.00  0.00    +0.046 A 
ATOM      6  C   UNL     1       0.487  -1.587   1.383  0.00  0.00    +0.029 A 
ATOM      7  C   UNL     1       0.298  -0.214   1.486  0.00  0.00    +0.015 A 
ATOM      8  C   UNL     1       0.517  -2.685   2.377  0.00  0.00    +0.153 C 
ATOM      9  N   UNL     1       0.353  -2.591   3.675  0.00  0.00    -0.174 NA
ATOM     10  C   UNL     1       0.773  -3.907   1.589  0.00  0.00    +0.271 C 
ATOM     11  O   UNL     1       0.872  -5.037   2.030  0.00  0.00    -0.268 OA
ATOM     12  N   UNL     1       0.876  -3.550   0.297  0.00  0.00    -0.265 N 
ENDROOT
BRANCH   9  13
ATOM     13  N   UNL     1       0.413  -3.741   4.473  0.00  0.00    -0.203 N 
ATOM     14  C   UNL     1       0.244  -3.645   5.806  0.00  0.00    +0.273 C 
ATOM     15  O   UNL     1       0.041  -2.563   6.315  0.00  0.00    -0.270 OA
ATOM     16  H   UNL     1       0.576  -4.606   4.066  0.00  0.00    +0.177 HD
BRANCH  14  17
ATOM     17  C   UNL     1       0.309  -4.881   6.665  0.00  0.00    +0.257 C 
ATOM     18  C   UNL     1      -0.853  -5.811   6.309  0.00  0.00    +0.062 C 
BRANCH  17  19
ATOM     19  O   UNL     1       0.218  -4.511   8.042  0.00  0.00    -0.480 OA
BRANCH  19  20
ATOM     20  C   UNL     1       0.762  -5.364   8.949  0.00  0.00    +0.125 A 
ATOM     21  C   UNL     1       1.270  -6.587   8.534  0.00  0.00    +0.047 A 
ATOM     22  C   UNL     1       1.823  -7.454   9.456  0.00  0.00    +0.023 A 
ATOM     23  C   UNL     1       1.871  -7.103  10.794  0.00  0.00    +0.041 A 
ATOM     24  C   UNL     1       1.365  -5.884  11.210  0.00  0.00    +0.027 A 
ATOM     25  C   UNL     1       0.817  -5.012  10.289  0.00  0.00    -0.007 A 
ATOM     26  C   UNL     1       0.273  -3.682  10.742  0.00  0.00    +0.047 C 
ATOM     27 CL   UNL     1       2.566  -8.194  11.952  0.00  0.00    -0.084 Cl
ENDBRANCH  19  20
ENDBRANCH  17  19
ENDBRANCH  14  17
ENDBRANCH   9  13
BRANCH  12  28
ATOM     28  C   UNL     1       1.129  -4.488  -0.800  0.00  0.00    +0.117 C 
BRANCH  28  29
ATOM     29  C   UNL     1       2.638  -4.625  -1.016  0.00  0.00    +0.060 C 
BRANCH  29  30
ATOM     30  C   UNL     1       2.902  -5.604  -2.161  0.00  0.00    +0.230 C 
BRANCH  30  31
ATOM     31  O   UNL     1       4.311  -5.731  -2.363  0.00  0.00    -0.492 OA
BRANCH  31  32
ATOM     32  C   UNL     1       4.720  -6.570  -3.351  0.00  0.00    +0.123 A 
ATOM     33  C   UNL     1       3.783  -7.252  -4.115  0.00  0.00    +0.046 A 
ATOM     34  C   UNL     1       4.201  -8.103  -5.120  0.00  0.00    +0.004 A 
ATOM     35  C   UNL     1       5.551  -8.276  -5.364  0.00  0.00    +0.000 A 
ATOM     36  C   UNL     1       6.486  -7.599  -4.604  0.00  0.00    +0.007 A 
ATOM     37  C   UNL     1       6.073  -6.742  -3.602  0.00  0.00    -0.009 A 
ATOM     38  C   UNL     1       7.093  -5.998  -2.778  0.00  0.00    +0.047 C 
ENDBRANCH  31  32
ENDBRANCH  30  31
ENDBRANCH  29  30
ENDBRANCH  28  29
ENDBRANCH  12  28
TORSDOF 9
