REMARK  Name = ZINC63805805
REMARK  10 active torsions:
REMARK  status: ('A' for Active; 'I' for Inactive)
REMARK    1  A    between atoms: C_1  and  O_2
REMARK    2  A    between atoms: O_2  and  C_3
REMARK    3  A    between atoms: C_7  and  C_11
REMARK    4  A    between atoms: C_8  and  O_9
REMARK    5  A    between atoms: O_9  and  C_10
REMARK    6  A    between atoms: C_15  and  C_27
REMARK    7  A    between atoms: C_30  and  O_35
REMARK    8  A    between atoms: C_31  and  O_33
REMARK    9  A    between atoms: O_33  and  C_34
REMARK   10  A    between atoms: O_35  and  C_36
REMARK                            x       y       z     vdW  Elec       q    Type
REMARK                         _______ _______ _______ _____ _____    ______ ____
ROOT
ATOM      1  C   UNL     1      -2.549  -4.175   0.017  0.00  0.00    +0.065 C 
ATOM      2  C   UNL     1      -3.319  -4.673   1.254  0.00  0.00    +0.094 C 
ATOM      3  N   UNL     1      -3.606  -6.104   1.131  0.00  0.00    -0.307 NA
ATOM      4  C   UNL     1      -4.514  -6.423   0.017  0.00  0.00    +0.111 C 
ATOM      5  C   UNL     1      -3.792  -6.109  -1.295  0.00  0.00    +0.128 C 
ATOM      6  C   UNL     1      -3.321  -4.661  -1.186  0.00  0.00    -0.028 C 
ATOM      7  C   UNL     1      -3.749  -4.047  -2.279  0.00  0.00    -0.000 A 
ATOM      8  C   UNL     1      -3.514  -2.691  -2.801  0.00  0.00    +0.010 A 
ATOM      9  C   UNL     1      -4.144  -2.378  -3.964  0.00  0.00    +0.001 A 
ATOM     10  C   UNL     1      -4.975  -3.267  -4.652  0.00  0.00    +0.002 A 
ATOM     11  C   UNL     1      -5.237  -4.537  -4.253  0.00  0.00    +0.026 A 
ATOM     12  C   UNL     1      -4.622  -4.986  -3.049  0.00  0.00    +0.043 A 
ATOM     13  N   UNL     1      -4.675  -6.165  -2.458  0.00  0.00    -0.376 N 
ATOM     14  H   UNL     1      -2.753  -6.640   1.067  0.00  0.00    +0.123 HD
ATOM     15  H   UNL     1      -5.198  -6.933  -2.737  0.00  0.00    +0.160 HD
ENDROOT
BRANCH   1  20
ATOM     16  C   UNL     1      -1.201  -0.638   0.010  0.00  0.00    +0.162 A 
ATOM     17  C   UNL     1      -2.374   0.099   0.019  0.00  0.00    +0.049 A 
ATOM     18  C   UNL     1      -3.596  -0.546   0.027  0.00  0.00    +0.004 A 
ATOM     19  C   UNL     1      -3.652  -1.928   0.026  0.00  0.00    +0.008 A 
ATOM     20  C   UNL     1      -2.485  -2.669   0.017  0.00  0.00    +0.006 A 
ATOM     21  C   UNL     1      -1.257  -2.028   0.003  0.00  0.00    +0.165 A 
BRANCH  16  23
ATOM     22  C   UNL     1      -0.017   1.425   0.010  0.00  0.00    +0.277 C 
ATOM     23  O   UNL     1       0.002  -0.004   0.002  0.00  0.00    -0.491 OA
ENDBRANCH  16  23
BRANCH  21  24
ATOM     24  O   UNL     1      -0.108  -2.756  -0.012  0.00  0.00    -0.491 OA
ATOM     25  C   UNL     1       0.452  -3.110   1.254  0.00  0.00    +0.277 C 
ENDBRANCH  21  24
ENDBRANCH   1  20
BRANCH   4  26
ATOM     26  C   UNL     1      -4.877  -7.885   0.060  0.00  0.00    -0.024 A 
ATOM     27  C   UNL     1      -3.917  -8.825   0.386  0.00  0.00    +0.009 A 
ATOM     28  C   UNL     1      -4.246 -10.167   0.427  0.00  0.00    +0.050 A 
ATOM     29  C   UNL     1      -5.540 -10.573   0.141  0.00  0.00    +0.162 A 
ATOM     30  C   UNL     1      -6.506  -9.627  -0.186  0.00  0.00    +0.162 A 
ATOM     31  C   UNL     1      -6.171  -8.283  -0.220  0.00  0.00    +0.054 A 
BRANCH  30  32
ATOM     32  O   UNL     1      -7.777 -10.020  -0.467  0.00  0.00    -0.491 OA
ATOM     33  C   UNL     1      -8.716  -8.994  -0.794  0.00  0.00    +0.277 C 
ENDBRANCH  30  32
BRANCH  29  34
ATOM     34  O   UNL     1      -5.864 -11.893   0.181  0.00  0.00    -0.491 OA
ATOM     35  C   UNL     1      -4.821 -12.808   0.524  0.00  0.00    +0.277 C 
ENDBRANCH  29  34
ENDBRANCH   4  26
TORSDOF 6
