REMARK  Name = ZINC55299672
REMARK  4 active torsions:
REMARK  status: ('A' for Active; 'I' for Inactive)
REMARK    1  A    between atoms: C_1  and  N_2
REMARK    2  A    between atoms: N_2  and  C_3
REMARK    3  A    between atoms: C_3  and  C_5
REMARK    4  A    between atoms: C_3  and  C_17
REMARK                            x       y       z     vdW  Elec       q    Type
REMARK                         _______ _______ _______ _____ _____    ______ ____
ROOT
ATOM      1  C   UNL     1      -1.435  -2.090   0.268  0.00  0.00    -0.037 A 
ATOM      2  C   UNL     1      -0.348  -2.917   0.044  0.00  0.00    +0.053 A 
ATOM      3  C   UNL     1      -0.446  -4.269   0.321  0.00  0.00    +0.162 A 
ATOM      4  C   UNL     1      -1.630  -4.793   0.821  0.00  0.00    +0.163 A 
ATOM      5  C   UNL     1      -2.716  -3.965   1.044  0.00  0.00    +0.069 A 
ATOM      6  C   UNL     1      -2.614  -2.611   0.772  0.00  0.00    +0.046 A 
ATOM      7 CL   UNL     1      -3.970  -1.565   1.057  0.00  0.00    -0.083 Cl
ATOM      8  O   UNL     1      -1.716  -6.128   1.091  0.00  0.00    -0.488 OA
ATOM      9  C   UNL     1      -1.686  -6.998  -0.042  0.00  0.00    +0.232 C 
ATOM     10  C   UNL     1      -0.254  -7.289  -0.462  0.00  0.00    +0.082 C 
ATOM     11  C   UNL     1       0.470  -6.044  -0.952  0.00  0.00    +0.232 C 
ATOM     12  O   UNL     1       0.619  -5.095   0.106  0.00  0.00    -0.488 OA
ENDROOT
BRANCH   1  13
ATOM     13  C   UNL     1      -1.333  -0.616  -0.032  0.00  0.00    -0.008 C 
BRANCH  13  14
ATOM     14  C   UNL     1      -1.995  -0.323  -1.379  0.00  0.00    +0.134 C 
ATOM     15  C   UNL     1      -2.017   1.189  -1.620  0.00  0.00    +0.190 C 
ATOM     16  O   UNL     1      -2.736   1.462  -2.827  0.00  0.00    -0.375 OA
ATOM     17  C   UNL     1      -4.079   0.969  -2.817  0.00  0.00    +0.188 C 
ATOM     18  C   UNL     1      -4.057  -0.543  -2.576  0.00  0.00    +0.188 C 
ATOM     19  O   UNL     1      -3.337  -0.818  -1.370  0.00  0.00    -0.373 OA
ENDBRANCH  13  14
BRANCH  13  21
ATOM     20  C   UNL     1       0.681  -0.369   1.248  0.00  0.00    -0.100 C 
ATOM     21  N   UNL     1       0.082  -0.225  -0.085  0.00  0.00    +0.384 N 
ATOM     22  H   UNL     1       0.154   0.736  -0.384  0.00  0.00    -0.085 HD
ATOM     23  H   UNL     1       0.570  -0.818  -0.740  0.00  0.00    -0.085 HD
ENDBRANCH  13  21
ENDBRANCH   1  13
TORSDOF 3
