REMARK  Name = ZINC39719899
REMARK  11 active torsions:
REMARK  status: ('A' for Active; 'I' for Inactive)
REMARK    1  A    between atoms: C_1  and  C_2
REMARK    2  A    between atoms: C_2  and  C_3
REMARK    3  A    between atoms: C_2  and  C_4
REMARK    4  A    between atoms: C_2  and  C_5
REMARK    5  A    between atoms: C_7  and  C_16
REMARK    6  A    between atoms: C_9  and  C_12
REMARK    7  A    between atoms: C_10  and  O_11
REMARK    8  A    between atoms: C_12  and  C_13
REMARK    9  A    between atoms: C_12  and  C_14
REMARK   10  A    between atoms: C_12  and  C_15
REMARK   11  A    between atoms: N_17  and  N_18
REMARK                            x       y       z     vdW  Elec       q    Type
REMARK                         _______ _______ _______ _____ _____    ______ ____
ROOT
ATOM      1  C   UNL     1       2.413   0.934  -4.260  0.00  0.00    +0.138 C 
ATOM      2  N   UNL     1       3.021   0.512  -5.327  0.00  0.00    -0.188 NA
ENDROOT
BRANCH   2   3
ATOM      3  N   UNL     1       3.538   1.432  -6.249  0.00  0.00    -0.206 N 
ATOM      4  C   UNL     1       4.184   0.983  -7.383  0.00  0.00    +0.227 C 
ATOM      5  N   UNL     1       4.288  -0.312  -7.564  0.00  0.00    -0.220 NA
ATOM      6  C   UNL     1       4.902  -0.778  -8.805  0.00  0.00    +0.253 C 
ATOM      7  C   UNL     1       5.874   0.310  -9.237  0.00  0.00    +0.115 C 
ATOM      8  C   UNL     1       7.043  -0.331  -9.511  0.00  0.00    +0.025 A 
ATOM      9  C   UNL     1       8.273   0.120 -10.053  0.00  0.00    +0.012 A 
ATOM     10  C   UNL     1       9.270  -0.794 -10.187  0.00  0.00    +0.001 A 
ATOM     11  C   UNL     1       9.157  -2.140  -9.826  0.00  0.00    +0.002 A 
ATOM     12  C   UNL     1       8.025  -2.684  -9.304  0.00  0.00    +0.026 A 
ATOM     13  C   UNL     1       6.886  -1.768  -9.129  0.00  0.00    +0.046 A 
ATOM     14  N   UNL     1       5.689  -1.996  -8.680  0.00  0.00    -0.358 N 
ATOM     15  N   UNL     1       5.545   1.604  -9.161  0.00  0.00    -0.171 NA
ATOM     16  N   UNL     1       4.669   1.906  -8.249  0.00  0.00    -0.247 N 
ATOM     17  H   UNL     1       3.442   2.384  -6.090  0.00  0.00    +0.177 HD
ATOM     18  H   UNL     1       4.355   2.821  -8.183  0.00  0.00    +0.192 HD
ATOM     19  H   UNL     1       5.372  -2.840  -8.321  0.00  0.00    +0.162 HD
ENDBRANCH   2   3
BRANCH   1  22
ATOM     20  C   UNL     1       0.707  -0.490  -1.238  0.00  0.00    +0.000 A 
ATOM     21  C   UNL     1       1.215   0.418  -2.141  0.00  0.00    +0.017 A 
ATOM     22  C   UNL     1       1.869  -0.034  -3.291  0.00  0.00    -0.005 A 
ATOM     23  C   UNL     1       2.006  -1.406  -3.518  0.00  0.00    +0.017 A 
ATOM     24  C   UNL     1       1.495  -2.307  -2.609  0.00  0.00    +0.000 A 
ATOM     25  C   UNL     1       0.850  -1.853  -1.465  0.00  0.00    +0.124 A 
BRANCH  20  27
ATOM     26  C   UNL     1      -0.019   1.526   0.010  0.00  0.00    +0.015 C 
ATOM     27  C   UNL     1       0.002  -0.004   0.002  0.00  0.00    -0.009 C 
ATOM     28  C   UNL     1       0.742  -0.511   1.242  0.00  0.00    +0.015 C 
ATOM     29  C   UNL     1      -1.433  -0.534   0.013  0.00  0.00    +0.015 C 
ENDBRANCH  20  27
BRANCH  24  30
ATOM     30  C   UNL     1       1.642  -3.787  -2.853  0.00  0.00    -0.009 C 
ATOM     31  C   UNL     1       2.389  -4.015  -4.168  0.00  0.00    +0.015 C 
ATOM     32  C   UNL     1       2.429  -4.418  -1.702  0.00  0.00    +0.015 C 
ATOM     33  C   UNL     1       0.256  -4.430  -2.935  0.00  0.00    +0.015 C 
ENDBRANCH  24  30
BRANCH  25  34
ATOM     34  O   UNL     1       0.353  -2.745  -0.569  0.00  0.00    -0.506 OA
ATOM     35  H   UNL     1      -0.560  -3.011  -0.745  0.00  0.00    +0.292 HD
ENDBRANCH  25  34
ENDBRANCH   1  22
TORSDOF 5
