REMARK  Name = ZINC64538283
REMARK  8 active torsions:
REMARK  status: ('A' for Active; 'I' for Inactive)
REMARK    1  A    between atoms: C_1  and  C_2
REMARK    2  A    between atoms: C_8  and  C_11
REMARK    3  A    between atoms: C_11  and  C_12
REMARK    4  A    between atoms: C_12  and  N_13
REMARK    5  A    between atoms: C_14  and  C_16
REMARK    6  A    between atoms: C_16  and  C_18
REMARK    7  A    between atoms: C_16  and  N_19
REMARK    8  A    between atoms: C_27  and  C_31
REMARK                            x       y       z     vdW  Elec       q    Type
REMARK                         _______ _______ _______ _____ _____    ______ ____
ROOT
ATOM      1  C   UNL     1      -2.534  -2.338   7.783  0.00  0.00    +0.164 C 
ATOM      2  C   UNL     1      -1.942  -0.955   8.057  0.00  0.00    +0.038 C 
ENDROOT
BRANCH   1   3
ATOM      3  N   UNL     1      -3.908  -2.390   8.291  0.00  0.00    -0.256 N 
ATOM      4  C   UNL     1      -4.247  -3.324   9.277  0.00  0.00    +0.058 A 
ATOM      5  C   UNL     1      -3.264  -3.994   9.986  0.00  0.00    +0.025 A 
ATOM      6  C   UNL     1      -3.620  -4.917  10.953  0.00  0.00    +0.002 A 
ATOM      7  C   UNL     1      -4.953  -5.174  11.216  0.00  0.00    +0.002 A 
ATOM      8  C   UNL     1      -5.942  -4.508  10.514  0.00  0.00    +0.025 A 
ATOM      9  C   UNL     1      -5.592  -3.583   9.548  0.00  0.00    +0.050 A 
ATOM     10  N   UNL     1      -6.570  -2.883   8.828  0.00  0.00    -0.325 N 
ATOM     11  C   UNL     1      -6.237  -1.534   8.346  0.00  0.00    +0.262 C 
ATOM     12  C   UNL     1      -4.829  -1.536   7.808  0.00  0.00    +0.250 C 
ATOM     13  O   UNL     1      -4.524  -0.760   6.926  0.00  0.00    -0.273 OA
ATOM     14  H   UNL     1      -7.440  -3.276   8.652  0.00  0.00    +0.147 HD
BRANCH  11  15
ATOM     15  C   UNL     1      -6.338  -0.538   9.503  0.00  0.00    +0.416 C 
ATOM     16  F   UNL     1      -5.444  -0.905  10.514  0.00  0.00    -0.168 F 
ATOM     17  F   UNL     1      -6.021   0.745   9.043  0.00  0.00    -0.168 F 
ATOM     18  F   UNL     1      -7.642  -0.542  10.009  0.00  0.00    -0.168 F 
ENDBRANCH  11  15
ENDBRANCH   1   3
BRANCH   1  20
ATOM     19  N   UNL     1      -1.377  -2.600   5.613  0.00  0.00    -0.313 N 
ATOM     20  C   UNL     1      -2.537  -2.599   6.299  0.00  0.00    +0.234 C 
ATOM     21  O   UNL     1      -3.583  -2.808   5.722  0.00  0.00    -0.274 OA
ATOM     22  H   UNL     1      -0.540  -2.433   6.075  0.00  0.00    +0.149 HD
BRANCH  19  23
ATOM     23  C   UNL     1      -1.379  -2.854   4.170  0.00  0.00    +0.108 C 
BRANCH  23  24
ATOM     24  C   UNL     1       0.055  -2.799   3.641  0.00  0.00    +0.052 C 
BRANCH  24  32
ATOM     25  C   UNL     1      -0.018   1.503   0.010  0.00  0.00    +0.044 C 
ATOM     26  C   UNL     1       0.002  -0.004   0.002  0.00  0.00    -0.050 A 
ATOM     27  C   UNL     1       0.005  -0.680  -1.226  0.00  0.00    +0.005 A 
ATOM     28  C   UNL     1       0.023  -2.026  -1.317  0.00  0.00    +0.026 A 
ATOM     29  C   UNL     1       0.039  -2.826  -0.141  0.00  0.00    +0.043 A 
ATOM     30  N   UNL     1       0.057  -4.126   0.030  0.00  0.00    -0.380 N 
ATOM     31  C   UNL     1       0.067  -4.408   1.470  0.00  0.00    +0.144 C 
ATOM     32  C   UNL     1       0.052  -3.060   2.156  0.00  0.00    -0.040 C 
ATOM     33  C   UNL     1       0.036  -2.137   1.168  0.00  0.00    -0.001 A 
ATOM     34  C   UNL     1       0.022  -0.669   1.180  0.00  0.00    +0.013 A 
ATOM     35  H   UNL     1       0.062  -4.790  -0.677  0.00  0.00    +0.160 HD
ENDBRANCH  24  32
ENDBRANCH  23  24
ENDBRANCH  19  23
ENDBRANCH   1  20
TORSDOF 6
