REMARK  Name = ZINC62715868
REMARK  9 active torsions:
REMARK  status: ('A' for Active; 'I' for Inactive)
REMARK    1  A    between atoms: CG_4  and  CB_7
REMARK    2  A    between atoms: CB_7  and  CA_8
REMARK    3  A    between atoms: CA_8  and  C_10
REMARK    4  A    between atoms: CA_8  and  N_13
REMARK    5  A    between atoms: C_14  and  C_16
REMARK    6  A    between atoms: C_17  and  C_18
REMARK    7  A    between atoms: C_23  and  O_24
REMARK    8  A    between atoms: O_24  and  C_25
REMARK    9  A    between atoms: C_25  and  C_26
REMARK                            x       y       z     vdW  Elec       q    Type
REMARK                         _______ _______ _______ _____ _____    ______ ____
ROOT
ATOM      1  C   UNK A   0       4.657   1.688   4.057  0.00  0.00    +0.068 C 
ATOM      2  C   UNK A   0       4.584   1.785   5.402  0.00  0.00    +0.016 C 
ENDROOT
BRANCH   2   3
ATOM      3  C   UNK A   0       4.864   3.068   6.062  0.00  0.00    +0.018 A 
ATOM      4  C   UNK A   0       5.202   4.192   5.301  0.00  0.00    +0.026 A 
ATOM      5  C   UNK A   0       5.464   5.392   5.928  0.00  0.00    +0.019 A 
ATOM      6  C   UNK A   0       5.395   5.489   7.309  0.00  0.00    +0.019 A 
ATOM      7  C   UNK A   0       5.062   4.386   8.072  0.00  0.00    +0.047 A 
ATOM      8  C   UNK A   0       4.789   3.173   7.460  0.00  0.00    +0.128 A 
ATOM      9 BR   UNK A   0       5.921   6.911   4.899  0.00  0.00    -0.050 Br
BRANCH   8  10
ATOM     10  O   UNK A   0       4.457   2.092   8.208  0.00  0.00    -0.487 OA
BRANCH  10  11
ATOM     11  C   UNK A   0       4.400   2.275   9.624  0.00  0.00    +0.266 C 
BRANCH  11  12
ATOM     12  C   UNK A   0       4.018   0.975  10.284  0.00  0.00    +0.008 A 
ATOM     13  C   UNK A   0       3.791  -0.150   9.515  0.00  0.00    +0.008 A 
ATOM     14  C   UNK A   0       3.440  -1.343  10.120  0.00  0.00    +0.000 A 
ATOM     15  C   UNK A   0       3.317  -1.410  11.495  0.00  0.00    +0.001 A 
ATOM     16  C   UNK A   0       3.543  -0.285  12.266  0.00  0.00    +0.020 A 
ATOM     17  C   UNK A   0       3.900   0.907  11.661  0.00  0.00    +0.047 A 
ATOM     18 CL   UNK A   0       4.191   2.319  12.629  0.00  0.00    -0.083 Cl
ENDBRANCH  11  12
ENDBRANCH  10  11
ENDBRANCH   8  10
ENDBRANCH   2   3
BRANCH   1  20
ATOM     19  N   PHE A   1       4.451   0.315   2.057  0.00  0.00    -0.298 N 
ATOM     20  C   UNK A   0       4.378   0.412   3.400  0.00  0.00    +0.238 C 
ATOM     21  O   UNK A   0       4.079  -0.563   4.065  0.00  0.00    -0.271 OA
ATOM     22  H   PHE A   1       4.689   1.092   1.527  0.00  0.00    +0.150 HD
BRANCH  19  23
ATOM     23  CA  PHE A   1       4.171  -0.963   1.399  0.00  0.00    +0.191 C 
BRANCH  23  24
ATOM     24  C   PHE A   1       5.422  -1.804   1.383  0.00  0.00    +0.376 C 
ATOM     25  O   PHE A   1       6.490  -1.315   1.708  0.00  0.00    -0.244 OA
ATOM     26  OXT PHE A   1       5.365  -2.975   1.047  0.00  0.00    -0.244 OA
ENDBRANCH  23  24
BRANCH  23  27
ATOM     27  CB  PHE A   1       3.711  -0.707  -0.038  0.00  0.00    +0.069 C 
BRANCH  27  31
ATOM     28  CZ  PHE A   1      -0.017   1.378   0.010  0.00  0.00    +0.000 A 
ATOM     29  CE1 PHE A   1       1.171   2.086   0.002  0.00  0.00    +0.000 A 
ATOM     30  CD1 PHE A   1       2.377   1.411  -0.013  0.00  0.00    +0.004 A 
ATOM     31  CG  PHE A   1       2.396   0.029  -0.020  0.00  0.00    -0.045 A 
ATOM     32  CD2 PHE A   1       1.208  -0.679  -0.012  0.00  0.00    +0.004 A 
ATOM     33  CE2 PHE A   1       0.002  -0.004   0.002  0.00  0.00    +0.000 A 
ENDBRANCH  27  31
ENDBRANCH  23  27
ENDBRANCH  19  23
ENDBRANCH   1  20
TORSDOF 9
