REMARK  Name = ZINC67119299
REMARK  6 active torsions:
REMARK  status: ('A' for Active; 'I' for Inactive)
REMARK    1  A    between atoms: C_5  and  O_21
REMARK    2  A    between atoms: C_6  and  C_7
REMARK    3  A    between atoms: N_9  and  C_10
REMARK    4  A    between atoms: C_10  and  C_11
REMARK    5  A    between atoms: C_11  and  C_12
REMARK    6  A    between atoms: N_16  and  C_17
REMARK                            x       y       z     vdW  Elec       q    Type
REMARK                         _______ _______ _______ _____ _____    ______ ____
ROOT
ATOM      1  C   UNL     1      -1.271  -0.762  -0.254  0.00  0.00    +0.248 C 
ATOM      2  O   UNL     1      -1.251  -1.978  -0.249  0.00  0.00    -0.270 OA
ATOM      3  N   UNL     1      -2.448  -0.108  -0.193  0.00  0.00    -0.311 N 
ATOM      4  H   UNL     1      -2.464   0.862  -0.196  0.00  0.00    +0.149 HD
ENDROOT
BRANCH   1  10
ATOM      5  C   UNL     1      -0.028   1.393  -0.330  0.00  0.00    +0.018 A 
ATOM      6  C   UNL     1       1.155   2.097  -0.396  0.00  0.00    +0.022 A 
ATOM      7  C   UNL     1       2.366   1.425  -0.458  0.00  0.00    +0.063 A 
ATOM      8  C   UNL     1       2.399   0.043  -0.454  0.00  0.00    +0.101 A 
ATOM      9  C   UNL     1       1.218  -0.681  -0.388  0.00  0.00    +0.149 A 
ATOM     10  C   UNL     1      -0.008  -0.004  -0.325  0.00  0.00    +0.080 A 
ATOM     11 CL   UNL     1       3.921  -0.789  -0.532  0.00  0.00    -0.078 Cl
ATOM     12 CL   UNL     1       3.849   2.325  -0.541  0.00  0.00    -0.082 Cl
BRANCH   9  13
ATOM     13  O   UNL     1       1.248  -2.037  -0.386  0.00  0.00    -0.504 OA
ATOM     14  H   UNL     1       1.304  -2.427   0.497  0.00  0.00    +0.292 HD
ENDBRANCH   9  13
ENDBRANCH   1  10
BRANCH   3  15
ATOM     15  C   UNL     1      -3.702  -0.862  -0.122  0.00  0.00    +0.112 C 
BRANCH  15  16
ATOM     16  C   UNL     1      -4.880   0.113  -0.063  0.00  0.00    +0.095 C 
BRANCH  16  17
ATOM     17  C   UNL     1      -6.170  -0.662   0.010  0.00  0.00    +0.134 A 
ATOM     18  N   UNL     1      -6.274  -1.952   0.026  0.00  0.00    -0.158 NA
ATOM     19  N   UNL     1      -7.635  -2.279   0.099  0.00  0.00    -0.254 N 
ATOM     20  C   UNL     1      -8.326  -1.120   0.124  0.00  0.00    +0.176 A 
ATOM     21  N   UNL     1      -7.428  -0.115   0.075  0.00  0.00    -0.304 N 
ATOM     22  S   UNL     1     -10.028  -0.956   0.209  0.00  0.00    -0.011 S 
ATOM     23  H   UNL     1      -8.011  -3.173   0.126  0.00  0.00    +0.191 HD
BRANCH  21  24
ATOM     24  C   UNL     1      -7.742   1.316   0.086  0.00  0.00    +0.091 C 
ATOM     25  C   UNL     1      -9.184   1.725  -0.217  0.00  0.00    +0.027 C 
ATOM     26  C   UNL     1      -8.643   1.833   1.210  0.00  0.00    +0.027 C 
ENDBRANCH  21  24
ENDBRANCH  16  17
ENDBRANCH  15  16
ENDBRANCH   3  15
TORSDOF 6
