REMARK  Name = ZINC13069448
REMARK  12 active torsions:
REMARK  status: ('A' for Active; 'I' for Inactive)
REMARK    1  A    between atoms: C_1  and  C_2
REMARK    2  A    between atoms: C_5  and  C_34
REMARK    3  A    between atoms: N_8  and  C_10
REMARK    4  A    between atoms: C_10  and  C_11
REMARK    5  A    between atoms: N_13  and  C_14
REMARK    6  A    between atoms: C_14  and  C_15
REMARK    7  A    between atoms: C_15  and  N_16
REMARK    8  A    between atoms: C_20  and  C_21
REMARK    9  A    between atoms: C_24  and  C_27
REMARK   10  A    between atoms: C_27  and  C_28
REMARK   11  A    between atoms: C_27  and  C_29
REMARK   12  A    between atoms: C_27  and  C_30
REMARK                            x       y       z     vdW  Elec       q    Type
REMARK                         _______ _______ _______ _____ _____    ______ ____
ROOT
ATOM      1  N   UNL     1       7.991  -2.821   5.159  0.00  0.00    -0.227 N 
ATOM      2  C   UNL     1       8.659  -3.337   4.141  0.00  0.00    +0.260 C 
ATOM      3  O   UNL     1       8.266  -4.327   3.553  0.00  0.00    -0.269 OA
ATOM      4  C   UNL     1       9.910  -2.650   3.754  0.00  0.00    +0.080 C 
ATOM      5  C   UNL     1      10.789  -2.946   2.766  0.00  0.00    +0.028 C 
ATOM      6  S   UNL     1       9.943  -1.319   4.948  0.00  0.00    -0.026 S 
ATOM      7  C   UNL     1       8.428  -1.721   5.804  0.00  0.00    +0.286 C 
ATOM      8  O   UNL     1       7.915  -1.143   6.743  0.00  0.00    -0.262 OA
ENDROOT
BRANCH   5   9
ATOM      9  C   UNL     1      12.070  -2.228   2.682  0.00  0.00    -0.024 A 
ATOM     10  C   UNL     1      12.468  -1.377   3.718  0.00  0.00    +0.008 A 
ATOM     11  C   UNL     1      13.671  -0.708   3.631  0.00  0.00    +0.005 A 
ATOM     12  C   UNL     1      14.483  -0.877   2.523  0.00  0.00    -0.042 A 
ATOM     13  C   UNL     1      14.096  -1.717   1.494  0.00  0.00    +0.005 A 
ATOM     14  C   UNL     1      12.899  -2.398   1.567  0.00  0.00    +0.008 A 
BRANCH  12  15
ATOM     15  C   UNL     1      15.795  -0.141   2.437  0.00  0.00    -0.013 C 
ATOM     16  C   UNL     1      16.684  -0.545   3.615  0.00  0.00    +0.015 C 
ATOM     17  C   UNL     1      16.495  -0.499   1.124  0.00  0.00    +0.015 C 
ATOM     18  C   UNL     1      15.539   1.366   2.484  0.00  0.00    +0.015 C 
ENDBRANCH  12  15
ENDBRANCH   5   9
BRANCH   1  19
ATOM     19  C   UNL     1       6.744  -3.457   5.591  0.00  0.00    +0.136 C 
BRANCH  19  20
ATOM     20  C   UNL     1       5.568  -2.845   4.826  0.00  0.00    +0.123 C 
BRANCH  20  23
ATOM     21  C   UNL     1       3.147  -3.099   4.716  0.00  0.00    +0.196 C 
ATOM     22  O   UNL     1       3.124  -2.230   3.870  0.00  0.00    -0.278 OA
ATOM     23  N   UNL     1       4.321  -3.480   5.258  0.00  0.00    -0.315 N 
ATOM     24  H   UNL     1       4.340  -4.175   5.935  0.00  0.00    +0.149 HD
BRANCH  21  25
ATOM     25  C   UNL     1       1.864  -3.752   5.161  0.00  0.00    +0.019 C 
BRANCH  25  31
ATOM     26  C   UNL     1      -0.655   0.364   4.340  0.00  0.00    +0.005 C 
ATOM     27  C   UNL     1      -0.518  -1.112   3.962  0.00  0.00    -0.031 C 
ATOM     28  C   UNL     1      -1.834  -1.839   4.256  0.00  0.00    +0.003 C 
ATOM     29  C   UNL     1      -1.662  -3.329   3.949  0.00  0.00    -0.031 C 
ATOM     30  C   UNL     1      -0.497  -3.883   4.772  0.00  0.00    -0.075 C 
ATOM     31  N   UNL     1       0.736  -3.166   4.426  0.00  0.00    +0.386 N 
ATOM     32  C   UNL     1       0.605  -1.748   4.784  0.00  0.00    -0.075 C 
ATOM     33  C   UNL     1      -2.947  -4.077   4.312  0.00  0.00    +0.005 C 
ATOM     34  H   UNL     1       0.904  -3.246   3.435  0.00  0.00    -0.081 HD
ENDBRANCH  25  31
ENDBRANCH  21  25
ENDBRANCH  20  23
ENDBRANCH  19  20
ENDBRANCH   1  19
TORSDOF 7
