REMARK  Name = ZINC09218769
REMARK  6 active torsions:
REMARK  status: ('A' for Active; 'I' for Inactive)
REMARK    1  A    between atoms: N_10  and  S_11
REMARK    2  A    between atoms: S_11  and  C_14
REMARK    3  A    between atoms: C_17  and  C_20
REMARK    4  A    between atoms: N_22  and  N_23
REMARK    5  A    between atoms: C_24  and  C_26
REMARK    6  A    between atoms: C_26  and  C_27
REMARK                            x       y       z     vdW  Elec       q    Type
REMARK                         _______ _______ _______ _____ _____    ______ ____
ROOT
ATOM      1  C   UNL     1      -5.663   4.729   7.267  0.00  0.00    +0.109 A 
ATOM      2  C   UNL     1      -6.348   5.337   6.229  0.00  0.00    +0.029 A 
ATOM      3  C   UNL     1      -5.920   5.172   4.927  0.00  0.00    +0.015 A 
ATOM      4  C   UNL     1      -4.795   4.391   4.659  0.00  0.00    +0.038 A 
ATOM      5  C   UNL     1      -4.113   3.777   5.710  0.00  0.00    +0.015 A 
ATOM      6  C   UNL     1      -4.547   3.954   7.008  0.00  0.00    +0.029 A 
ENDROOT
BRANCH   4   7
ATOM      7  C   UNL     1      -4.332   4.210   3.267  0.00  0.00    +0.260 C 
ATOM      8  O   UNL     1      -4.931   4.742   2.353  0.00  0.00    -0.269 OA
ATOM      9  N   UNL     1      -3.245   3.455   3.011  0.00  0.00    -0.230 N 
ATOM     10  H   UNL     1      -2.767   3.031   3.740  0.00  0.00    +0.173 HD
BRANCH   9  11
ATOM     11  N   UNL     1      -2.806   3.284   1.691  0.00  0.00    -0.234 N 
ATOM     12  C   UNL     1      -1.719   2.529   1.436  0.00  0.00    +0.233 C 
ATOM     13  O   UNL     1      -1.121   1.998   2.347  0.00  0.00    -0.274 OA
ATOM     14  H   UNL     1      -3.284   3.708   0.962  0.00  0.00    +0.173 HD
BRANCH  12  15
ATOM     15  C   UNL     1      -1.247   2.345   0.016  0.00  0.00    +0.134 C 
BRANCH  15  16
ATOM     16  C   UNL     1      -0.024   1.464   0.004  0.00  0.00    -0.014 A 
ATOM     17  C   UNL     1       1.254   1.874  -0.006  0.00  0.00    +0.087 A 
ATOM     18  N   UNL     1       2.091   0.792  -0.021  0.00  0.00    -0.360 N 
ATOM     19  H   UNL     1       3.060   0.837  -0.031  0.00  0.00    +0.165 HD
ATOM     20  C   UNL     1       1.353  -0.371  -0.021  0.00  0.00    +0.047 A 
ATOM     21  C   UNL     1      -0.004  -0.000  -0.004  0.00  0.00    +0.003 A 
ATOM     22  C   UNL     1      -0.995  -0.984   0.000  0.00  0.00    +0.010 A 
ATOM     23  C   UNL     1      -0.640  -2.304  -0.011  0.00  0.00    +0.001 A 
ATOM     24  C   UNL     1       0.697  -2.674  -0.027  0.00  0.00    +0.002 A 
ATOM     25  C   UNL     1       1.691  -1.720  -0.032  0.00  0.00    +0.026 A 
ENDBRANCH  15  16
ENDBRANCH  12  15
ENDBRANCH   9  11
ENDBRANCH   4   7
BRANCH   1  26
ATOM     26  S   UNL     1      -6.215   4.945   8.926  0.00  0.00    +0.075 S 
ATOM     27  O   UNL     1      -5.087   4.723   9.761  0.00  0.00    -0.150 OA
ATOM     28  O   UNL     1      -6.955   6.158   8.953  0.00  0.00    -0.150 OA
BRANCH  26  38
ATOM     29  C   UNL     1      -5.897   0.015  10.524  0.00  0.00    +0.000 A 
ATOM     30  C   UNL     1      -5.019   0.941   9.992  0.00  0.00    +0.002 A 
ATOM     31  C   UNL     1      -5.485   2.169   9.569  0.00  0.00    +0.025 A 
ATOM     32  C   UNL     1      -6.838   2.475   9.678  0.00  0.00    +0.054 A 
ATOM     33  C   UNL     1      -7.718   1.546  10.209  0.00  0.00    -0.025 A 
ATOM     34  C   UNL     1      -7.241   0.316  10.632  0.00  0.00    +0.005 A 
ATOM     35  C   UNL     1      -9.190   1.839  10.338  0.00  0.00    +0.038 C 
ATOM     36  C   UNL     1      -9.439   3.347  10.310  0.00  0.00    +0.025 C 
ATOM     37  C   UNL     1      -8.734   3.945   9.090  0.00  0.00    +0.132 C 
ATOM     38  N   UNL     1      -7.290   3.727   9.247  0.00  0.00    -0.203 N 
ENDBRANCH  26  38
ENDBRANCH   1  26
TORSDOF 6
