REMARK  Name = ZINC61487006
REMARK  6 active torsions:
REMARK  status: ('A' for Active; 'I' for Inactive)
REMARK    1  A    between atoms: C_1  and  N_2
REMARK    2  A    between atoms: N_2  and  C_3
REMARK    3  A    between atoms: N_2  and  C_8
REMARK    4  A    between atoms: C_3  and  C_4
REMARK    5  A    between atoms: C_10  and  C_16
REMARK    6  A    between atoms: C_11  and  N_15
REMARK                            x       y       z     vdW  Elec       q    Type
REMARK                         _______ _______ _______ _____ _____    ______ ____
ROOT
ATOM      1  C   UNL     1      -0.136  -0.729  -1.204  0.00  0.00    +0.066 A 
ATOM      2  C   UNL     1       1.122  -0.975  -1.719  0.00  0.00    +0.043 A 
ATOM      3  C   UNL     1       1.256  -1.637  -2.946  0.00  0.00    +0.086 A 
ATOM      4  C   UNL     1       0.108  -2.047  -3.644  0.00  0.00    +0.042 A 
ATOM      5  C   UNL     1      -1.149  -1.792  -3.114  0.00  0.00    +0.063 A 
ATOM      6  C   UNL     1      -1.272  -1.143  -1.900  0.00  0.00    +0.146 A 
ATOM      7  F   UNL     1      -2.498  -0.903  -1.387  0.00  0.00    -0.203 F 
ENDROOT
BRANCH   4   8
ATOM      8  N   UNL     1       0.230  -2.704  -4.863  0.00  0.00    -0.357 N 
ATOM      9  H   UNL     1       1.107  -2.955  -5.192  0.00  0.00    +0.142 HD
ATOM     10  H   UNL     1      -0.561  -2.911  -5.384  0.00  0.00    +0.142 HD
ENDBRANCH   4   8
BRANCH   3  11
ATOM     11  C   UNL     1       2.591  -1.901  -3.500  0.00  0.00    +0.388 C 
ATOM     12  O   UNL     1       3.584  -1.444  -2.949  0.00  0.00    -0.241 OA
ATOM     13  O   UNL     1       2.710  -2.579  -4.511  0.00  0.00    -0.241 OA
ENDBRANCH   3  11
BRANCH   1  15
ATOM     14  C   UNL     1      -0.378   1.393   0.060  0.00  0.00    +0.129 C 
ATOM     15  N   UNL     1      -0.271  -0.067   0.024  0.00  0.00    -0.330 N 
BRANCH  15  16
ATOM     16  C   UNL     1      -0.306  -0.836   1.270  0.00  0.00    +0.108 C 
BRANCH  16  17
ATOM     17  C   UNL     1      -1.754  -1.205   1.601  0.00  0.00    +0.006 C 
ATOM     18  C   UNL     1      -2.493  -0.131   2.416  0.00  0.00    +0.005 C 
ATOM     19  C   UNL     1      -3.122  -1.283   3.217  0.00  0.00    +0.001 C 
ATOM     20  C   UNL     1      -1.891  -2.119   2.830  0.00  0.00    +0.005 C 
ENDBRANCH  16  17
ENDBRANCH  15  16
ENDBRANCH   1  15
TORSDOF 5
