REMARK  Name = ZINC08765853
REMARK  8 active torsions:
REMARK  status: ('A' for Active; 'I' for Inactive)
REMARK    1  A    between atoms: C_6  and  C_7
REMARK    2  A    between atoms: C_12  and  O_18
REMARK    3  A    between atoms: O_18  and  C_19
REMARK    4  A    between atoms: C_21  and  O_34
REMARK    5  A    between atoms: C_23  and  O_33
REMARK    6  A    between atoms: C_25  and  O_32
REMARK    7  A    between atoms: C_27  and  C_30
REMARK    8  A    between atoms: C_30  and  O_31
REMARK                            x       y       z     vdW  Elec       q    Type
REMARK                         _______ _______ _______ _____ _____    ______ ____
ROOT
ATOM      1  C   UNL     1       4.894   0.192  -0.046  0.00  0.00    +0.064 A 
ATOM      2  C   UNL     1       4.741   1.541  -0.037  0.00  0.00    +0.208 A 
ATOM      3  O   UNL     1       3.542   2.128  -0.021  0.00  0.00    -0.462 OA
ATOM      4  C   UNL     1       2.382   1.442  -0.013  0.00  0.00    +0.142 A 
ATOM      5  C   UNL     1       1.165   2.110   0.002  0.00  0.00    +0.092 A 
ATOM      6  C   UNL     1      -0.017   1.389   0.010  0.00  0.00    +0.128 A 
ATOM      7  C   UNL     1       0.002  -0.004   0.002  0.00  0.00    +0.047 A 
ATOM      8  C   UNL     1       1.190  -0.677  -0.013  0.00  0.00    +0.019 A 
ATOM      9  C   UNL     1       2.390   0.036  -0.021  0.00  0.00    +0.065 A 
ATOM     10  C   UNL     1       3.691  -0.657  -0.037  0.00  0.00    +0.200 A 
ATOM     11  O   UNL     1       3.767  -1.874  -0.045  0.00  0.00    -0.286 OA
ENDROOT
BRANCH   1  17
ATOM     12  C   UNL     1       6.580  -1.409   0.855  0.00  0.00    +0.010 A 
ATOM     13  C   UNL     1       7.839  -1.974   0.832  0.00  0.00    +0.016 A 
ATOM     14  C   UNL     1       8.774  -1.547  -0.095  0.00  0.00    +0.018 A 
ATOM     15  C   UNL     1       8.451  -0.557  -1.006  0.00  0.00    +0.016 A 
ATOM     16  C   UNL     1       7.193   0.011  -0.995  0.00  0.00    +0.010 A 
ATOM     17  C   UNL     1       6.248  -0.415  -0.063  0.00  0.00    -0.011 A 
ATOM     18 BR   UNL     1      10.499  -2.321  -0.117  0.00  0.00    -0.050 Br
ENDBRANCH   1  17
BRANCH   6  19
ATOM     19  O   UNL     1      -1.205   2.046   0.019  0.00  0.00    -0.461 OA
BRANCH  19  20
ATOM     20  C   UNL     1      -2.389   1.245   0.020  0.00  0.00    +0.339 C 
ATOM     21  C   UNL     1      -3.616   2.149   0.157  0.00  0.00    +0.214 C 
ATOM     22  C   UNL     1      -3.689   3.084  -1.054  0.00  0.00    +0.180 C 
ATOM     23  C   UNL     1      -3.726   2.243  -2.334  0.00  0.00    +0.177 C 
ATOM     24  C   UNL     1      -2.494   1.335  -2.374  0.00  0.00    +0.179 C 
ATOM     25  O   UNL     1      -2.471   0.514  -1.205  0.00  0.00    -0.331 OA
BRANCH  23  26
ATOM     26  O   UNL     1      -4.910   1.443  -2.346  0.00  0.00    -0.386 OA
ATOM     27  H   UNL     1      -5.731   1.955  -2.317  0.00  0.00    +0.210 HD
ENDBRANCH  23  26
BRANCH  22  28
ATOM     28  O   UNL     1      -4.873   3.881  -0.972  0.00  0.00    -0.386 OA
ATOM     29  H   UNL     1      -4.919   4.435  -0.181  0.00  0.00    +0.210 HD
ENDBRANCH  22  28
BRANCH  21  30
ATOM     30  O   UNL     1      -4.797   1.346   0.211  0.00  0.00    -0.383 OA
ATOM     31  H   UNL     1      -4.816   0.725   0.953  0.00  0.00    +0.210 HD
ENDBRANCH  21  30
BRANCH  24  32
ATOM     32  C   UNL     1      -2.554   0.449  -3.620  0.00  0.00    +0.190 C 
BRANCH  32  33
ATOM     33  O   UNL     1      -1.350  -0.315  -3.719  0.00  0.00    -0.392 OA
ATOM     34  H   UNL     1      -1.318  -0.901  -4.488  0.00  0.00    +0.210 HD
ENDBRANCH  32  33
ENDBRANCH  24  32
ENDBRANCH  19  20
ENDBRANCH   6  19
TORSDOF 8
