REMARK  Name = ZINC09187603
REMARK  9 active torsions:
REMARK  status: ('A' for Active; 'I' for Inactive)
REMARK    1  A    between atoms: C_1  and  C_2
REMARK    2  A    between atoms: C_4  and  C_32
REMARK    3  A    between atoms: C_6  and  N_8
REMARK    4  A    between atoms: C_9  and  C_11
REMARK    5  A    between atoms: C_11  and  S_12
REMARK    6  A    between atoms: S_12  and  C_13
REMARK    7  A    between atoms: C_16  and  C_19
REMARK    8  A    between atoms: N_17  and  N_18
REMARK    9  A    between atoms: C_21  and  C_25
REMARK                            x       y       z     vdW  Elec       q    Type
REMARK                         _______ _______ _______ _____ _____    ______ ____
ROOT
ATOM      1  C   UNL     1       0.519  -2.792   7.644  0.00  0.00    +0.209 A 
ATOM      2  N   UNL     1       0.636  -4.101   7.672  0.00  0.00    -0.120 NA
ATOM      3  N   UNL     1       0.743  -4.508   8.886  0.00  0.00    -0.125 NA
ATOM      4  C   UNL     1       0.701  -3.484   9.709  0.00  0.00    +0.199 A 
ATOM      5  N   UNL     1       0.561  -2.353   8.937  0.00  0.00    -0.223 N 
ENDROOT
BRANCH   4   6
ATOM      6  C   UNL     1       0.791  -3.537  11.178  0.00  0.00    +0.105 A 
ATOM      7  C   UNL     1       1.232  -4.594  11.924  0.00  0.00    +0.061 A 
ATOM      8  C   UNL     1       1.155  -4.226  13.277  0.00  0.00    +0.093 A 
ATOM      9  N   UNL     1       0.688  -2.997  13.347  0.00  0.00    -0.173 NA
ATOM     10  N   UNL     1       0.455  -2.536  12.044  0.00  0.00    -0.273 N 
ATOM     11  H   UNL     1       0.115  -1.661  11.801  0.00  0.00    +0.189 HD
BRANCH   8  12
ATOM     12  C   UNL     1       1.536  -5.077  14.432  0.00  0.00    +0.002 A 
ATOM     13  C   UNL     1       2.024  -6.364  14.220  0.00  0.00    +0.013 A 
ATOM     14  C   UNL     1       2.377  -7.152  15.296  0.00  0.00    +0.039 A 
ATOM     15  C   UNL     1       2.246  -6.665  16.587  0.00  0.00    +0.123 A 
ATOM     16  C   UNL     1       1.761  -5.385  16.802  0.00  0.00    +0.039 A 
ATOM     17  C   UNL     1       1.411  -4.589  15.731  0.00  0.00    +0.013 A 
ATOM     18  F   UNL     1       2.592  -7.439  17.638  0.00  0.00    -0.205 F 
ENDBRANCH   8  12
ENDBRANCH   4   6
BRANCH   5  19
ATOM     19  N   UNL     1       0.479  -1.061   9.373  0.00  0.00    -0.295 N 
ATOM     20  H   UNL     1      -0.483  -0.779   9.490  0.00  0.00    +0.163 HD
ATOM     21  H   UNL     1       0.999  -0.934  10.228  0.00  0.00    +0.163 HD
ENDBRANCH   5  19
BRANCH   1  22
ATOM     22  S   UNL     1       0.348  -1.789   6.205  0.00  0.00    -0.075 S 
BRANCH  22  23
ATOM     23  C   UNL     1       0.364  -2.979   4.836  0.00  0.00    +0.173 C 
BRANCH  23  25
ATOM     24  N   UNL     1       0.209  -2.928   2.368  0.00  0.00    -0.285 N 
ATOM     25  C   UNL     1       0.223  -2.243   3.529  0.00  0.00    +0.227 C 
ATOM     26  O   UNL     1       0.121  -1.034   3.521  0.00  0.00    -0.275 OA
ATOM     27  H   UNL     1       0.216  -3.898   2.377  0.00  0.00    +0.155 HD
BRANCH  24  33
ATOM     28  C   UNL     1      -1.258  -2.666  -2.317  0.00  0.00    +0.044 C 
ATOM     29  C   UNL     1      -0.517  -2.090  -1.138  0.00  0.00    -0.048 A 
ATOM     30  C   UNL     1       0.139  -0.879  -1.259  0.00  0.00    +0.006 A 
ATOM     31  C   UNL     1       0.819  -0.346  -0.179  0.00  0.00    -0.048 A 
ATOM     32  C   UNL     1       0.844  -1.023   1.025  0.00  0.00    +0.026 A 
ATOM     33  C   UNL     1       0.185  -2.239   1.150  0.00  0.00    +0.034 A 
ATOM     34  C   UNL     1      -0.501  -2.769   0.065  0.00  0.00    +0.026 A 
ATOM     35  C   UNL     1       1.534   0.973  -0.316  0.00  0.00    +0.044 C 
ENDBRANCH  24  33
ENDBRANCH  23  25
ENDBRANCH  22  23
ENDBRANCH   1  22
TORSDOF 7
