REMARK  Name = ZINC08747774
REMARK  7 active torsions:
REMARK  status: ('A' for Active; 'I' for Inactive)
REMARK    1  A    between atoms: C_4  and  C_7
REMARK    2  A    between atoms: C_7  and  O_8
REMARK    3  A    between atoms: O_8  and  C_9
REMARK    4  A    between atoms: C_9  and  C_11
REMARK    5  A    between atoms: C_12  and  N_37
REMARK    6  A    between atoms: C_25  and  C_27
REMARK    7  A    between atoms: C_31  and  C_33
REMARK                            x       y       z     vdW  Elec       q    Type
REMARK                         _______ _______ _______ _____ _____    ______ ____
ROOT
ATOM      1  C   UNL     1       0.034  -2.369   2.811  0.00  0.00    +0.105 C 
ATOM      2  C   UNL     1      -0.022  -3.716   2.971  0.00  0.00    +0.195 C 
ATOM      3  O   UNL     1       0.021  -4.282   4.189  0.00  0.00    -0.441 OA
ATOM      4  C   UNL     1       0.497  -3.585   5.238  0.00  0.00    +0.152 A 
ATOM      5  C   UNL     1       0.942  -4.287   6.452  0.00  0.00    +0.060 A 
ATOM      6  C   UNL     1       0.883  -5.679   6.542  0.00  0.00    +0.015 A 
ATOM      7  C   UNL     1       1.307  -6.306   7.693  0.00  0.00    +0.001 A 
ATOM      8  C   UNL     1       1.791  -5.560   8.758  0.00  0.00    +0.004 A 
ATOM      9  C   UNL     1       1.855  -4.184   8.682  0.00  0.00    +0.047 A 
ATOM     10  C   UNL     1       1.432  -3.533   7.530  0.00  0.00    +0.143 A 
ATOM     11  O   UNL     1       1.488  -2.187   7.437  0.00  0.00    -0.422 OA
ATOM     12  C   UNL     1       1.087  -1.540   6.332  0.00  0.00    +0.345 A 
ATOM     13  O   UNL     1       1.160  -0.324   6.299  0.00  0.00    -0.245 OA
ATOM     14  C   UNL     1       0.584  -2.225   5.212  0.00  0.00    +0.092 A 
ATOM     15  C   UNL     1       0.152  -1.452   3.997  0.00  0.00    +0.101 C 
ENDROOT
BRANCH  15  16
ATOM     16  C   UNL     1      -1.185  -0.812   4.268  0.00  0.00    -0.034 A 
ATOM     17  C   UNL     1      -2.283  -1.600   4.561  0.00  0.00    +0.004 A 
ATOM     18  C   UNL     1      -3.509  -1.013   4.810  0.00  0.00    +0.001 A 
ATOM     19  C   UNL     1      -3.638   0.363   4.766  0.00  0.00    +0.012 A 
ATOM     20  C   UNL     1      -2.541   1.151   4.473  0.00  0.00    +0.055 A 
ATOM     21  C   UNL     1      -1.313   0.564   4.229  0.00  0.00    +0.017 A 
BRANCH  20  22
ATOM     22  C   UNL     1      -2.681   2.651   4.426  0.00  0.00    +0.417 C 
ATOM     23  F   UNL     1      -4.005   3.004   4.710  0.00  0.00    -0.166 F 
ATOM     24  F   UNL     1      -1.830   3.229   5.374  0.00  0.00    -0.166 F 
ATOM     25  F   UNL     1      -2.339   3.111   3.150  0.00  0.00    -0.166 F 
ENDBRANCH  20  22
ENDBRANCH  15  16
BRANCH   2  26
ATOM     26  N   UNL     1      -0.126  -4.517   1.865  0.00  0.00    -0.329 N 
ATOM     27  H   UNL     1      -0.066  -4.129   0.978  0.00  0.00    +0.145 HD
ATOM     28  H   UNL     1      -0.259  -5.472   1.969  0.00  0.00    +0.145 HD
ENDBRANCH   2  26
BRANCH   1  29
ATOM     29  C   UNL     1      -0.013  -1.824   1.519  0.00  0.00    +0.341 C 
ATOM     30  O   UNL     1       1.010  -1.440   0.982  0.00  0.00    -0.245 OA
BRANCH  29  31
ATOM     31  O   UNL     1      -1.194  -1.726   0.870  0.00  0.00    -0.456 OA
BRANCH  31  32
ATOM     32  C   UNL     1      -1.168  -1.161  -0.442  0.00  0.00    +0.268 C 
BRANCH  32  36
ATOM     33  C   UNL     1      -5.130  -1.080  -2.037  0.00  0.00    +0.000 A 
ATOM     34  C   UNL     1      -4.654  -0.003  -1.313  0.00  0.00    +0.000 A 
ATOM     35  C   UNL     1      -3.372  -0.029  -0.797  0.00  0.00    +0.007 A 
ATOM     36  C   UNL     1      -2.565  -1.133  -1.005  0.00  0.00    -0.010 A 
ATOM     37  C   UNL     1      -3.039  -2.208  -1.734  0.00  0.00    +0.007 A 
ATOM     38  C   UNL     1      -4.323  -2.184  -2.245  0.00  0.00    +0.000 A 
ENDBRANCH  32  36
ENDBRANCH  31  32
ENDBRANCH  29  31
ENDBRANCH   1  29
TORSDOF 7
