REMARK  Name = ZINC03443111
REMARK  6 active torsions:
REMARK  status: ('A' for Active; 'I' for Inactive)
REMARK    1  A    between atoms: C_10  and  C_11
REMARK    2  A    between atoms: C_11  and  C_12
REMARK    3  A    between atoms: C_15  and  S_18
REMARK    4  A    between atoms: N_16  and  N_17
REMARK    5  A    between atoms: S_18  and  C_19
REMARK    6  A    between atoms: C_19  and  C_20
REMARK                            x       y       z     vdW  Elec       q    Type
REMARK                         _______ _______ _______ _____ _____    ______ ____
ROOT
ATOM      1  C   UNL     1       5.341   0.519   1.367  0.00  0.00    +0.155 A 
ATOM      2  N   UNL     1       4.993   1.596   2.012  0.00  0.00    -0.132 NA
ATOM      3  N   UNL     1       5.491   1.582   3.196  0.00  0.00    -0.121 NA
ATOM      4  C   UNL     1       6.190   0.485   3.374  0.00  0.00    +0.209 A 
ATOM      5  N   UNL     1       6.112  -0.230   2.213  0.00  0.00    -0.228 N 
ENDROOT
BRANCH   5   6
ATOM      6  N   UNL     1       6.686  -1.442   1.951  0.00  0.00    -0.295 N 
ATOM      7  H   UNL     1       7.611  -1.327   1.564  0.00  0.00    +0.163 HD
ATOM      8  H   UNL     1       6.710  -2.017   2.780  0.00  0.00    +0.163 HD
ENDBRANCH   5   6
BRANCH   1   9
ATOM      9  C   UNL     1       4.960   0.161  -0.046  0.00  0.00    +0.113 C 
BRANCH   9  19
ATOM     10  C   UNL     1      -0.016   1.357   0.009  0.00  0.00    +0.001 A 
ATOM     11  C   UNL     1       1.169   2.091   0.002  0.00  0.00    +0.001 A 
ATOM     12  C   UNL     1       2.378   1.468  -0.013  0.00  0.00    +0.009 A 
ATOM     13  C   UNL     1       2.438   0.064  -0.021  0.00  0.00    -0.014 A 
ATOM     14  C   UNL     1       1.233  -0.683  -0.013  0.00  0.00    -0.018 A 
ATOM     15  C   UNL     1       0.002  -0.004   0.002  0.00  0.00    +0.008 A 
ATOM     16  C   UNL     1       1.292  -2.087  -0.021  0.00  0.00    +0.008 A 
ATOM     17  C   UNL     1       2.502  -2.709  -0.036  0.00  0.00    +0.001 A 
ATOM     18  C   UNL     1       3.687  -1.976  -0.043  0.00  0.00    +0.004 A 
ATOM     19  C   UNL     1       3.668  -0.615  -0.037  0.00  0.00    -0.032 A 
ENDBRANCH   9  19
ENDBRANCH   1   9
BRANCH   4  20
ATOM     20  S   UNL     1       7.058   0.021   4.835  0.00  0.00    -0.077 S 
BRANCH  20  21
ATOM     21  C   UNL     1       6.751   1.391   5.983  0.00  0.00    +0.151 C 
BRANCH  21  22
ATOM     22  C   UNL     1       7.447   1.117   7.290  0.00  0.00    +0.121 A 
ATOM     23  N   UNL     1       7.345   2.017   8.302  0.00  0.00    -0.310 N 
ATOM     24  H   UNL     1       6.824   2.825   8.169  0.00  0.00    +0.170 HD
ATOM     25  C   UNL     1       7.951   1.812   9.486  0.00  0.00    +0.260 A 
ATOM     26  O   UNL     1       7.849   2.629  10.385  0.00  0.00    -0.267 OA
ATOM     27  C   UNL     1       8.718   0.615   9.673  0.00  0.00    +0.075 A 
ATOM     28  C   UNL     1       9.456   0.185  10.861  0.00  0.00    -0.023 A 
ATOM     29  C   UNL     1      10.105  -0.995  10.784  0.00  0.00    -0.004 A 
ATOM     30  S   UNL     1       9.775  -1.595   9.149  0.00  0.00    -0.073 S 
ATOM     31  C   UNL     1       8.766  -0.254   8.572  0.00  0.00    +0.116 A 
ATOM     32  N   UNL     1       8.135   0.015   7.433  0.00  0.00    -0.226 NA
ATOM     33  C   UNL     1      10.926  -1.651  11.852  0.00  0.00    +0.043 C 
ATOM     34  C   UNL     1      11.234  -0.608  12.935  0.00  0.00    +0.005 C 
ATOM     35  C   UNL     1       9.936   0.121  13.298  0.00  0.00    +0.005 C 
ATOM     36  C   UNL     1       9.504   1.019  12.138  0.00  0.00    +0.037 C 
ENDBRANCH  21  22
ENDBRANCH  20  21
ENDBRANCH   4  20
TORSDOF 6
