REMARK  Name = ZINC41023838
REMARK  9 active torsions:
REMARK  status: ('A' for Active; 'I' for Inactive)
REMARK    1  A    between atoms: C_1  and  C_2
REMARK    2  A    between atoms: C_2  and  O_3
REMARK    3  A    between atoms: O_3  and  C_4
REMARK    4  A    between atoms: C_4  and  C_6
REMARK    5  A    between atoms: C_10  and  N_11
REMARK    6  A    between atoms: C_12  and  C_14
REMARK    7  A    between atoms: C_15  and  C_31
REMARK    8  A    between atoms: N_21  and  C_24
REMARK    9  A    between atoms: C_24  and  C_25
REMARK                            x       y       z     vdW  Elec       q    Type
REMARK                         _______ _______ _______ _____ _____    ______ ____
ROOT
ATOM      1  N   UNL     1      -0.602  -2.455  -3.925  0.00  0.00    -0.275 N 
ATOM      2  C   UNL     1      -1.117  -2.783  -5.127  0.00  0.00    +0.256 C 
ATOM      3  O   UNL     1      -0.393  -3.227  -5.998  0.00  0.00    -0.269 OA
ATOM      4  H   UNL     1      -1.180  -2.101  -3.231  0.00  0.00    +0.156 HD
ENDROOT
BRANCH   2   5
ATOM      5  C   UNL     1      -2.549  -2.604  -5.385  0.00  0.00    +0.080 A 
ATOM      6  C   UNL     1      -3.250  -2.879  -6.522  0.00  0.00    -0.017 A 
ATOM      7  C   UNL     1      -4.624  -2.635  -6.567  0.00  0.00    +0.076 A 
ATOM      8  C   UNL     1      -5.194  -2.103  -5.388  0.00  0.00    +0.116 A 
ATOM      9  S   UNL     1      -3.808  -1.978  -4.286  0.00  0.00    -0.064 S 
ATOM     10  N   UNL     1      -6.489  -1.826  -5.299  0.00  0.00    -0.230 NA
ATOM     11  C   UNL     1      -7.303  -2.031  -6.299  0.00  0.00    +0.203 A 
ATOM     12  N   UNL     1      -6.872  -2.538  -7.481  0.00  0.00    -0.294 N 
ATOM     13  C   UNL     1      -5.578  -2.854  -7.679  0.00  0.00    +0.263 A 
ATOM     14  O   UNL     1      -5.201  -3.308  -8.745  0.00  0.00    -0.267 OA
ATOM     15  C   UNL     1      -2.543  -3.445  -7.727  0.00  0.00    +0.046 C 
BRANCH  12  16
ATOM     16  C   UNL     1      -7.835  -2.745  -8.566  0.00  0.00    +0.161 C 
BRANCH  16  17
ATOM     17  C   UNL     1      -7.916  -1.500  -9.410  0.00  0.00    -0.025 A 
ATOM     18  C   UNL     1      -8.823  -0.495  -9.109  0.00  0.00    +0.025 A 
ATOM     19  C   UNL     1      -8.869   0.632  -9.907  0.00  0.00    +0.111 A 
ATOM     20  N   UNL     1      -8.063   0.759 -10.943  0.00  0.00    -0.263 NA
ATOM     21  C   UNL     1      -7.189  -0.176 -11.259  0.00  0.00    +0.111 A 
ATOM     22  C   UNL     1      -7.081  -1.329 -10.504  0.00  0.00    +0.025 A 
ENDBRANCH  16  17
ENDBRANCH  12  16
ENDBRANCH   2   5
BRANCH   1  27
ATOM     23  C   UNL     1       1.449  -2.344  -2.516  0.00  0.00    +0.091 A 
ATOM     24  C   UNL     1       2.875  -2.619  -2.515  0.00  0.00    -0.021 A 
ATOM     25  C   UNL     1       3.342  -3.118  -3.680  0.00  0.00    -0.004 A 
ATOM     26  S   UNL     1       1.922  -3.213  -4.730  0.00  0.00    -0.077 S 
ATOM     27  C   UNL     1       0.750  -2.624  -3.682  0.00  0.00    +0.087 A 
ATOM     28  C   UNL     1       4.756  -3.499  -3.993  0.00  0.00    +0.043 C 
ATOM     29  C   UNL     1       5.669  -2.888  -2.920  0.00  0.00    +0.005 C 
ATOM     30  C   UNL     1       5.082  -3.191  -1.538  0.00  0.00    +0.005 C 
ATOM     31  C   UNL     1       3.799  -2.382  -1.329  0.00  0.00    +0.037 C 
BRANCH  23  32
ATOM     32  C   UNL     1       0.776  -1.800  -1.335  0.00  0.00    +0.342 C 
ATOM     33  O   UNL     1       0.312  -2.552  -0.499  0.00  0.00    -0.245 OA
BRANCH  32  34
ATOM     34  O   UNL     1       0.671  -0.465  -1.174  0.00  0.00    -0.461 OA
BRANCH  34  36
ATOM     35  C   UNL     1      -0.019   1.526   0.010  0.00  0.00    +0.048 C 
ATOM     36  C   UNL     1       0.002  -0.004   0.002  0.00  0.00    +0.229 C 
ENDBRANCH  34  36
ENDBRANCH  32  34
ENDBRANCH  23  32
ENDBRANCH   1  27
TORSDOF 7
