REMARK  Name = ZINC31808966
REMARK  2 active torsions:
REMARK  status: ('A' for Active; 'I' for Inactive)
REMARK    1  A    between atoms: C_1  and  C_2
REMARK    2  A    between atoms: C_19  and  C_21
REMARK                            x       y       z     vdW  Elec       q    Type
REMARK                         _______ _______ _______ _____ _____    ______ ____
ROOT
ATOM      1  C   UNL     1      -0.018   1.503   0.010  0.00  0.00    +0.068 C 
ATOM      2  C   UNL     1       0.002  -0.004   0.002  0.00  0.00    +0.066 A 
ATOM      3  C   UNL     1       0.008  -0.811  -1.128  0.00  0.00    +0.027 A 
ATOM      4  C   UNL     1       0.026  -2.115  -0.711  0.00  0.00    +0.124 A 
ATOM      5  N   UNL     1       0.035  -2.116   0.635  0.00  0.00    -0.263 N 
ATOM      6  H   UNL     1       0.050  -2.899   1.207  0.00  0.00    +0.190 HD
ATOM      7  N   UNL     1       0.023  -0.778   1.061  0.00  0.00    -0.177 NA
ATOM      8  N   UNL     1       0.028  -3.175  -1.616  0.00  0.00    -0.286 N 
ATOM      9  C   UNL     1      -0.274  -2.903  -2.933  0.00  0.00    +0.115 A 
ATOM     10  C   UNL     1      -0.306  -1.633  -3.425  0.00  0.00    +0.067 A 
ATOM     11  C   UNL     1      -0.633  -1.440  -4.781  0.00  0.00    +0.260 A 
ATOM     12  O   UNL     1      -0.670  -0.313  -5.246  0.00  0.00    -0.267 OA
ATOM     13  N   UNL     1      -0.904  -2.501  -5.564  0.00  0.00    -0.275 N 
ATOM     14  H   UNL     1      -1.131  -2.365  -6.497  0.00  0.00    +0.173 HD
ATOM     15  C   UNL     1      -0.861  -3.748  -5.061  0.00  0.00    +0.328 A 
ATOM     16  O   UNL     1      -1.105  -4.695  -5.784  0.00  0.00    -0.247 OA
ATOM     17  N   UNL     1      -0.553  -3.961  -3.770  0.00  0.00    -0.295 N 
ATOM     18  H   UNL     1      -0.526  -4.867  -3.425  0.00  0.00    +0.172 HD
ATOM     19  C   UNL     1      -0.001  -0.422  -2.580  0.00  0.00    +0.093 C 
ATOM     20  H   UNL     1       0.237  -4.077  -1.328  0.00  0.00    +0.155 HD
ENDROOT
BRANCH  19  21
ATOM     21  C   UNL     1       1.349   0.129  -2.961  0.00  0.00    -0.035 A 
ATOM     22  C   UNL     1       2.477  -0.661  -2.839  0.00  0.00    +0.005 A 
ATOM     23  C   UNL     1       3.716  -0.157  -3.188  0.00  0.00    +0.015 A 
ATOM     24  C   UNL     1       3.827   1.138  -3.660  0.00  0.00    +0.018 A 
ATOM     25  C   UNL     1       2.698   1.929  -3.783  0.00  0.00    +0.015 A 
ATOM     26  C   UNL     1       1.459   1.422  -3.438  0.00  0.00    +0.005 A 
ATOM     27 BR   UNL     1       5.521   1.829  -4.138  0.00  0.00    -0.050 Br
ENDBRANCH  19  21
TORSDOF 1
