REMARK  Name = ZINC39595997
REMARK  8 active torsions:
REMARK  status: ('A' for Active; 'I' for Inactive)
REMARK    1  A    between atoms: C_1  and  C_2
REMARK    2  A    between atoms: C_2  and  C_4
REMARK    3  A    between atoms: C_2  and  O_28
REMARK    4  A    between atoms: C_4  and  N_5
REMARK    5  A    between atoms: C_6  and  C_8
REMARK    6  A    between atoms: C_19  and  C_21
REMARK    7  A    between atoms: C_21  and  C_27
REMARK    8  A    between atoms: O_28  and  C_29
REMARK                            x       y       z     vdW  Elec       q    Type
REMARK                         _______ _______ _______ _____ _____    ______ ____
ROOT
ATOM      1  C   UNL     1       2.361  -4.449   1.324  0.00  0.00    +0.100 C 
ATOM      2  C   UNL     1       3.409  -4.787   0.240  0.00  0.00    +0.121 C 
ATOM      3  N   UNL     1       4.635  -5.130   1.000  0.00  0.00    -0.300 N 
ATOM      4  C   UNL     1       4.142  -5.903   2.165  0.00  0.00    +0.115 C 
ATOM      5  C   UNL     1       2.843  -5.186   2.584  0.00  0.00    -0.004 C 
ATOM      6  C   UNL     1       1.799  -6.205   3.033  0.00  0.00    -0.010 C 
ATOM      7  C   UNL     1       2.276  -6.883   4.320  0.00  0.00    -0.082 C 
ATOM      8  N   UNL     1       2.480  -5.870   5.363  0.00  0.00    +0.379 N 
ATOM      9  C   UNL     1       3.551  -4.950   4.963  0.00  0.00    -0.082 C 
ATOM     10  C   UNL     1       3.129  -4.189   3.703  0.00  0.00    -0.010 C 
ATOM     11  C   UNL     1       5.909  -4.812   0.699  0.00  0.00    +0.222 C 
ATOM     12  O   UNL     1       6.148  -4.101  -0.255  0.00  0.00    -0.275 OA
ATOM     13  H   UNL     1       1.625  -5.352   5.498  0.00  0.00    -0.086 HD
ATOM     14  H   UNL     1       2.735  -6.325   6.227  0.00  0.00    -0.086 HD
ENDROOT
BRANCH  11  15
ATOM     15  C   UNL     1       7.038  -5.339   1.546  0.00  0.00    +0.044 C 
ATOM     16  C   UNL     1       6.978  -4.696   2.933  0.00  0.00    +0.016 C 
ATOM     17  C   UNL     1       7.109  -3.178   2.797  0.00  0.00    +0.001 C 
ATOM     18  C   UNL     1       8.446  -2.838   2.134  0.00  0.00    +0.000 C 
ATOM     19  C   UNL     1       8.506  -3.482   0.747  0.00  0.00    +0.001 C 
ATOM     20  C   UNL     1       8.375  -5.000   0.884  0.00  0.00    +0.016 C 
ATOM     21  C   UNL     1       6.907  -6.857   1.682  0.00  0.00    +0.021 C 
ENDBRANCH  11  15
BRANCH   1  23
ATOM     22  N   UNL     1       1.231  -2.402   2.132  0.00  0.00    -0.312 N 
ATOM     23  C   UNL     1       2.320  -2.963   1.569  0.00  0.00    +0.218 C 
ATOM     24  O   UNL     1       3.266  -2.271   1.259  0.00  0.00    -0.275 OA
ATOM     25  H   UNL     1       0.474  -2.956   2.380  0.00  0.00    +0.149 HD
BRANCH  22  26
ATOM     26  C   UNL     1       1.191  -0.958   2.371  0.00  0.00    +0.148 C 
BRANCH  26  28
ATOM     27  C   UNL     1      -0.239   0.938   3.150  0.00  0.00    +0.053 C 
ATOM     28  C   UNL     1      -0.145  -0.584   3.015  0.00  0.00    +0.187 C 
BRANCH  28  29
ATOM     29  O   UNL     1      -0.235  -1.183   4.309  0.00  0.00    -0.488 OA
BRANCH  29  30
ATOM     30  C   UNL     1      -1.482  -1.389   4.809  0.00  0.00    +0.121 A 
ATOM     31  C   UNL     1      -2.596  -1.111   4.032  0.00  0.00    +0.048 A 
ATOM     32  C   UNL     1      -3.863  -1.320   4.541  0.00  0.00    +0.042 A 
ATOM     33  C   UNL     1      -4.021  -1.807   5.828  0.00  0.00    +0.124 A 
ATOM     34  C   UNL     1      -2.909  -2.084   6.605  0.00  0.00    +0.042 A 
ATOM     35  C   UNL     1      -1.641  -1.882   6.096  0.00  0.00    +0.048 A 
ATOM     36  F   UNL     1      -5.260  -2.011   6.325  0.00  0.00    -0.205 F 
ENDBRANCH  29  30
ENDBRANCH  28  29
ENDBRANCH  26  28
ENDBRANCH  22  26
ENDBRANCH   1  23
TORSDOF 6
