REMARK  Name = ZINC35815601
REMARK  11 active torsions:
REMARK  status: ('A' for Active; 'I' for Inactive)
REMARK    1  A    between atoms: C_4  and  C_7
REMARK    2  A    between atoms: C_7  and  C_8
REMARK    3  A    between atoms: C_7  and  C_31
REMARK    4  A    between atoms: C_8  and  C_9
REMARK    5  A    between atoms: C_9  and  N_10
REMARK    6  A    between atoms: N_10  and  C_11
REMARK    7  A    between atoms: N_10  and  C_19
REMARK    8  A    between atoms: C_11  and  C_12
REMARK    9  A    between atoms: C_19  and  C_20
REMARK   10  A    between atoms: C_22  and  C_25
REMARK   11  A    between atoms: N_27  and  C_28
REMARK                            x       y       z     vdW  Elec       q    Type
REMARK                         _______ _______ _______ _____ _____    ______ ____
ROOT
ATOM      1  N   UNL     1       5.364  -3.045   2.508  0.00  0.00    +0.386 N 
ATOM      2  H   UNL     1       4.551  -3.641   2.506  0.00  0.00    -0.081 HD
ENDROOT
BRANCH   1   3
ATOM      3  C   UNL     1       5.328  -2.163   1.334  0.00  0.00    -0.077 C 
BRANCH   3   4
ATOM      4  C   UNL     1       3.997  -1.408   1.304  0.00  0.00    -0.006 C 
BRANCH   4   5
ATOM      5  C   UNL     1       3.908  -0.584   0.018  0.00  0.00    +0.047 C 
BRANCH   5   9
ATOM      6  C   UNL     1       0.357   1.789   0.091  0.00  0.00    +0.000 A 
ATOM      7  C   UNL     1       1.517   2.299  -0.461  0.00  0.00    +0.000 A 
ATOM      8  C   UNL     1       2.666   1.531  -0.485  0.00  0.00    +0.004 A 
ATOM      9  C   UNL     1       2.655   0.254   0.044  0.00  0.00    -0.040 A 
ATOM     10  C   UNL     1       1.495  -0.255   0.598  0.00  0.00    +0.004 A 
ATOM     11  C   UNL     1       0.346   0.512   0.620  0.00  0.00    +0.000 A 
ENDBRANCH   5   9
BRANCH   5  12
ATOM     12  C   UNL     1       3.869  -1.509  -1.171  0.00  0.00    -0.040 A 
ATOM     13  C   UNL     1       2.796  -2.363  -1.346  0.00  0.00    +0.004 A 
ATOM     14  C   UNL     1       2.760  -3.212  -2.437  0.00  0.00    +0.000 A 
ATOM     15  C   UNL     1       3.796  -3.206  -3.352  0.00  0.00    +0.000 A 
ATOM     16  C   UNL     1       4.868  -2.351  -3.177  0.00  0.00    +0.000 A 
ATOM     17  C   UNL     1       4.902  -1.499  -2.089  0.00  0.00    +0.004 A 
ENDBRANCH   5  12
ENDBRANCH   4   5
ENDBRANCH   3   4
ENDBRANCH   1   3
BRANCH   1  18
ATOM     18  C   UNL     1       5.372  -2.231   3.731  0.00  0.00    -0.042 C 
BRANCH  18  19
ATOM     19  C   UNL     1       6.497  -1.231   3.663  0.00  0.00    -0.064 A 
ATOM     20  C   UNL     1       7.770  -1.594   4.062  0.00  0.00    +0.003 A 
ATOM     21  C   UNL     1       8.802  -0.678   4.000  0.00  0.00    +0.020 A 
ATOM     22  C   UNL     1       8.562   0.604   3.537  0.00  0.00    +0.041 A 
ATOM     23  C   UNL     1       7.288   0.967   3.137  0.00  0.00    +0.020 A 
ATOM     24  C   UNL     1       6.258   0.048   3.195  0.00  0.00    +0.003 A 
ATOM     25 CL   UNL     1       9.858   1.756   3.458  0.00  0.00    -0.084 Cl
ENDBRANCH  18  19
ENDBRANCH   1  18
BRANCH   1  26
ATOM     26  C   UNL     1       6.578  -3.871   2.463  0.00  0.00    -0.014 C 
BRANCH  26  27
ATOM     27  C   UNL     1       6.532  -4.892   3.571  0.00  0.00    +0.063 A 
ATOM     28  N   UNL     1       6.109  -6.125   3.512  0.00  0.00    -0.241 NA
ATOM     29  C   UNL     1       6.157  -6.867   4.623  0.00  0.00    +0.133 A 
ATOM     30  C   UNL     1       6.656  -6.248   5.738  0.00  0.00    +0.079 A 
ATOM     31  S   UNL     1       7.021  -4.711   5.166  0.00  0.00    -0.082 S 
BRANCH  29  32
ATOM     32  C   UNL     1       5.700  -8.266   4.647  0.00  0.00    +0.263 C 
ATOM     33  O   UNL     1       5.760  -8.908   5.678  0.00  0.00    -0.269 OA
ATOM     34  N   UNL     1       5.215  -8.836   3.526  0.00  0.00    -0.307 N 
ATOM     35  H   UNL     1       5.167  -8.324   2.703  0.00  0.00    +0.149 HD
BRANCH  34  36
ATOM     36  C   UNL     1       4.760 -10.228   3.550  0.00  0.00    +0.073 C 
ATOM     37  C   UNL     1       5.171 -11.126   2.380  0.00  0.00    +0.024 C 
ATOM     38  C   UNL     1       3.722 -10.650   2.508  0.00  0.00    +0.024 C 
ENDBRANCH  34  36
ENDBRANCH  29  32
ENDBRANCH  26  27
ENDBRANCH   1  26
TORSDOF 11
