REMARK  Name = ZINC09058954
REMARK  7 active torsions:
REMARK  status: ('A' for Active; 'I' for Inactive)
REMARK    1  A    between atoms: C_1  and  C_2
REMARK    2  A    between atoms: C_12  and  C_20
REMARK    3  A    between atoms: N_22  and  C_23
REMARK    4  A    between atoms: C_25  and  O_31
REMARK    5  A    between atoms: C_28  and  O_29
REMARK    6  A    between atoms: O_29  and  C_30
REMARK    7  A    between atoms: O_31  and  C_32
REMARK                            x       y       z     vdW  Elec       q    Type
REMARK                         _______ _______ _______ _____ _____    ______ ____
ROOT
ATOM      1  C   UNL     1       2.804   4.407   1.199  0.00  0.00    +0.046 C 
ATOM      2  C   UNL     1       1.459   3.801   0.890  0.00  0.00    -0.028 A 
ATOM      3  C   UNL     1       0.329   4.592   0.900  0.00  0.00    +0.025 A 
ATOM      4  C   UNL     1      -0.910   4.045   0.619  0.00  0.00    +0.042 A 
ATOM      5  C   UNL     1      -1.015   2.696   0.322  0.00  0.00    +0.024 A 
ATOM      6  C   UNL     1       0.110   1.903   0.316  0.00  0.00    -0.026 A 
ATOM      7  C   UNL     1       1.361   2.443   0.598  0.00  0.00    +0.039 A 
ATOM      8  N   UNL     1       2.341   1.451   0.526  0.00  0.00    -0.286 N 
ATOM      9  C   UNL     1       1.826   0.249   0.208  0.00  0.00    +0.212 C 
ATOM     10  O   UNL     1       2.440  -0.789   0.079  0.00  0.00    -0.277 OA
ATOM     11  C   UNL     1       0.341   0.441   0.045  0.00  0.00    +0.052 C 
ATOM     12  C   UNL     1      -0.437  -0.433   1.038  0.00  0.00    +0.076 C 
ATOM     13  C   UNL     1      -1.340  -1.326   0.152  0.00  0.00    -0.003 C 
ATOM     14  C   UNL     1      -0.597  -1.327  -1.206  0.00  0.00    -0.066 C 
ATOM     15  C   UNL     1      -1.252   0.901  -1.712  0.00  0.00    -0.077 C 
ATOM     16  C   UNL     1      -2.280  -0.030  -2.377  0.00  0.00    -0.020 C 
ATOM     17  C   UNL     1      -1.639  -1.434  -2.341  0.00  0.00    -0.017 C 
ATOM     18 CL   UNL     1      -2.328   5.046   0.632  0.00  0.00    -0.084 Cl
ATOM     19  H   UNL     1       3.285   1.610   0.688  0.00  0.00    +0.155 HD
ATOM     20  N   UNL     1      -0.120   0.048  -1.287  0.00  0.00    +0.394 N 
ATOM     21  H   UNL     1       0.650   0.123  -1.962  0.00  0.00    -0.079 HD
ENDROOT
BRANCH  12  22
ATOM     22  C   UNL     1       0.511  -1.282   1.845  0.00  0.00    +0.220 C 
ATOM     23  O   UNL     1       0.759  -2.415   1.493  0.00  0.00    -0.275 OA
ATOM     24  N   UNL     1       1.082  -0.781   2.959  0.00  0.00    -0.282 N 
ATOM     25  H   UNL     1       0.819   0.093   3.288  0.00  0.00    +0.155 HD
BRANCH  24  26
ATOM     26  C   UNL     1       2.055  -1.523   3.641  0.00  0.00    +0.079 A 
ATOM     27  C   UNL     1       2.708  -2.567   3.002  0.00  0.00    +0.072 A 
ATOM     28  C   UNL     1       3.671  -3.299   3.679  0.00  0.00    +0.122 A 
ATOM     29  C   UNL     1       3.980  -2.989   4.995  0.00  0.00    +0.049 A 
ATOM     30  C   UNL     1       3.331  -1.949   5.634  0.00  0.00    +0.051 A 
ATOM     31  C   UNL     1       2.372  -1.211   4.961  0.00  0.00    +0.141 A 
BRANCH  31  32
ATOM     32  O   UNL     1       1.738  -0.185   5.589  0.00  0.00    -0.493 OA
ATOM     33  C   UNL     1       2.113   0.079   6.942  0.00  0.00    +0.277 C 
ENDBRANCH  31  32
BRANCH  28  34
ATOM     34  O   UNL     1       4.311  -4.322   3.053  0.00  0.00    -0.495 OA
ATOM     35  C   UNL     1       5.292  -5.034   3.811  0.00  0.00    +0.277 C 
ENDBRANCH  28  34
ENDBRANCH  24  26
ENDBRANCH  12  22
TORSDOF 4
