REMARK  Name = ZINC32841951
REMARK  10 active torsions:
REMARK  status: ('A' for Active; 'I' for Inactive)
REMARK    1  A    between atoms: C_1  and  C_2
REMARK    2  A    between atoms: C_2  and  C_3
REMARK    3  A    between atoms: C_2  and  C_4
REMARK    4  A    between atoms: C_4  and  C_6
REMARK    5  A    between atoms: C_4  and  N_19
REMARK    6  A    between atoms: N_8  and  N_9
REMARK    7  A    between atoms: C_10  and  C_12
REMARK    8  A    between atoms: N_16  and  C_17
REMARK    9  A    between atoms: N_19  and  S_20
REMARK   10  A    between atoms: S_20  and  C_23
REMARK                            x       y       z     vdW  Elec       q    Type
REMARK                         _______ _______ _______ _____ _____    ______ ____
ROOT
ATOM      1  C   UNL     1       2.435  -3.133  -2.270  0.00  0.00    +0.166 C 
ENDROOT
BRANCH   1   2
ATOM      2  C   UNL     1       2.158  -4.126  -3.370  0.00  0.00    +0.248 C 
ATOM      3  O   UNL     1       1.348  -5.011  -3.198  0.00  0.00    -0.273 OA
ATOM      4  N   UNL     1       2.811  -4.029  -4.545  0.00  0.00    -0.233 N 
ATOM      5  H   UNL     1       3.601  -3.274  -4.674  0.00  0.00    +0.173 HD
BRANCH   4   6
ATOM      6  N   UNL     1       2.485  -4.889  -5.601  0.00  0.00    -0.229 N 
ATOM      7  C   UNL     1       3.138  -4.793  -6.776  0.00  0.00    +0.277 C 
ATOM      8  O   UNL     1       4.067  -4.016  -6.893  0.00  0.00    -0.267 OA
ATOM      9  H   UNL     1       1.695  -5.644  -5.471  0.00  0.00    +0.173 HD
BRANCH   7  10
ATOM     10  C   UNL     1       2.728  -5.623  -7.913  0.00  0.00    +0.107 A 
ATOM     11  C   UNL     1       1.641  -6.470  -7.954  0.00  0.00    +0.047 A 
ATOM     12  C   UNL     1       1.624  -7.057  -9.224  0.00  0.00    +0.036 A 
ATOM     13  C   UNL     1       2.684  -6.576  -9.918  0.00  0.00    +0.101 A 
ATOM     14  N   UNL     1       3.363  -5.704  -9.132  0.00  0.00    -0.345 N 
ATOM     15  C   UNL     1       4.571  -4.969  -9.516  0.00  0.00    +0.149 C 
ATOM     16 BR   UNL     1       0.353  -8.305  -9.857  0.00  0.00    -0.049 Br
ENDBRANCH   7  10
ENDBRANCH   4   6
ENDBRANCH   1   2
BRANCH   1  18
ATOM     17  C   UNL     1       0.203  -2.079  -2.655  0.00  0.00    +0.009 C 
ATOM     18  C   UNL     1       1.709  -1.821  -2.573  0.00  0.00    +0.010 C 
ATOM     19  C   UNL     1       1.993  -0.812  -1.458  0.00  0.00    +0.009 C 
ENDBRANCH   1  18
BRANCH   1  20
ATOM     20  N   UNL     1       1.957  -3.673  -0.994  0.00  0.00    -0.178 NA
ATOM     21  H   UNL     1       0.945  -3.431  -0.639  0.00  0.00    +0.149 HD
BRANCH  20  22
ATOM     22  S   UNL     1       3.012  -4.436   0.029  0.00  0.00    +0.059 S 
ATOM     23  O   UNL     1       3.698  -5.409  -0.747  0.00  0.00    -0.153 OA
ATOM     24  O   UNL     1       2.274  -4.774   1.195  0.00  0.00    -0.153 OA
BRANCH  22  25
ATOM     25  C   UNL     1       4.214  -3.245   0.521  0.00  0.00    +0.105 A 
ATOM     26  C   UNL     1       3.952  -2.396   1.580  0.00  0.00    +0.030 A 
ATOM     27  C   UNL     1       4.895  -1.462   1.967  0.00  0.00    +0.022 A 
ATOM     28  C   UNL     1       6.101  -1.377   1.294  0.00  0.00    +0.041 A 
ATOM     29  C   UNL     1       6.362  -2.227   0.234  0.00  0.00    +0.022 A 
ATOM     30  C   UNL     1       5.418  -3.160  -0.152  0.00  0.00    +0.030 A 
ATOM     31 CL   UNL     1       7.285  -0.204   1.779  0.00  0.00    -0.084 Cl
ENDBRANCH  22  25
ENDBRANCH  20  22
ENDBRANCH   1  20
TORSDOF 7
