REMARK  Name = ZINC07496465
REMARK  7 active torsions:
REMARK  status: ('A' for Active; 'I' for Inactive)
REMARK    1  A    between atoms: C_1  and  C_2
REMARK    2  A    between atoms: C_15  and  C_17
REMARK    3  A    between atoms: C_17  and  N_51
REMARK    4  A    between atoms: C_18  and  N_51
REMARK    5  A    between atoms: C_19  and  C_20
REMARK    6  A    between atoms: C_19  and  N_51
REMARK    7  A    between atoms: C_23  and  C_26
REMARK                            x       y       z     vdW  Elec       q    Type
REMARK                         _______ _______ _______ _____ _____    ______ ____
ROOT
ATOM      1  C   UNL     1       0.927  -6.916  -5.109  0.00  0.00    +0.029 C 
ATOM      2  C   UNL     1       2.189  -6.238  -4.572  0.00  0.00    +0.087 C 
ATOM      3  C   UNL     1       3.358  -7.223  -4.633  0.00  0.00    +0.118 C 
ATOM      4  C   UNL     1       4.490  -6.738  -3.766  0.00  0.00    +0.219 C 
ATOM      5  O   UNL     1       5.474  -6.248  -4.280  0.00  0.00    -0.275 OA
ATOM      6  N   UNL     1       4.418  -6.844  -2.421  0.00  0.00    -0.284 N 
ATOM      7  C   UNL     1       3.255  -7.324  -1.806  0.00  0.00    +0.055 A 
ATOM      8  C   UNL     1       3.318  -8.314  -0.840  0.00  0.00    +0.025 A 
ATOM      9  C   UNL     1       2.158  -8.749  -0.226  0.00  0.00    +0.002 A 
ATOM     10  C   UNL     1       0.937  -8.197  -0.572  0.00  0.00    +0.002 A 
ATOM     11  C   UNL     1       0.866  -7.218  -1.545  0.00  0.00    +0.025 A 
ATOM     12  C   UNL     1       2.027  -6.785  -2.176  0.00  0.00    +0.058 A 
ATOM     13  N   UNL     1       1.964  -5.819  -3.188  0.00  0.00    -0.268 N 
ATOM     14  C   UNL     1       1.708  -4.529  -2.894  0.00  0.00    +0.204 C 
ATOM     15  O   UNL     1       1.661  -3.702  -3.780  0.00  0.00    -0.277 OA
ATOM     16  H   UNL     1       5.178  -6.585  -1.876  0.00  0.00    +0.155 HD
ENDROOT
BRANCH  14  17
ATOM     17  C   UNL     1       1.479  -4.114  -1.463  0.00  0.00    +0.019 C 
BRANCH  17  19
ATOM     18  C   UNL     1      -0.043  -2.333  -2.075  0.00  0.00    -0.095 C 
ATOM     19  N   UNL     1       1.243  -2.655  -1.422  0.00  0.00    +0.386 N 
ATOM     20  H   UNL     1       2.001  -2.180  -1.925  0.00  0.00    -0.081 HD
BRANCH  19  21
ATOM     21  C   UNL     1       1.229  -2.186  -0.021  0.00  0.00    -0.043 C 
BRANCH  21  22
ATOM     22  C   UNL     1       1.208  -0.679  -0.013  0.00  0.00    -0.064 A 
ATOM     23  C   UNL     1       0.002  -0.004   0.002  0.00  0.00    +0.002 A 
ATOM     24  C   UNL     1      -0.017   1.378   0.010  0.00  0.00    +0.012 A 
ATOM     25  C   UNL     1       1.171   2.086   0.002  0.00  0.00    +0.055 A 
ATOM     26  C   UNL     1       2.377   1.411  -0.015  0.00  0.00    +0.012 A 
ATOM     27  C   UNL     1       2.396   0.029  -0.021  0.00  0.00    +0.002 A 
BRANCH  25  28
ATOM     28  C   UNL     1       1.151   3.592   0.010  0.00  0.00    +0.417 C 
ATOM     29  F   UNL     1       1.157   4.052   1.331  0.00  0.00    -0.166 F 
ATOM     30  F   UNL     1       2.280   4.077  -0.658  0.00  0.00    -0.166 F 
ATOM     31  F   UNL     1      -0.004   4.046  -0.636  0.00  0.00    -0.166 F 
ENDBRANCH  25  28
ENDBRANCH  21  22
ENDBRANCH  19  21
ENDBRANCH  17  19
ENDBRANCH  14  17
TORSDOF 5
