REMARK  Name = ZINC36207581
REMARK  15 active torsions:
REMARK  status: ('A' for Active; 'I' for Inactive)
REMARK    1  A    between atoms: C_1  and  C_2
REMARK    2  A    between atoms: C_7  and  O_8
REMARK    3  A    between atoms: O_8  and  C_9
REMARK    4  A    between atoms: C_9  and  C_10
REMARK    5  A    between atoms: C_10  and  C_12
REMARK    6  A    between atoms: C_10  and  O_37
REMARK    7  A    between atoms: C_12  and  N_13
REMARK    8  A    between atoms: N_13  and  C_14
REMARK    9  A    between atoms: N_13  and  C_34
REMARK   10  A    between atoms: C_14  and  C_15
REMARK   11  A    between atoms: C_21  and  C_26
REMARK   12  A    between atoms: C_29  and  C_33
REMARK   13  A    between atoms: C_30  and  C_32
REMARK   14  A    between atoms: C_34  and  C_35
REMARK   15  A    between atoms: C_34  and  C_36
REMARK                            x       y       z     vdW  Elec       q    Type
REMARK                         _______ _______ _______ _____ _____    ______ ____
ROOT
ATOM      1  C   UNL     1      -0.043  -0.249   8.630  0.00  0.00    -0.003 C 
ENDROOT
BRANCH   1   2
ATOM      2  C   UNL     1      -0.011   0.902   9.602  0.00  0.00    +0.094 A 
ATOM      3  N   UNL     1       0.211   0.658  10.919  0.00  0.00    -0.312 N 
ATOM      4  H   UNL     1       0.347  -0.256  11.217  0.00  0.00    +0.170 HD
ATOM      5  C   UNL     1       0.248   1.657  11.819  0.00  0.00    +0.260 A 
ATOM      6  O   UNL     1       0.450   1.421  12.998  0.00  0.00    -0.267 OA
ATOM      7  C   UNL     1       0.047   3.002  11.372  0.00  0.00    +0.080 A 
ATOM      8  C   UNL     1       0.041   4.240  12.142  0.00  0.00    +0.004 A 
ATOM      9  C   UNL     1      -0.173   5.410  11.493  0.00  0.00    +0.056 A 
ATOM     10  S   UNL     1      -0.379   4.909   9.795  0.00  0.00    -0.076 S 
ATOM     11  C   UNL     1      -0.176   3.157   9.994  0.00  0.00    +0.116 A 
ATOM     12  N   UNL     1      -0.192   2.118   9.163  0.00  0.00    -0.229 NA
BRANCH   8  13
ATOM     13  C   UNL     1       0.264   4.219  13.607  0.00  0.00    -0.016 A 
ATOM     14  C   UNL     1      -0.464   3.343  14.413  0.00  0.00    +0.009 A 
ATOM     15  C   UNL     1      -0.252   3.328  15.776  0.00  0.00    +0.004 A 
ATOM     16  C   UNL     1       0.680   4.178  16.344  0.00  0.00    -0.048 A 
ATOM     17  C   UNL     1       1.404   5.048  15.550  0.00  0.00    -0.047 A 
ATOM     18  C   UNL     1       1.205   5.069  14.184  0.00  0.00    +0.012 A 
ATOM     19  C   UNL     1       2.418   5.972  16.176  0.00  0.00    +0.044 C 
ATOM     20  C   UNL     1       0.906   4.156  17.834  0.00  0.00    +0.044 C 
ENDBRANCH   8  13
ENDBRANCH   1   2
BRANCH   1  21
ATOM     21  N   UNL     1      -0.468   0.236   7.311  0.00  0.00    +0.388 N 
ATOM     22  H   UNL     1      -0.132   1.178   7.174  0.00  0.00    -0.081 HD
BRANCH  21  23
ATOM     23  C   UNL     1      -1.934   0.222   7.233  0.00  0.00    -0.074 C 
ATOM     24  C   UNL     1      -2.439  -1.216   7.364  0.00  0.00    -0.014 C 
ATOM     25  C   UNL     1      -2.513   1.072   8.366  0.00  0.00    -0.014 C 
ENDBRANCH  21  23
BRANCH  21  26
ATOM     26  C   UNL     1       0.086  -0.637   6.267  0.00  0.00    -0.043 C 
BRANCH  26  27
ATOM     27  C   UNL     1      -0.268  -0.072   4.889  0.00  0.00    +0.135 C 
BRANCH  27  28
ATOM     28  O   UNL     1       0.294   1.234   4.750  0.00  0.00    -0.390 OA
ATOM     29  H   UNL     1       1.258   1.258   4.829  0.00  0.00    +0.210 HD
ENDBRANCH  27  28
BRANCH  27  30
ATOM     30  C   UNL     1       0.297  -0.989   3.802  0.00  0.00    +0.258 C 
BRANCH  30  31
ATOM     31  O   UNL     1      -0.132  -0.527   2.519  0.00  0.00    -0.489 OA
BRANCH  31  38
ATOM     32  C   UNL     1      -0.970   0.369  -0.025  0.00  0.00    +0.047 C 
ATOM     33  C   UNL     1      -0.094  -0.843   0.162  0.00  0.00    -0.009 A 
ATOM     34  C   UNL     1       0.337  -1.561  -0.937  0.00  0.00    +0.007 A 
ATOM     35  C   UNL     1       1.140  -2.673  -0.766  0.00  0.00    +0.000 A 
ATOM     36  C   UNL     1       1.515  -3.070   0.505  0.00  0.00    +0.004 A 
ATOM     37  C   UNL     1       1.087  -2.355   1.607  0.00  0.00    +0.046 A 
ATOM     38  C   UNL     1       0.285  -1.235   1.437  0.00  0.00    +0.124 A 
ENDBRANCH  31  38
ENDBRANCH  30  31
ENDBRANCH  27  30
ENDBRANCH  26  27
ENDBRANCH  21  26
ENDBRANCH   1  21
TORSDOF 10
