REMARK  Name = ZINC63805692
REMARK  3 active torsions:
REMARK  status: ('A' for Active; 'I' for Inactive)
REMARK    1  A    between atoms: C_4  and  C_7
REMARK    2  A    between atoms: C_9  and  C_13
REMARK    3  A    between atoms: C_20  and  C_22
REMARK                            x       y       z     vdW  Elec       q    Type
REMARK                         _______ _______ _______ _____ _____    ______ ____
ROOT
ATOM      1  C   UNL     1       5.782  -3.012   1.181  0.00  0.00    +0.230 C 
ATOM      2  N   UNL     1       5.183  -4.354   1.200  0.00  0.00    -0.242 N 
ATOM      3  N   UNL     1       6.253  -5.257   1.172  0.00  0.00    -0.161 NA
ATOM      4  C   UNL     1       7.380  -4.640   1.140  0.00  0.00    +0.201 C 
ATOM      5  N   UNL     1       7.246  -3.255   1.143  0.00  0.00    -0.175 N 
ATOM      6  N   UNL     1       8.427  -2.520   1.111  0.00  0.00    -0.168 NA
ATOM      7  C   UNL     1       9.590  -3.105   1.081  0.00  0.00    +0.130 C 
ATOM      8  S   UNL     1       9.150  -4.842   1.092  0.00  0.00    -0.029 S 
ATOM      9  H   UNL     1       4.238  -4.571   1.227  0.00  0.00    +0.170 HD
ENDROOT
BRANCH   7  10
ATOM     10  C   UNL     1      10.935  -2.489   1.045  0.00  0.00    +0.009 A 
ATOM     11  C   UNL     1      11.070  -1.100   1.046  0.00  0.00    +0.012 A 
ATOM     12  C   UNL     1      12.326  -0.532   1.012  0.00  0.00    +0.016 A 
ATOM     13  C   UNL     1      13.452  -1.337   0.977  0.00  0.00    +0.018 A 
ATOM     14  C   UNL     1      13.325  -2.716   0.975  0.00  0.00    +0.016 A 
ATOM     15  C   UNL     1      12.074  -3.295   1.016  0.00  0.00    +0.012 A 
ATOM     16 BR   UNL     1      15.171  -0.550   0.930  0.00  0.00    -0.050 Br
ENDBRANCH   7  10
BRANCH   1  19
ATOM     17  C   UNL     1       3.699  -0.689  -0.037  0.00  0.00    +0.091 C 
ATOM     18  C   UNL     1       3.832  -2.029  -0.051  0.00  0.00    +0.035 C 
ATOM     19  C   UNL     1       5.335  -2.245  -0.065  0.00  0.00    +0.194 C 
ATOM     20  N   UNL     1       5.871  -0.874  -0.056  0.00  0.00    -0.176 NA
ATOM     21  N   UNL     1       4.919  -0.090  -0.047  0.00  0.00    -0.154 NA
BRANCH  17  25
ATOM     22  C   UNL     1      -0.017   1.379   0.010  0.00  0.00    +0.000 A 
ATOM     23  C   UNL     1       1.169   2.092   0.002  0.00  0.00    +0.001 A 
ATOM     24  C   UNL     1       2.377   1.426  -0.013  0.00  0.00    +0.010 A 
ATOM     25  C   UNL     1       2.402   0.033  -0.021  0.00  0.00    +0.002 A 
ATOM     26  C   UNL     1       1.205  -0.680  -0.013  0.00  0.00    +0.010 A 
ATOM     27  C   UNL     1       0.002  -0.004   0.002  0.00  0.00    +0.001 A 
ENDBRANCH  17  25
ENDBRANCH   1  19
TORSDOF 3
