REMARK  Name = ZINC63738192
REMARK  10 active torsions:
REMARK  status: ('A' for Active; 'I' for Inactive)
REMARK    1  A    between atoms: C_1  and  C_2
REMARK    2  A    between atoms: C_2  and  C_3
REMARK    3  A    between atoms: N_9  and  C_10
REMARK    4  A    between atoms: C_10  and  C_11
REMARK    5  A    between atoms: C_11  and  C_12
REMARK    6  A    between atoms: C_12  and  N_13
REMARK    7  A    between atoms: C_14  and  C_16
REMARK    8  A    between atoms: C_16  and  C_18
REMARK    9  A    between atoms: C_16  and  C_19
REMARK   10  A    between atoms: C_25  and  C_27
REMARK                            x       y       z     vdW  Elec       q    Type
REMARK                         _______ _______ _______ _____ _____    ______ ____
ROOT
ATOM      1  C   UNL     1       6.413   5.899  -0.170  0.00  0.00    +0.075 C 
ATOM      2  C   UNL     1       6.956   5.227  -1.432  0.00  0.00    +0.017 C 
ENDROOT
BRANCH   1   3
ATOM      3  C   UNL     1       6.380   7.415  -0.374  0.00  0.00    +0.004 C 
ATOM      4  C   UNL     1       5.835   8.088   0.887  0.00  0.00    +0.023 C 
ATOM      5  C   UNL     1       5.771   9.603   0.667  0.00  0.00    +0.108 C 
ATOM      6  N   UNL     1       7.099  10.077   0.256  0.00  0.00    -0.300 N 
ATOM      7  C   UNL     1       7.755   9.436  -0.892  0.00  0.00    +0.108 C 
ATOM      8  C   UNL     1       7.796   7.923  -0.654  0.00  0.00    +0.023 C 
ATOM      9  C   UNL     1       7.705  11.082   0.919  0.00  0.00    +0.242 C 
ATOM     10  O   UNL     1       7.153  11.604   1.865  0.00  0.00    -0.273 OA
BRANCH   9  11
ATOM     11  C   UNL     1       9.068  11.558   0.486  0.00  0.00    +0.190 C 
ATOM     12  C   UNL     1      10.078  10.441   0.627  0.00  0.00    +0.016 C 
ATOM     13  C   UNL     1      11.004  10.883   1.509  0.00  0.00    -0.004 A 
ATOM     14  C   UNL     1      12.222  10.277   2.059  0.00  0.00    +0.010 A 
ATOM     15  C   UNL     1      12.963  10.981   2.945  0.00  0.00    +0.001 A 
ATOM     16  C   UNL     1      12.597  12.272   3.350  0.00  0.00    +0.002 A 
ATOM     17  C   UNL     1      11.492  12.895   2.889  0.00  0.00    +0.026 A 
ATOM     18  C   UNL     1      10.639  12.248   1.952  0.00  0.00    +0.043 A 
ATOM     19  N   UNL     1       9.531  12.636   1.367  0.00  0.00    -0.370 N 
ATOM     20  H   UNL     1       9.091  13.491   1.494  0.00  0.00    +0.161 HD
ENDBRANCH   9  11
ENDBRANCH   1   3
BRANCH   1  22
ATOM     21  N   UNL     1       4.803   4.086   0.318  0.00  0.00    -0.315 N 
ATOM     22  C   UNL     1       5.018   5.399   0.105  0.00  0.00    +0.216 C 
ATOM     23  O   UNL     1       4.089   6.179   0.135  0.00  0.00    -0.276 OA
ATOM     24  H   UNL     1       5.546   3.463   0.294  0.00  0.00    +0.149 HD
BRANCH  21  25
ATOM     25  C   UNL     1       3.447   3.600   0.585  0.00  0.00    +0.102 C 
BRANCH  25  26
ATOM     26  C   UNL     1       3.480   2.084   0.789  0.00  0.00    +0.000 C 
BRANCH  26  27
ATOM     27  C   UNL     1       2.064   1.576   1.068  0.00  0.00    -0.077 C 
BRANCH  27  33
ATOM     28  C   UNL     1       0.724  -0.382   1.409  0.00  0.00    -0.069 C 
ATOM     29  C   UNL     1       0.747  -1.907   1.532  0.00  0.00    -0.015 C 
ATOM     30  C   UNL     1       1.569  -2.303   2.761  0.00  0.00    -0.003 C 
ATOM     31  C   UNL     1       2.975  -1.710   2.635  0.00  0.00    -0.019 C 
ATOM     32  C   UNL     1       2.870  -0.192   2.471  0.00  0.00    -0.078 C 
ATOM     33  N   UNL     1       2.095   0.120   1.264  0.00  0.00    +0.382 N 
ATOM     34  H   UNL     1       2.530  -0.315   0.464  0.00  0.00    -0.081 HD
BRANCH  28  36
ATOM     35  C   UNL     1      -1.541  -0.456   0.358  0.00  0.00    +0.002 C 
ATOM     36  C   UNL     1      -0.097   0.018   0.181  0.00  0.00    -0.019 C 
ENDBRANCH  28  36
ENDBRANCH  27  33
ENDBRANCH  26  27
ENDBRANCH  25  26
ENDBRANCH  21  25
ENDBRANCH   1  22
TORSDOF 8
