REMARK  Name = ZINC39440991
REMARK  6 active torsions:
REMARK  status: ('A' for Active; 'I' for Inactive)
REMARK    1  A    between atoms: C_1  and  C_2
REMARK    2  A    between atoms: C_2  and  N_3
REMARK    3  A    between atoms: C_11  and  S_12
REMARK    4  A    between atoms: S_12  and  C_13
REMARK    5  A    between atoms: C_13  and  C_15
REMARK    6  A    between atoms: C_13  and  C_16
REMARK                            x       y       z     vdW  Elec       q    Type
REMARK                         _______ _______ _______ _____ _____    ______ ____
ROOT
ATOM      1  C   UNL     1       4.770  -1.170  -0.481  0.00  0.00    +0.137 C 
ATOM      2  C   UNL     1       4.763  -2.646  -0.885  0.00  0.00    +0.029 C 
ENDROOT
BRANCH   1   3
ATOM      3  C   UNL     1       6.018  -0.872   0.309  0.00  0.00    +0.230 C 
ATOM      4  O   UNL     1       5.990  -0.904   1.521  0.00  0.00    -0.274 OA
ATOM      5  N   UNL     1       7.165  -0.569  -0.331  0.00  0.00    -0.285 N 
ATOM      6  C   UNL     1       7.792   0.559  -0.061  0.00  0.00    +0.036 C 
ATOM      7  C   UNL     1       7.181   1.542   0.842  0.00  0.00    +0.025 C 
ATOM      8  C   UNL     1       7.816   2.696   1.123  0.00  0.00    +0.032 C 
ATOM      9  C   UNL     1       9.125   2.979   0.526  0.00  0.00    +0.095 C 
ATOM     10  N   UNL     1       9.972   3.988   0.602  0.00  0.00    -0.190 NA
ATOM     11  C   UNL     1      11.044   3.725  -0.164  0.00  0.00    +0.369 C 
ATOM     12  O   UNL     1      12.101   4.559  -0.307  0.00  0.00    -0.243 OA
ATOM     13  N   UNL     1      10.937   2.558  -0.756  0.00  0.00    -0.190 NA
ATOM     14  C   UNL     1       9.750   1.999  -0.383  0.00  0.00    +0.097 C 
ATOM     15  C   UNL     1       9.115   0.833  -0.664  0.00  0.00    +0.053 C 
ATOM     16  H   UNL     1       7.529  -1.181  -0.989  0.00  0.00    +0.155 HD
ENDBRANCH   1   3
BRANCH   1  17
ATOM     17  S   UNL     1       3.311  -0.815   0.535  0.00  0.00    -0.075 S 
BRANCH  17  26
ATOM     18  N   UNL     1       0.638  -0.913  -0.231  0.00  0.00    -0.319 N 
ATOM     19  C   UNL     1      -0.105  -1.197  -1.365  0.00  0.00    +0.069 A 
ATOM     20  C   UNL     1      -1.463  -1.208  -1.646  0.00  0.00    +0.028 A 
ATOM     21  C   UNL     1      -1.899  -1.545  -2.911  0.00  0.00    +0.002 A 
ATOM     22  C   UNL     1      -0.989  -1.873  -3.905  0.00  0.00    +0.002 A 
ATOM     23  C   UNL     1       0.363  -1.867  -3.643  0.00  0.00    +0.030 A 
ATOM     24  C   UNL     1       0.821  -1.528  -2.368  0.00  0.00    +0.090 A 
ATOM     25  N   UNL     1       2.059  -1.433  -1.816  0.00  0.00    -0.222 NA
ATOM     26  C   UNL     1       1.955  -1.067  -0.562  0.00  0.00    +0.171 A 
BRANCH  18  28
ATOM     27  C   UNL     1      -0.009   1.008   1.137  0.00  0.00    +0.027 C 
ATOM     28  C   UNL     1       0.111  -0.516   1.077  0.00  0.00    +0.121 C 
ENDBRANCH  18  28
ENDBRANCH  17  26
ENDBRANCH   1  17
TORSDOF 4
