REMARK  Name = ZINC60391055
REMARK  9 active torsions:
REMARK  status: ('A' for Active; 'I' for Inactive)
REMARK    1  A    between atoms: C_1  and  C_2
REMARK    2  A    between atoms: C_2  and  C_3
REMARK    3  A    between atoms: C_2  and  C_4
REMARK    4  A    between atoms: C_4  and  N_5
REMARK    5  A    between atoms: N_5  and  C_6
REMARK    6  A    between atoms: C_7  and  N_22
REMARK    7  A    between atoms: N_8  and  C_15
REMARK    8  A    between atoms: C_15  and  C_16
REMARK    9  A    between atoms: C_23  and  C_25
REMARK                            x       y       z     vdW  Elec       q    Type
REMARK                         _______ _______ _______ _____ _____    ______ ____
ROOT
ATOM      1  C   UNL     1       3.011  -0.860  -0.399  0.00  0.00    +0.140 A 
ATOM      2  C   UNL     1       3.879  -0.305   0.519  0.00  0.00    +0.128 A 
ATOM      3  N   UNL     1       4.762  -1.121   1.187  0.00  0.00    -0.276 N 
ATOM      4  C   UNL     1       4.780  -2.445   0.948  0.00  0.00    +0.331 A 
ATOM      5  O   UNL     1       5.568  -3.150   1.549  0.00  0.00    -0.246 OA
ATOM      6  N   UNL     1       3.942  -3.003   0.057  0.00  0.00    -0.273 N 
ATOM      7  H   UNL     1       3.975  -3.961  -0.098  0.00  0.00    +0.173 HD
ATOM      8  C   UNL     1       3.054  -2.250  -0.621  0.00  0.00    +0.277 A 
ATOM      9  O   UNL     1       2.296  -2.767  -1.423  0.00  0.00    -0.266 OA
ENDROOT
BRANCH   1  10
ATOM     10  N   UNL     1       2.094  -0.050  -1.100  0.00  0.00    -0.260 N 
ATOM     11  C   UNL     1       2.539   0.979  -1.848  0.00  0.00    +0.251 C 
ATOM     12  O   UNL     1       1.745   1.728  -2.385  0.00  0.00    -0.270 OA
BRANCH  11  13
ATOM     13  C   UNL     1       3.990   1.197  -2.017  0.00  0.00    +0.037 A 
ATOM     14  C   UNL     1       4.888   0.155  -1.778  0.00  0.00    +0.014 A 
ATOM     15  C   UNL     1       6.242   0.365  -1.937  0.00  0.00    +0.016 A 
ATOM     16  C   UNL     1       6.711   1.606  -2.333  0.00  0.00    +0.018 A 
ATOM     17  C   UNL     1       5.826   2.643  -2.572  0.00  0.00    +0.016 A 
ATOM     18  C   UNL     1       4.470   2.444  -2.422  0.00  0.00    +0.014 A 
ATOM     19 BR   UNL     1       8.569   1.885  -2.549  0.00  0.00    -0.050 Br
ENDBRANCH  11  13
BRANCH  10  20
ATOM     20  C   UNL     1       0.658  -0.327  -1.014  0.00  0.00    +0.117 C 
BRANCH  20  22
ATOM     21  C   UNL     1       0.199   1.854   0.115  0.00  0.00    +0.009 C 
ATOM     22  C   UNL     1       0.085   0.333   0.241  0.00  0.00    +0.001 C 
ATOM     23  C   UNL     1      -1.386  -0.057   0.397  0.00  0.00    +0.009 C 
ENDBRANCH  20  22
ENDBRANCH  10  20
ENDBRANCH   1  10
BRANCH   2  24
ATOM     24  N   UNL     1       3.861   1.047   0.764  0.00  0.00    -0.343 N 
ATOM     25  H   UNL     1       3.176   1.604   0.361  0.00  0.00    +0.144 HD
ATOM     26  H   UNL     1       4.534   1.445   1.339  0.00  0.00    +0.144 HD
ENDBRANCH   2  24
BRANCH   3  27
ATOM     27  C   UNL     1       5.689  -0.545   2.165  0.00  0.00    +0.163 C 
BRANCH  27  28
ATOM     28  C   UNL     1       5.046  -0.546   3.528  0.00  0.00    -0.028 A 
ATOM     29  C   UNL     1       4.295   0.539   3.938  0.00  0.00    +0.005 A 
ATOM     30  C   UNL     1       3.705   0.538   5.189  0.00  0.00    +0.000 A 
ATOM     31  C   UNL     1       3.866  -0.548   6.028  0.00  0.00    +0.000 A 
ATOM     32  C   UNL     1       4.617  -1.634   5.617  0.00  0.00    +0.000 A 
ATOM     33  C   UNL     1       5.203  -1.635   4.365  0.00  0.00    +0.005 A 
ENDBRANCH  27  28
ENDBRANCH   3  27
TORSDOF 7
