REMARK  Name = ZINC00718403
REMARK  10 active torsions:
REMARK  status: ('A' for Active; 'I' for Inactive)
REMARK    1  A    between atoms: C_1  and  C_2
REMARK    2  A    between atoms: C_2  and  O_3
REMARK    3  A    between atoms: O_3  and  C_4
REMARK    4  A    between atoms: C_7  and  C_13
REMARK    5  A    between atoms: C_9  and  O_10
REMARK    6  A    between atoms: O_10  and  C_11
REMARK    7  A    between atoms: C_11  and  C_12
REMARK    8  A    between atoms: C_16  and  C_27
REMARK    9  A    between atoms: C_22  and  N_26
REMARK   10  A    between atoms: C_23  and  C_24
REMARK                            x       y       z     vdW  Elec       q    Type
REMARK                         _______ _______ _______ _____ _____    ______ ____
ROOT
ATOM      1  C   UNL     1      -2.065  -6.208  -0.019  0.00  0.00    +0.102 C 
ATOM      2  C   UNL     1      -1.259  -6.751   1.132  0.00  0.00    +0.054 A 
ATOM      3  C   UNL     1      -1.509  -6.666   2.505  0.00  0.00    +0.100 A 
ATOM      4  N   UNL     1      -0.530  -7.286   3.135  0.00  0.00    -0.171 NA
ATOM      5  N   UNL     1       0.368  -7.782   2.177  0.00  0.00    -0.246 N 
ATOM      6  H   UNL     1       1.180  -8.280   2.361  0.00  0.00    +0.192 HD
ATOM      7  C   UNL     1      -0.097  -7.445   0.956  0.00  0.00    +0.223 A 
ATOM      8  O   UNL     1       0.423  -7.703  -0.269  0.00  0.00    -0.423 OA
ATOM      9  C   UNL     1      -0.370  -7.499  -1.341  0.00  0.00    +0.200 C 
ATOM     10  C   UNL     1      -1.537  -6.817  -1.294  0.00  0.00    +0.098 C 
ENDROOT
BRANCH   3  11
ATOM     11  C   UNL     1      -2.671  -5.996   3.141  0.00  0.00    +0.003 A 
ATOM     12  C   UNL     1      -3.947  -6.151   2.603  0.00  0.00    +0.013 A 
ATOM     13  C   UNL     1      -5.024  -5.527   3.198  0.00  0.00    +0.039 A 
ATOM     14  C   UNL     1      -4.839  -4.747   4.328  0.00  0.00    +0.123 A 
ATOM     15  C   UNL     1      -3.572  -4.591   4.866  0.00  0.00    +0.039 A 
ATOM     16  C   UNL     1      -2.489  -5.215   4.281  0.00  0.00    +0.013 A 
ATOM     17  F   UNL     1      -5.896  -4.138   4.907  0.00  0.00    -0.205 F 
ENDBRANCH   3  11
BRANCH   1  21
ATOM     18  C   UNL     1      -1.661  -1.954  -0.181  0.00  0.00    +0.162 A 
ATOM     19  C   UNL     1      -0.535  -2.761  -0.206  0.00  0.00    +0.050 A 
ATOM     20  C   UNL     1      -0.669  -4.136  -0.153  0.00  0.00    +0.008 A 
ATOM     21  C   UNL     1      -1.925  -4.709  -0.076  0.00  0.00    -0.031 A 
ATOM     22  C   UNL     1      -3.053  -3.909  -0.052  0.00  0.00    +0.054 A 
ATOM     23  C   UNL     1      -2.925  -2.530  -0.098  0.00  0.00    +0.162 A 
BRANCH  18  24
ATOM     24  O   UNL     1      -1.532  -0.601  -0.233  0.00  0.00    -0.489 OA
BRANCH  24  26
ATOM     25  C   UNL     1      -0.258   1.449  -0.366  0.00  0.00    +0.048 C 
ATOM     26  C   UNL     1      -0.204  -0.080  -0.318  0.00  0.00    +0.226 C 
ENDBRANCH  24  26
ENDBRANCH  18  24
BRANCH  23  27
ATOM     27  O   UNL     1      -4.033  -1.742  -0.068  0.00  0.00    -0.489 OA
BRANCH  27  28
ATOM     28  C   UNL     1      -5.297  -2.403   0.018  0.00  0.00    +0.226 C 
ATOM     29  C   UNL     1      -6.417  -1.361   0.041  0.00  0.00    +0.048 C 
ENDBRANCH  27  28
ENDBRANCH  23  27
ENDBRANCH   1  21
BRANCH   9  30
ATOM     30  N   UNL     1       0.031  -8.013  -2.549  0.00  0.00    -0.328 N 
ATOM     31  H   UNL     1       0.863  -8.506  -2.614  0.00  0.00    +0.145 HD
ATOM     32  H   UNL     1      -0.518  -7.882  -3.337  0.00  0.00    +0.145 HD
ENDBRANCH   9  30
BRANCH  10  33
ATOM     33  C   UNL     1      -2.299  -6.669  -2.498  0.00  0.00    +0.101 C 
ATOM     34  N   UNL     1      -2.903  -6.551  -3.452  0.00  0.00    -0.191 NA
ENDBRANCH  10  33
TORSDOF 8
