REMARK  Name = ZINC38704646
REMARK  7 active torsions:
REMARK  status: ('A' for Active; 'I' for Inactive)
REMARK    1  A    between atoms: C_1  and  C_2
REMARK    2  A    between atoms: C_4  and  C_33
REMARK    3  A    between atoms: C_5  and  C_9
REMARK    4  A    between atoms: C_6  and  O_8
REMARK    5  A    between atoms: N_17  and  C_26
REMARK    6  A    between atoms: C_18  and  C_20
REMARK    7  A    between atoms: C_26  and  C_27
REMARK                            x       y       z     vdW  Elec       q    Type
REMARK                         _______ _______ _______ _____ _____    ______ ____
ROOT
ATOM      1  C   UNL     1       0.220  -4.519  -0.143  0.00  0.00    +0.102 A 
ATOM      2  C   UNL     1       0.246  -5.246   1.051  0.00  0.00    +0.035 A 
ATOM      3  C   UNL     1       0.194  -6.577   0.683  0.00  0.00    +0.126 A 
ATOM      4  N   UNL     1       0.141  -6.591  -0.682  0.00  0.00    -0.272 N 
ATOM      5  H   UNL     1       0.096  -7.391  -1.229  0.00  0.00    +0.189 HD
ATOM      6  N   UNL     1       0.151  -5.387  -1.133  0.00  0.00    -0.173 NA
ATOM      7  C   UNL     1       0.218  -7.398   1.898  0.00  0.00    +0.266 C 
ATOM      8  O   UNL     1       0.184  -8.614   1.915  0.00  0.00    -0.268 OA
ATOM      9  N   UNL     1       0.282  -6.617   2.991  0.00  0.00    -0.281 N 
ATOM     10  C   UNL     1       0.306  -5.215   2.554  0.00  0.00    +0.142 C 
ENDROOT
BRANCH   1  15
ATOM     11  C   UNL     1       0.365   1.220  -0.651  0.00  0.00    +0.044 C 
ATOM     12  C   UNL     1       0.325  -0.280  -0.516  0.00  0.00    -0.047 A 
ATOM     13  C   UNL     1       1.193  -1.062  -1.258  0.00  0.00    +0.007 A 
ATOM     14  C   UNL     1       1.163  -2.437  -1.141  0.00  0.00    -0.037 A 
ATOM     15  C   UNL     1       0.257  -3.041  -0.273  0.00  0.00    +0.047 A 
ATOM     16  C   UNL     1      -0.619  -2.249   0.475  0.00  0.00    +0.127 A 
ATOM     17  C   UNL     1      -0.574  -0.869   0.352  0.00  0.00    +0.049 A 
ATOM     18  C   UNL     1       2.110  -3.284  -1.951  0.00  0.00    +0.044 C 
BRANCH  16  19
ATOM     19  O   UNL     1      -1.506  -2.829   1.324  0.00  0.00    -0.506 OA
ATOM     20  H   UNL     1      -1.199  -2.881   2.239  0.00  0.00    +0.292 HD
ENDBRANCH  16  19
ENDBRANCH   1  15
BRANCH  10  21
ATOM     21  C   UNL     1       1.579  -4.550   3.009  0.00  0.00    -0.022 A 
ATOM     22  C   UNL     1       2.797  -5.166   2.789  0.00  0.00    +0.006 A 
ATOM     23  C   UNL     1       3.965  -4.556   3.206  0.00  0.00    +0.000 A 
ATOM     24  C   UNL     1       3.916  -3.330   3.843  0.00  0.00    +0.000 A 
ATOM     25  C   UNL     1       2.698  -2.714   4.062  0.00  0.00    +0.000 A 
ATOM     26  C   UNL     1       1.530  -3.322   3.641  0.00  0.00    +0.006 A 
ENDBRANCH  10  21
BRANCH   9  27
ATOM     27  C   UNL     1       0.321  -7.084   4.379  0.00  0.00    +0.145 C 
BRANCH  27  28
ATOM     28  C   UNL     1       1.754  -7.284   4.801  0.00  0.00    -0.012 A 
ATOM     29  C   UNL     1       2.376  -8.509   4.613  0.00  0.00    +0.008 A 
ATOM     30  C   UNL     1       3.695  -8.648   5.017  0.00  0.00    +0.020 A 
ATOM     31  C   UNL     1       4.341  -7.569   5.590  0.00  0.00    +0.111 A 
ATOM     32  N   UNL     1       3.718  -6.418   5.753  0.00  0.00    -0.263 NA
ATOM     33  C   UNL     1       2.466  -6.248   5.376  0.00  0.00    +0.115 A 
ENDBRANCH  27  28
ENDBRANCH   9  27
TORSDOF 5
