REMARK  Name = ZINC09743076
REMARK  7 active torsions:
REMARK  status: ('A' for Active; 'I' for Inactive)
REMARK    1  A    between atoms: C_1  and  C_2
REMARK    2  A    between atoms: C_6  and  C_8
REMARK    3  A    between atoms: C_8  and  N_9
REMARK    4  A    between atoms: C_22  and  C_27
REMARK    5  A    between atoms: N_23  and  C_26
REMARK    6  A    between atoms: C_29  and  N_33
REMARK    7  A    between atoms: C_30  and  C_31
REMARK                            x       y       z     vdW  Elec       q    Type
REMARK                         _______ _______ _______ _____ _____    ______ ____
ROOT
ATOM      1  N   UNL     1      -1.110   1.996   0.018  0.00  0.00    -0.265 N 
ATOM      2  C   UNL     1      -0.784   3.340   0.025  0.00  0.00    +0.041 A 
ATOM      3  C   UNL     1      -1.623   4.456   0.037  0.00  0.00    +0.024 A 
ATOM      4  C   UNL     1      -1.018   5.703   0.034  0.00  0.00    +0.002 A 
ATOM      5  C   UNL     1       0.354   5.850   0.021  0.00  0.00    +0.000 A 
ATOM      6  C   UNL     1       1.200   4.747   0.009  0.00  0.00    +0.007 A 
ATOM      7  C   UNL     1       0.606   3.503   0.012  0.00  0.00    -0.001 A 
ATOM      8  C   UNL     1       1.192   2.126   0.002  0.00  0.00    +0.147 C 
ATOM      9  C   UNL     1      -0.014   1.209   0.009  0.00  0.00    +0.241 C 
ATOM     10  O   UNL     1       0.002  -0.004   0.002  0.00  0.00    -0.274 OA
ATOM     11  C   UNL     1       2.023   1.887   1.230  0.00  0.00    +0.084 A 
ATOM     12  C   UNL     1       3.399   1.836   1.145  0.00  0.00    +0.142 A 
ATOM     13  C   UNL     1       4.147   1.611   2.319  0.00  0.00    +0.068 A 
ATOM     14  C   UNL     1       3.511   1.449   3.499  0.00  0.00    +0.022 A 
ATOM     15  N   UNL     1       2.156   1.500   3.574  0.00  0.00    -0.315 N 
ATOM     16  C   UNL     1       1.407   1.713   2.476  0.00  0.00    +0.260 A 
ATOM     17  O   UNL     1       0.190   1.756   2.566  0.00  0.00    -0.267 OA
ATOM     18  C   UNL     1       1.498   1.319   4.871  0.00  0.00    +0.152 C 
ATOM     19  C   UNL     1       4.316   1.210   4.750  0.00  0.00    +0.064 C 
ATOM     20  O   UNL     1       4.031   1.997  -0.037  0.00  0.00    -0.441 OA
ATOM     21  C   UNL     1       3.357   1.845  -1.190  0.00  0.00    +0.199 C 
ATOM     22  C   UNL     1       2.004   1.896  -1.240  0.00  0.00    +0.110 C 
ENDROOT
BRANCH  21  23
ATOM     23  N   UNL     1       4.059   1.631  -2.349  0.00  0.00    -0.328 N 
ATOM     24  H   UNL     1       3.587   1.520  -3.189  0.00  0.00    +0.145 HD
ATOM     25  H   UNL     1       5.028   1.592  -2.329  0.00  0.00    +0.145 HD
ENDBRANCH  21  23
BRANCH  22  26
ATOM     26  C   UNL     1       1.338   1.729  -2.497  0.00  0.00    +0.102 C 
ATOM     27  N   UNL     1       0.810   1.596  -3.494  0.00  0.00    -0.191 NA
ENDBRANCH  22  26
BRANCH   1  28
ATOM     28  C   UNL     1      -2.484   1.486   0.022  0.00  0.00    +0.148 C 
BRANCH  28  34
ATOM     29  C   UNL     1      -4.689   3.315   4.126  0.00  0.00    +0.044 C 
ATOM     30  C   UNL     1      -4.003   2.181   3.408  0.00  0.00    -0.050 A 
ATOM     31  C   UNL     1      -3.800   0.976   4.054  0.00  0.00    +0.003 A 
ATOM     32  C   UNL     1      -3.171  -0.064   3.396  0.00  0.00    +0.001 A 
ATOM     33  C   UNL     1      -2.750   0.100   2.089  0.00  0.00    +0.005 A 
ATOM     34  C   UNL     1      -2.948   1.306   1.445  0.00  0.00    -0.029 A 
ATOM     35  C   UNL     1      -3.577   2.346   2.103  0.00  0.00    +0.008 A 
ENDBRANCH  28  34
ENDBRANCH   1  28
TORSDOF 4
