REMARK  Name = ZINC35360423
REMARK  5 active torsions:
REMARK  status: ('A' for Active; 'I' for Inactive)
REMARK    1  A    between atoms: C_1  and  C_2
REMARK    2  A    between atoms: C_2  and  C_3
REMARK    3  A    between atoms: C_17  and  C_20
REMARK    4  A    between atoms: C_25  and  O_26
REMARK    5  A    between atoms: O_26  and  C_27
REMARK                            x       y       z     vdW  Elec       q    Type
REMARK                         _______ _______ _______ _____ _____    ______ ____
ROOT
ATOM      1  C   UNL     1      -1.290  -0.594  -0.513  0.00  0.00    -0.047 A 
ATOM      2  C   UNL     1      -1.808  -0.780   0.755  0.00  0.00    +0.005 A 
ATOM      3  C   UNL     1      -3.103  -1.230   0.911  0.00  0.00    +0.023 A 
ATOM      4  C   UNL     1      -3.888  -1.496  -0.206  0.00  0.00    +0.033 A 
ATOM      5  C   UNL     1      -3.368  -1.305  -1.477  0.00  0.00    +0.003 A 
ATOM      6  C   UNL     1      -2.068  -0.851  -1.625  0.00  0.00    +0.011 A 
ATOM      7  C   UNL     1      -4.193  -1.569  -2.711  0.00  0.00    +0.155 C 
ATOM      8  C   UNL     1      -5.343  -2.515  -2.377  0.00  0.00    +0.047 C 
ATOM      9  C   UNL     1      -6.290  -2.652  -3.567  0.00  0.00    +0.011 C 
ATOM     10  C   UNL     1      -6.763  -1.263  -4.007  0.00  0.00    +0.028 C 
ATOM     11  C   UNL     1      -5.537  -0.404  -4.329  0.00  0.00    +0.160 C 
ATOM     12  O   UNL     1      -4.711  -0.325  -3.189  0.00  0.00    -0.372 OA
ATOM     13  C   UNL     1      -6.114  -1.966  -1.173  0.00  0.00    +0.110 C 
ATOM     14  N   UNL     1      -5.196  -1.957  -0.024  0.00  0.00    -0.336 N 
ATOM     15  H   UNL     1      -5.493  -2.264   0.847  0.00  0.00    +0.147 HD
ENDROOT
BRANCH  13  16
ATOM     16  C   UNL     1      -6.589  -0.566  -1.466  0.00  0.00    +0.015 A 
ATOM     17  C   UNL     1      -5.681   0.474  -1.522  0.00  0.00    +0.009 A 
ATOM     18  C   UNL     1      -6.115   1.758  -1.790  0.00  0.00    +0.001 A 
ATOM     19  C   UNL     1      -7.459   2.006  -2.003  0.00  0.00    +0.004 A 
ATOM     20  C   UNL     1      -8.370   0.970  -1.948  0.00  0.00    +0.046 A 
ATOM     21  C   UNL     1      -7.936  -0.321  -1.684  0.00  0.00    +0.125 A 
BRANCH  21  22
ATOM     22  O   UNL     1      -8.831  -1.343  -1.635  0.00  0.00    -0.495 OA
ATOM     23  C   UNL     1     -10.202  -1.017  -1.870  0.00  0.00    +0.277 C 
ENDBRANCH  21  22
ENDBRANCH  13  16
BRANCH   1  25
ATOM     24  C   UNL     1       0.135   1.424  -0.726  0.00  0.00    +0.009 C 
ATOM     25  C   UNL     1       0.126  -0.105  -0.683  0.00  0.00    +0.032 C 
ENDBRANCH   1  25
TORSDOF 3
