REMARK  Name = ZINC52595189
REMARK  6 active torsions:
REMARK  status: ('A' for Active; 'I' for Inactive)
REMARK    1  A    between atoms: C_3  and  C_32
REMARK    2  A    between atoms: C_7  and  C_10
REMARK    3  A    between atoms: N_13  and  C_16
REMARK    4  A    between atoms: C_16  and  C_17
REMARK    5  A    between atoms: C_17  and  C_18
REMARK    6  A    between atoms: C_23  and  C_29
REMARK                            x       y       z     vdW  Elec       q    Type
REMARK                         _______ _______ _______ _____ _____    ______ ____
ROOT
ATOM      1  C   UNL     1       0.618  -3.143  -0.022  0.00  0.00    -0.049 C 
ATOM      2  C   UNL     1      -0.685  -2.886   0.088  0.00  0.00    -0.042 C 
ATOM      3  C   UNL     1      -1.728  -3.967   0.105  0.00  0.00    -0.051 C 
ATOM      4  N   UNL     1      -1.178  -5.215  -0.436  0.00  0.00    +0.382 N 
ATOM      5  C   UNL     1       0.067  -5.541   0.278  0.00  0.00    -0.074 C 
ATOM      6  C   UNL     1       1.149  -4.544  -0.150  0.00  0.00    +0.016 C 
ATOM      7  H   UNL     1      -0.982  -5.099  -1.419  0.00  0.00    -0.081 HD
ENDROOT
BRANCH   1  14
ATOM      8  C   UNL     1       5.108  -2.977  -0.682  0.00  0.00    +0.002 A 
ATOM      9  C   UNL     1       5.672  -1.709  -0.607  0.00  0.00    +0.021 A 
ATOM     10  C   UNL     1       4.899  -0.589  -0.348  0.00  0.00    +0.075 A 
ATOM     11  C   UNL     1       3.447  -0.758  -0.150  0.00  0.00    +0.061 A 
ATOM     12  N   UNL     1       2.495   0.104   0.103  0.00  0.00    -0.379 N 
ATOM     13  C   UNL     1       1.215  -0.604   0.208  0.00  0.00    +0.149 C 
ATOM     14  C   UNL     1       1.527  -2.066  -0.024  0.00  0.00    -0.016 C 
ATOM     15  C   UNL     1       2.900  -2.126  -0.240  0.00  0.00    +0.004 A 
ATOM     16  C   UNL     1       3.779  -3.196  -0.508  0.00  0.00    +0.010 A 
ATOM     17  H   UNL     1       2.617   1.061   0.206  0.00  0.00    +0.160 HD
BRANCH  10  18
ATOM     18  C   UNL     1       5.499   0.710  -0.275  0.00  0.00    +0.101 C 
ATOM     19  N   UNL     1       5.974   1.740  -0.216  0.00  0.00    -0.191 NA
ENDBRANCH  10  18
ENDBRANCH   1  14
BRANCH   4  20
ATOM     20  C   UNL     1      -2.150  -6.301  -0.251  0.00  0.00    -0.076 C 
BRANCH  20  21
ATOM     21  C   UNL     1      -3.399  -6.014  -1.086  0.00  0.00    +0.018 C 
BRANCH  21  22
ATOM     22  C   UNL     1      -4.411  -7.146  -0.894  0.00  0.00    +0.147 C 
ATOM     23  C   UNL     1      -5.584  -6.928  -1.816  0.00  0.00    -0.016 A 
ATOM     24  C   UNL     1      -5.335  -6.543  -3.126  0.00  0.00    +0.007 A 
ATOM     25  C   UNL     1      -6.377  -6.338  -4.004  0.00  0.00    +0.013 A 
ATOM     26  C   UNL     1      -7.692  -6.519  -3.573  0.00  0.00    +0.037 A 
ATOM     27  C   UNL     1      -7.937  -6.904  -2.256  0.00  0.00    +0.017 A 
ATOM     28  C   UNL     1      -6.883  -7.104  -1.383  0.00  0.00    -0.039 A 
ATOM     29  C   UNL     1      -7.188  -7.508   0.038  0.00  0.00    +0.063 C 
ATOM     30  C   UNL     1      -5.928  -8.073   0.697  0.00  0.00    +0.165 C 
ATOM     31  O   UNL     1      -4.850  -7.161   0.464  0.00  0.00    -0.372 OA
BRANCH  26  32
ATOM     32  C   UNL     1      -8.818  -6.305  -4.507  0.00  0.00    +0.242 C 
ATOM     33  O   UNL     1      -9.961  -6.464  -4.128  0.00  0.00    -0.270 OA
ATOM     34  N   UNL     1      -8.576  -5.933  -5.780  0.00  0.00    -0.325 N 
ATOM     35  H   UNL     1      -7.663  -5.806  -6.083  0.00  0.00    +0.145 HD
ATOM     36  H   UNL     1      -9.314  -5.792  -6.393  0.00  0.00    +0.145 HD
ENDBRANCH  26  32
ENDBRANCH  21  22
ENDBRANCH  20  21
ENDBRANCH   4  20
TORSDOF 6
