REMARK  Name = ZINC43572268
REMARK  4 active torsions:
REMARK  status: ('A' for Active; 'I' for Inactive)
REMARK    1  A    between atoms: C_8  and  C_27
REMARK    2  A    between atoms: C_10  and  C_18
REMARK    3  A    between atoms: C_22  and  N_24
REMARK    4  A    between atoms: C_27  and  C_29
REMARK                            x       y       z     vdW  Elec       q    Type
REMARK                         _______ _______ _______ _____ _____    ______ ____
ROOT
ATOM      1  C   UNL     1      -0.135   1.266   1.772  0.00  0.00    +0.000 A 
ATOM      2  C   UNL     1       1.028   1.929   2.118  0.00  0.00    +0.002 A 
ATOM      3  C   UNL     1       2.256   1.341   1.897  0.00  0.00    +0.023 A 
ATOM      4  C   UNL     1       2.335   0.075   1.323  0.00  0.00    +0.039 A 
ATOM      5  C   UNL     1       1.157  -0.583   0.978  0.00  0.00    +0.004 A 
ATOM      6  C   UNL     1      -0.067   0.007   1.201  0.00  0.00    +0.008 A 
ATOM      7  C   UNL     1       1.580  -1.899   0.390  0.00  0.00    +0.137 C 
ATOM      8  C   UNL     1       0.998  -3.081   1.185  0.00  0.00    +0.103 C 
ATOM      9  C   UNL     1       1.057  -4.222   0.132  0.00  0.00    +0.050 C 
ATOM     10  C   UNL     1       0.792  -3.485  -1.198  0.00  0.00    +0.077 C 
ATOM     11  N   UNL     1       1.094  -2.066  -0.988  0.00  0.00    -0.271 NA
ATOM     12  C   UNL     1      -0.018  -1.118  -1.245  0.00  0.00    +0.155 C 
ATOM     13  S   UNL     1      -1.105  -2.119  -2.352  0.00  0.00    -0.144 S 
ATOM     14  C   UNL     1      -0.664  -3.755  -1.639  0.00  0.00    +0.090 C 
ATOM     15  C   UNL     1       3.083  -1.891   0.452  0.00  0.00    +0.243 C 
ATOM     16  O   UNL     1       3.828  -2.773   0.078  0.00  0.00    -0.273 OA
ATOM     17  N   UNL     1       3.441  -0.716   1.005  0.00  0.00    -0.283 N 
ATOM     18  H   UNL     1       4.360  -0.450   1.163  0.00  0.00    +0.155 HD
ENDROOT
BRANCH   9  19
ATOM     19  C   UNL     1      -0.014  -5.249   0.398  0.00  0.00    -0.040 A 
ATOM     20  C   UNL     1      -0.556  -5.370   1.664  0.00  0.00    +0.004 A 
ATOM     21  C   UNL     1      -1.538  -6.311   1.909  0.00  0.00    +0.002 A 
ATOM     22  C   UNL     1      -1.979  -7.131   0.886  0.00  0.00    +0.033 A 
ATOM     23  C   UNL     1      -1.437  -7.010  -0.379  0.00  0.00    +0.126 A 
ATOM     24  C   UNL     1      -0.458  -6.065  -0.625  0.00  0.00    +0.036 A 
BRANCH  23  25
ATOM     25  N   UNL     1      -1.909  -7.888  -1.473  0.00  0.00    +0.056 N 
ATOM     26  O   UNL     1      -2.767  -8.712  -1.260  0.00  0.00    -0.126 OA
ATOM     27  O   UNL     1      -1.435  -7.782  -2.581  0.00  0.00    -0.126 OA
ENDBRANCH  23  25
ENDBRANCH   9  19
BRANCH   8  28
ATOM     28  C   UNL     1      -0.423  -2.804   1.603  0.00  0.00    +0.176 C 
ATOM     29  O   UNL     1      -1.324  -2.902   0.795  0.00  0.00    -0.291 OA
BRANCH  28  30
ATOM     30  C   UNL     1      -0.707  -2.429   2.935  0.00  0.00    +0.055 A 
ATOM     31  C   UNL     1      -1.935  -2.137   3.522  0.00  0.00    +0.019 A 
ATOM     32  C   UNL     1      -1.893  -1.800   4.851  0.00  0.00    +0.008 A 
ATOM     33  C   UNL     1      -0.695  -1.774   5.489  0.00  0.00    +0.046 A 
ATOM     34  S   UNL     1       0.413  -2.213   4.305  0.00  0.00    -0.094 S 
ENDBRANCH  28  30
ENDBRANCH   8  28
TORSDOF 4
