REMARK  Name = ZINC09396437
REMARK  12 active torsions:
REMARK  status: ('A' for Active; 'I' for Inactive)
REMARK    1  A    between atoms: C_1  and  C_2
REMARK    2  A    between atoms: C_2  and  C_3
REMARK    3  A    between atoms: C_7  and  C_34
REMARK    4  A    between atoms: C_8  and  N_9
REMARK    5  A    between atoms: C_10  and  C_12
REMARK    6  A    between atoms: C_12  and  S_13
REMARK    7  A    between atoms: S_13  and  C_14
REMARK    8  A    between atoms: C_17  and  C_26
REMARK    9  A    between atoms: N_18  and  C_19
REMARK   10  A    between atoms: C_26  and  C_28
REMARK   11  A    between atoms: C_26  and  N_69
REMARK   12  A    between atoms: C_34  and  C_35
REMARK                            x       y       z     vdW  Elec       q    Type
REMARK                         _______ _______ _______ _____ _____    ______ ____
ROOT
ATOM      1  C   UNL     1       0.120   1.974   6.894  0.00  0.00    +0.197 A 
ATOM      2  N   UNL     1       0.695   3.103   6.549  0.00  0.00    -0.122 NA
ATOM      3  N   UNL     1       0.793   3.875   7.571  0.00  0.00    -0.135 NA
ATOM      4  C   UNL     1       0.290   3.293   8.623  0.00  0.00    +0.125 A 
ATOM      5  N   UNL     1      -0.162   2.061   8.230  0.00  0.00    -0.275 N 
ENDROOT
BRANCH   5   6
ATOM      6  C   UNL     1      -0.782   1.090   9.030  0.00  0.00    +0.050 A 
ATOM      7  C   UNL     1      -2.021   1.348   9.600  0.00  0.00    +0.029 A 
ATOM      8  C   UNL     1      -2.633   0.388  10.383  0.00  0.00    +0.040 A 
ATOM      9  C   UNL     1      -2.005  -0.825  10.610  0.00  0.00    +0.124 A 
ATOM     10  C   UNL     1      -0.767  -1.082  10.046  0.00  0.00    +0.040 A 
ATOM     11  C   UNL     1      -0.155  -0.127   9.258  0.00  0.00    +0.029 A 
ATOM     12  F   UNL     1      -2.603  -1.760  11.380  0.00  0.00    -0.205 F 
ENDBRANCH   5   6
BRANCH   4  13
ATOM     13  C   UNL     1       0.216   3.869  10.013  0.00  0.00    -0.002 C 
ATOM     14  C   UNL     1       1.620   3.926  10.618  0.00  0.00    -0.005 C 
BRANCH  13  20
ATOM     15  C   UNL     1      -0.454   5.812  11.294  0.00  0.00    -0.078 C 
ATOM     16  C   UNL     1      -0.903   7.271  11.180  0.00  0.00    -0.019 C 
ATOM     17  C   UNL     1      -2.257   7.328  10.466  0.00  0.00    -0.004 C 
ATOM     18  C   UNL     1      -2.129   6.668   9.091  0.00  0.00    -0.019 C 
ATOM     19  C   UNL     1      -1.644   5.227   9.265  0.00  0.00    -0.078 C 
ATOM     20  N   UNL     1      -0.326   5.242   9.936  0.00  0.00    +0.386 N 
ATOM     21  H   UNL     1       0.319   5.824   9.389  0.00  0.00    -0.081 HD
ENDBRANCH  13  20
ENDBRANCH   4  13
BRANCH   1  22
ATOM     22  S   UNL     1      -0.229   0.610   5.836  0.00  0.00    -0.076 S 
BRANCH  22  23
ATOM     23  C   UNL     1       0.419   1.250   4.272  0.00  0.00    +0.173 C 
BRANCH  23  25
ATOM     24  N   UNL     1       0.632   0.482   1.931  0.00  0.00    -0.284 N 
ATOM     25  C   UNL     1       0.223   0.222   3.188  0.00  0.00    +0.228 C 
ATOM     26  O   UNL     1      -0.303  -0.840   3.447  0.00  0.00    -0.275 OA
ATOM     27  H   UNL     1       1.122   1.297   1.739  0.00  0.00    +0.155 HD
BRANCH  24  33
ATOM     28  C   UNL     1      -0.409  -0.025  -0.189  0.00  0.00    -0.026 A 
ATOM     29  C   UNL     1      -0.690  -0.923  -1.200  0.00  0.00    +0.005 A 
ATOM     30  C   UNL     1      -0.205  -2.216  -1.131  0.00  0.00    +0.001 A 
ATOM     31  C   UNL     1       0.553  -2.617  -0.047  0.00  0.00    +0.005 A 
ATOM     32  C   UNL     1       0.832  -1.725   0.970  0.00  0.00    -0.026 A 
ATOM     33  C   UNL     1       0.351  -0.424   0.902  0.00  0.00    +0.040 A 
BRANCH  28  35
ATOM     34  C   UNL     1       0.140   2.296  -0.868  0.00  0.00    +0.009 C 
ATOM     35  C   UNL     1      -0.933   1.386  -0.267  0.00  0.00    +0.033 C 
ENDBRANCH  28  35
BRANCH  32  36
ATOM     36  C   UNL     1       1.657  -2.164   2.152  0.00  0.00    +0.033 C 
ATOM     37  C   UNL     1       0.857  -3.162   2.991  0.00  0.00    +0.009 C 
ENDBRANCH  32  36
ENDBRANCH  24  33
ENDBRANCH  23  25
ENDBRANCH  22  23
ENDBRANCH   1  22
TORSDOF 9
