REMARK  Name = ZINC44322905
REMARK  8 active torsions:
REMARK  status: ('A' for Active; 'I' for Inactive)
REMARK    1  A    between atoms: C_6  and  C_11
REMARK    2  A    between atoms: C_15  and  C_17
REMARK    3  A    between atoms: C_17  and  CA_18
REMARK    4  A    between atoms: CA_18  and  C_20
REMARK    5  A    between atoms: CA_18  and  N_23
REMARK    6  A    between atoms: C_24  and  O_26
REMARK    7  A    between atoms: O_26  and  C_27
REMARK    8  A    between atoms: C_27  and  C_28
REMARK                            x       y       z     vdW  Elec       q    Type
REMARK                         _______ _______ _______ _____ _____    ______ ____
ROOT
ATOM      1  CA  UNL     1       6.273  -6.800   1.336  0.00  0.00    +0.193 C 
ENDROOT
BRANCH   1   2
ATOM      2  N   UNL     1       7.521  -6.392   1.986  0.00  0.00    -0.267 N 
ATOM      3  C   UNL     1       7.575  -6.277   3.328  0.00  0.00    +0.401 C 
ATOM      4  O   UNL     1       6.589  -6.512   3.998  0.00  0.00    -0.226 OA
ATOM      5  H   UNL     1       8.308  -6.205   1.451  0.00  0.00    +0.153 HD
BRANCH   3   6
ATOM      6  O   UNL     1       8.722  -5.903   3.925  0.00  0.00    -0.449 OA
BRANCH   6   7
ATOM      7  C   UNL     1       8.708  -5.802   5.351  0.00  0.00    +0.246 C 
BRANCH   7   8
ATOM      8  C   UNL     1      10.090  -5.367   5.845  0.00  0.00    +0.088 C 
ATOM      9  C   UNL     1      11.094  -6.469   5.613  0.00  0.00    -0.029 A 
ATOM     10  C   UNL     1      11.536  -7.093   4.466  0.00  0.00    +0.005 A 
ATOM     11  C   UNL     1      12.486  -8.096   4.545  0.00  0.00    +0.000 A 
ATOM     12  C   UNL     1      12.995  -8.475   5.774  0.00  0.00    +0.001 A 
ATOM     13  C   UNL     1      12.558  -7.856   6.927  0.00  0.00    +0.009 A 
ATOM     14  C   UNL     1      11.600  -6.843   6.855  0.00  0.00    -0.014 A 
ATOM     15  C   UNL     1      10.963  -6.023   7.915  0.00  0.00    -0.014 A 
ATOM     16  C   UNL     1      10.059  -5.137   7.336  0.00  0.00    -0.029 A 
ATOM     17  C   UNL     1       9.339  -4.264   8.123  0.00  0.00    +0.005 A 
ATOM     18  C   UNL     1       9.511  -4.266   9.496  0.00  0.00    +0.000 A 
ATOM     19  C   UNL     1      10.407  -5.143  10.081  0.00  0.00    +0.001 A 
ATOM     20  C   UNL     1      11.132  -6.019   9.301  0.00  0.00    +0.009 A 
ENDBRANCH   7   8
ENDBRANCH   6   7
ENDBRANCH   3   6
ENDBRANCH   1   2
BRANCH   1  21
ATOM     21  C   UNL     1       6.180  -8.304   1.324  0.00  0.00    +0.376 C 
ATOM     22  O   UNL     1       7.196  -8.977   1.280  0.00  0.00    -0.244 OA
ATOM     23  OXT UNL     1       5.090  -8.848   1.358  0.00  0.00    -0.244 OA
ENDBRANCH   1  21
BRANCH   1  24
ATOM     24  C   UNL     1       6.252  -6.276  -0.102  0.00  0.00    +0.069 C 
BRANCH  24  29
ATOM     25  C   UNL     1       4.983  -2.713  -0.059  0.00  0.00    -0.018 A 
ATOM     26  C   UNL     1       6.179  -1.997  -0.061  0.00  0.00    +0.008 A 
ATOM     27  C   UNL     1       7.383  -2.671  -0.076  0.00  0.00    +0.001 A 
ATOM     28  C   UNL     1       7.404  -4.054  -0.088  0.00  0.00    +0.004 A 
ATOM     29  C   UNL     1       6.221  -4.769  -0.087  0.00  0.00    -0.044 A 
ATOM     30  C   UNL     1       5.010  -4.106  -0.067  0.00  0.00    +0.012 A 
BRANCH  25  36
ATOM     31  C   UNL     1      -0.016   1.357   0.009  0.00  0.00    +0.001 A 
ATOM     32  C   UNL     1       1.168   2.091   0.002  0.00  0.00    +0.001 A 
ATOM     33  C   UNL     1       2.378   1.468  -0.013  0.00  0.00    +0.008 A 
ATOM     34  C   UNL     1       2.437   0.063  -0.021  0.00  0.00    -0.017 A 
ATOM     35  C   UNL     1       3.668  -0.612  -0.036  0.00  0.00    +0.017 A 
ATOM     36  C   UNL     1       3.685  -1.994  -0.043  0.00  0.00    -0.017 A 
ATOM     37  C   UNL     1       2.485  -2.723  -0.036  0.00  0.00    +0.009 A 
ATOM     38  C   UNL     1       1.284  -2.089  -0.021  0.00  0.00    +0.009 A 
ATOM     39  C   UNL     1       1.232  -0.684  -0.013  0.00  0.00    -0.018 A 
ATOM     40  C   UNL     1       0.002  -0.004   0.002  0.00  0.00    +0.008 A 
ENDBRANCH  25  36
ENDBRANCH  24  29
ENDBRANCH   1  24
TORSDOF 8
