REMARK  Name = ZINC18180900
REMARK  11 active torsions:
REMARK  status: ('A' for Active; 'I' for Inactive)
REMARK    1  A    between atoms: C_1  and  C_2
REMARK    2  A    between atoms: C_2  and  C_3
REMARK    3  A    between atoms: C_15  and  C_17
REMARK    4  A    between atoms: C_20  and  C_23
REMARK    5  A    between atoms: C_27  and  C_30
REMARK    6  A    between atoms: C_32  and  O_40
REMARK    7  A    between atoms: C_33  and  O_38
REMARK    8  A    between atoms: C_34  and  O_36
REMARK    9  A    between atoms: O_36  and  C_37
REMARK   10  A    between atoms: O_38  and  C_39
REMARK   11  A    between atoms: O_40  and  C_41
REMARK                            x       y       z     vdW  Elec       q    Type
REMARK                         _______ _______ _______ _____ _____    ______ ____
ROOT
ATOM      1  C   UNL     1       2.388   0.882   0.167  0.00  0.00    +0.220 C 
ATOM      2  O   UNL     1       2.252  -0.323   0.207  0.00  0.00    -0.275 OA
ATOM      3  N   UNL     1       1.306   1.679   0.067  0.00  0.00    -0.258 N 
ATOM      4  C   UNL     1       1.477   3.064   0.021  0.00  0.00    +0.058 A 
ATOM      5  C   UNL     1       2.124   3.679  -1.038  0.00  0.00    +0.025 A 
ATOM      6  C   UNL     1       2.229   5.059  -1.062  0.00  0.00    +0.002 A 
ATOM      7  C   UNL     1       1.691   5.820  -0.040  0.00  0.00    +0.002 A 
ATOM      8  C   UNL     1       1.058   5.207   1.028  0.00  0.00    +0.025 A 
ATOM      9  C   UNL     1       0.971   3.826   1.064  0.00  0.00    +0.053 A 
ATOM     10  N   UNL     1       0.447   3.144   2.155  0.00  0.00    -0.316 N 
ATOM     11  C   UNL     1      -0.656   2.354   2.116  0.00  0.00    +0.017 C 
ATOM     12  C   UNL     1      -0.900   1.418   1.185  0.00  0.00    +0.037 C 
ATOM     13  C   UNL     1      -0.013   1.086   0.008  0.00  0.00    +0.147 C 
ATOM     14  C   UNL     1      -2.074   0.632   1.254  0.00  0.00    +0.163 C 
ATOM     15  O   UNL     1      -2.275  -0.199   0.390  0.00  0.00    -0.292 OA
ATOM     16  C   UNL     1      -3.081   0.787   2.354  0.00  0.00    +0.088 C 
ATOM     17  C   UNL     1      -2.363   1.306   3.605  0.00  0.00    +0.032 C 
ATOM     18  C   UNL     1      -1.659   2.609   3.229  0.00  0.00    +0.059 C 
ATOM     19  H   UNL     1       0.902   3.240   3.006  0.00  0.00    +0.152 HD
ENDROOT
BRANCH  13  20
ATOM     20  C   UNL     1      -0.695   1.560  -1.250  0.00  0.00    -0.022 A 
ATOM     21  C   UNL     1      -0.898   2.911  -1.458  0.00  0.00    +0.006 A 
ATOM     22  C   UNL     1      -1.520   3.346  -2.614  0.00  0.00    +0.004 A 
ATOM     23  C   UNL     1      -1.946   2.430  -3.556  0.00  0.00    -0.050 A 
ATOM     24  C   UNL     1      -1.747   1.078  -3.345  0.00  0.00    +0.004 A 
ATOM     25  C   UNL     1      -1.122   0.643  -2.192  0.00  0.00    +0.006 A 
ATOM     26  C   UNL     1      -2.627   2.904  -4.814  0.00  0.00    +0.044 C 
ENDBRANCH  13  20
BRANCH  17  27
ATOM     27  C   UNL     1      -3.365   1.564   4.699  0.00  0.00    -0.036 A 
ATOM     28  C   UNL     1      -4.401   2.455   4.490  0.00  0.00    +0.053 A 
ATOM     29  C   UNL     1      -5.330   2.691   5.492  0.00  0.00    +0.165 A 
ATOM     30  C   UNL     1      -5.210   2.038   6.714  0.00  0.00    +0.204 A 
ATOM     31  C   UNL     1      -4.164   1.148   6.923  0.00  0.00    +0.165 A 
ATOM     32  C   UNL     1      -3.244   0.913   5.913  0.00  0.00    +0.053 A 
BRANCH  31  33
ATOM     33  O   UNL     1      -4.044   0.507   8.117  0.00  0.00    -0.491 OA
ATOM     34  C   UNL     1      -2.945  -0.395   8.261  0.00  0.00    +0.277 C 
ENDBRANCH  31  33
BRANCH  30  35
ATOM     35  O   UNL     1      -6.116   2.271   7.703  0.00  0.00    -0.488 OA
ATOM     36  C   UNL     1      -5.825   3.334   8.612  0.00  0.00    +0.277 C 
ENDBRANCH  30  35
BRANCH  29  37
ATOM     37  O   UNL     1      -6.351   3.563   5.283  0.00  0.00    -0.491 OA
ATOM     38  C   UNL     1      -6.411   4.197   4.004  0.00  0.00    +0.277 C 
ENDBRANCH  29  37
ENDBRANCH  17  27
BRANCH   1  40
ATOM     39  C   UNL     1       4.809   0.371   0.339  0.00  0.00    +0.013 C 
ATOM     40  C   UNL     1       3.767   1.486   0.229  0.00  0.00    +0.093 C 
ENDBRANCH   1  40
TORSDOF 6
