REMARK  Name = ZINC38659258
REMARK  10 active torsions:
REMARK  status: ('A' for Active; 'I' for Inactive)
REMARK    1  A    between atoms: C_1  and  C_2
REMARK    2  A    between atoms: C_5  and  C_7
REMARK    3  A    between atoms: C_12  and  O_21
REMARK    4  A    between atoms: C_16  and  N_20
REMARK    5  A    between atoms: C_17  and  C_18
REMARK    6  A    between atoms: O_21  and  C_22
REMARK    7  A    between atoms: C_22  and  C_24
REMARK    8  A    between atoms: C_24  and  C_26
REMARK    9  A    between atoms: C_24  and  O_27
REMARK   10  A    between atoms: O_27  and  C_28
REMARK                            x       y       z     vdW  Elec       q    Type
REMARK                         _______ _______ _______ _____ _____    ______ ____
ROOT
ATOM      1  C   UNL     1       1.629  -3.062  -0.029  0.00  0.00    +0.134 C 
ATOM      2  C   UNL     1       2.509  -3.059   1.193  0.00  0.00    +0.011 A 
ATOM      3  C   UNL     1       1.956  -2.777   2.429  0.00  0.00    +0.012 A 
ATOM      4  C   UNL     1       2.747  -2.770   3.561  0.00  0.00    +0.047 A 
ATOM      5  C   UNL     1       4.104  -3.046   3.460  0.00  0.00    +0.135 A 
ATOM      6  C   UNL     1       4.661  -3.328   2.223  0.00  0.00    +0.093 A 
ATOM      7  C   UNL     1       3.863  -3.336   1.086  0.00  0.00    +0.138 A 
ATOM      8  O   UNL     1       4.423  -3.613  -0.117  0.00  0.00    -0.441 OA
ATOM      9  C   UNL     1       3.793  -3.257  -1.248  0.00  0.00    +0.199 C 
ATOM     10  C   UNL     1       2.470  -2.980  -1.272  0.00  0.00    +0.101 C 
ENDROOT
BRANCH   1  15
ATOM     11  C   UNL     1      -0.028   1.699   0.151  0.00  0.00    +0.086 C 
ATOM     12  C   UNL     1      -0.022   0.193   0.102  0.00  0.00    +0.102 A 
ATOM     13  C   UNL     1      -1.110  -0.598   0.092  0.00  0.00    +0.044 A 
ATOM     14  C   UNL     1      -0.645  -1.933   0.042  0.00  0.00    +0.046 A 
ATOM     15  C   UNL     1       0.699  -1.877   0.023  0.00  0.00    +0.118 A 
ATOM     16  O   UNL     1       1.071  -0.587   0.054  0.00  0.00    -0.464 OA
ENDBRANCH   1  15
BRANCH   9  17
ATOM     17  N   UNL     1       4.514  -3.168  -2.413  0.00  0.00    -0.328 N 
ATOM     18  H   UNL     1       5.464  -3.362  -2.411  0.00  0.00    +0.145 HD
ATOM     19  H   UNL     1       4.073  -2.912  -3.238  0.00  0.00    +0.145 HD
ENDBRANCH   9  17
BRANCH  10  20
ATOM     20  C   UNL     1       1.857  -2.603  -2.510  0.00  0.00    +0.101 C 
ATOM     21  N   UNL     1       1.371  -2.305  -3.492  0.00  0.00    -0.191 NA
ENDBRANCH  10  20
BRANCH   5  22
ATOM     22  O   UNL     1       4.885  -3.039   4.572  0.00  0.00    -0.423 OA
BRANCH  22  23
ATOM     23  C   UNL     1       5.834  -2.095   4.670  0.00  0.00    +0.353 C 
ATOM     24  O   UNL     1       5.914  -1.230   3.830  0.00  0.00    -0.246 OA
BRANCH  23  25
ATOM     25  C   UNL     1       6.801  -2.115   5.826  0.00  0.00    +0.279 C 
ATOM     26  C   UNL     1       6.040  -1.872   7.131  0.00  0.00    +0.064 C 
BRANCH  25  27
ATOM     27  O   UNL     1       7.779  -1.089   5.647  0.00  0.00    -0.475 OA
BRANCH  27  28
ATOM     28  C   UNL     1       9.034  -1.346   6.102  0.00  0.00    +0.157 A 
ATOM     29  C   UNL     1       9.288  -2.503   6.823  0.00  0.00    +0.048 A 
ATOM     30  C   UNL     1      10.564  -2.763   7.285  0.00  0.00    +0.004 A 
ATOM     31  C   UNL     1      11.589  -1.871   7.028  0.00  0.00    +0.003 A 
ATOM     32  C   UNL     1      11.340  -0.716   6.310  0.00  0.00    +0.042 A 
ATOM     33  C   UNL     1      10.066  -0.454   5.840  0.00  0.00    +0.165 A 
ATOM     34  F   UNL     1       9.824   0.671   5.132  0.00  0.00    -0.202 F 
ENDBRANCH  27  28
ENDBRANCH  25  27
ENDBRANCH  23  25
ENDBRANCH  22  23
ENDBRANCH   5  22
TORSDOF 8
