REMARK  Name = ZINC45695415
REMARK  11 active torsions:
REMARK  status: ('A' for Active; 'I' for Inactive)
REMARK    1  A    between atoms: C_1  and  C_2
REMARK    2  A    between atoms: C_2  and  C_3
REMARK    3  A    between atoms: C_2  and  O_4
REMARK    4  A    between atoms: O_4  and  C_5
REMARK    5  A    between atoms: C_8  and  C_11
REMARK    6  A    between atoms: C_11  and  C_12
REMARK    7  A    between atoms: C_12  and  N_13
REMARK    8  A    between atoms: N_16  and  C_17
REMARK    9  A    between atoms: C_22  and  S_23
REMARK   10  A    between atoms: S_23  and  C_24
REMARK   11  A    between atoms: C_24  and  C_25
REMARK                            x       y       z     vdW  Elec       q    Type
REMARK                         _______ _______ _______ _____ _____    ______ ____
ROOT
ATOM      1  N   UNL     1       8.152  -2.360  -0.539  0.00  0.00    -0.299 N 
ATOM      2  C   UNL     1       8.738  -3.530  -0.218  0.00  0.00    +0.304 C 
ATOM      3  O   UNL     1       8.055  -4.508   0.018  0.00  0.00    -0.253 OA
ATOM      4  N   UNL     1      10.082  -3.617  -0.158  0.00  0.00    -0.268 N 
ATOM      5  H   UNL     1       8.697  -1.580  -0.727  0.00  0.00    +0.150 HD
ATOM      6  H   UNL     1      10.624  -2.820  -0.263  0.00  0.00    +0.156 HD
ENDROOT
BRANCH   4   7
ATOM      7  C   UNL     1      10.695  -4.859   0.057  0.00  0.00    +0.048 A 
ATOM      8  C   UNL     1      10.038  -6.029  -0.292  0.00  0.00    +0.024 A 
ATOM      9  C   UNL     1      10.645  -7.253  -0.079  0.00  0.00    +0.002 A 
ATOM     10  C   UNL     1      11.907  -7.316   0.482  0.00  0.00    +0.001 A 
ATOM     11  C   UNL     1      12.570  -6.155   0.833  0.00  0.00    +0.016 A 
ATOM     12  C   UNL     1      11.971  -4.922   0.617  0.00  0.00    +0.030 A 
BRANCH  12  13
ATOM     13  S   UNL     1      12.817  -3.440   1.057  0.00  0.00    -0.114 S 
BRANCH  13  14
ATOM     14  C   UNL     1      14.399  -4.020   1.729  0.00  0.00    +0.169 C 
BRANCH  14  15
ATOM     15  C   UNL     1      15.231  -2.836   2.150  0.00  0.00    +0.221 C 
ATOM     16  O   UNL     1      14.799  -1.711   2.009  0.00  0.00    -0.275 OA
ATOM     17  N   UNL     1      16.454  -3.027   2.681  0.00  0.00    -0.329 N 
ATOM     18  H   UNL     1      16.800  -3.926   2.793  0.00  0.00    +0.145 HD
ATOM     19  H   UNL     1      16.990  -2.265   2.951  0.00  0.00    +0.145 HD
ENDBRANCH  14  15
ENDBRANCH  13  14
ENDBRANCH  12  13
ENDBRANCH   4   7
BRANCH   1  20
ATOM     20  C   UNL     1       6.691  -2.266  -0.604  0.00  0.00    +0.110 C 
BRANCH  20  21
ATOM     21  C   UNL     1       6.289  -0.840  -0.987  0.00  0.00    +0.054 C 
BRANCH  21  25
ATOM     22  C   UNL     1       2.029  -0.565  -1.178  0.00  0.00    +0.121 A 
ATOM     23  C   UNL     1       2.689  -0.307   0.015  0.00  0.00    +0.046 A 
ATOM     24  C   UNL     1       4.066  -0.397   0.074  0.00  0.00    +0.007 A 
ATOM     25  C   UNL     1       4.787  -0.743  -1.054  0.00  0.00    -0.046 A 
ATOM     26  C   UNL     1       4.131  -1.000  -2.244  0.00  0.00    +0.007 A 
ATOM     27  C   UNL     1       2.753  -0.918  -2.307  0.00  0.00    +0.046 A 
BRANCH  22  28
ATOM     28  O   UNL     1       0.674  -0.478  -1.238  0.00  0.00    -0.489 OA
BRANCH  28  30
ATOM     29  C   UNL     1      -0.012   1.521  -0.066  0.00  0.00    +0.051 C 
ATOM     30  C   UNL     1       0.001  -0.009  -0.068  0.00  0.00    +0.167 C 
ATOM     31  C   UNL     1      -1.437  -0.531  -0.063  0.00  0.00    +0.051 C 
ENDBRANCH  28  30
ENDBRANCH  22  28
ENDBRANCH  21  25
ENDBRANCH  20  21
ENDBRANCH   1  20
TORSDOF 9
