REMARK  Name = ZINC04701372
REMARK  7 active torsions:
REMARK  status: ('A' for Active; 'I' for Inactive)
REMARK    1  A    between atoms: C_1  and  C_2
REMARK    2  A    between atoms: C_2  and  C_8
REMARK    3  A    between atoms: N_3  and  N_4
REMARK    4  A    between atoms: C_8  and  C_18
REMARK    5  A    between atoms: C_11  and  C_16
REMARK    6  A    between atoms: C_13  and  C_14
REMARK    7  A    between atoms: C_13  and  C_15
REMARK                            x       y       z     vdW  Elec       q    Type
REMARK                         _______ _______ _______ _____ _____    ______ ____
ROOT
ATOM      1  C   UNL     1      -2.446  -2.737   0.039  0.00  0.00    +0.013 C 
ATOM      2  C   UNL     1      -2.575  -3.465  -1.315  0.00  0.00    +0.014 C 
ATOM      3  C   UNL     1      -4.090  -3.410  -1.633  0.00  0.00    +0.016 C 
ATOM      4  C   UNL     1      -4.494  -2.001  -1.132  0.00  0.00    +0.109 C 
ATOM      5  C   UNL     1      -3.666  -1.806   0.155  0.00  0.00    -0.011 C 
ATOM      6  C   UNL     1      -4.502  -2.188   1.379  0.00  0.00    +0.012 C 
ATOM      7  C   UNL     1      -3.206  -0.351   0.267  0.00  0.00    +0.012 C 
ATOM      8  C   UNL     1      -2.450  -3.752   1.183  0.00  0.00    +0.018 C 
ENDROOT
BRANCH   1  10
ATOM      9  C   UNL     1      -0.236  -2.047   1.244  0.00  0.00    +0.063 C 
ATOM     10  C   UNL     1      -1.175  -1.929   0.071  0.00  0.00    +0.040 C 
ATOM     11  N   UNL     1      -0.892  -1.141  -0.898  0.00  0.00    -0.188 NA
BRANCH  11  12
ATOM     12  N   UNL     1       0.290  -0.390  -0.868  0.00  0.00    -0.191 N 
ATOM     13  C   UNL     1       0.587   0.439  -1.889  0.00  0.00    +0.317 C 
ATOM     14  O   UNL     1       1.613   1.092  -1.863  0.00  0.00    -0.251 OA
ATOM     15  N   UNL     1      -0.250   0.541  -2.940  0.00  0.00    -0.312 N 
ATOM     16  H   UNL     1       0.894  -0.466  -0.113  0.00  0.00    +0.179 HD
ATOM     17  H   UNL     1      -1.066   0.017  -2.963  0.00  0.00    +0.147 HD
ATOM     18  H   UNL     1      -0.035   1.137  -3.675  0.00  0.00    +0.147 HD
ENDBRANCH  11  12
ENDBRANCH   1  10
BRANCH   4  19
ATOM     19  C   UNL     1      -5.968  -1.954  -0.823  0.00  0.00    +0.360 C 
ATOM     20  O   UNL     1      -6.578  -2.978  -0.630  0.00  0.00    -0.246 OA
ATOM     21  O   UNL     1      -6.603  -0.773  -0.763  0.00  0.00    -0.246 OA
ENDBRANCH   4  19
TORSDOF 3
