REMARK  Name = ZINC36206993
REMARK  13 active torsions:
REMARK  status: ('A' for Active; 'I' for Inactive)
REMARK    1  A    between atoms: C_1  and  C_2
REMARK    2  A    between atoms: C_7  and  O_8
REMARK    3  A    between atoms: O_8  and  C_9
REMARK    4  A    between atoms: C_9  and  C_10
REMARK    5  A    between atoms: C_10  and  C_12
REMARK    6  A    between atoms: C_10  and  O_34
REMARK    7  A    between atoms: C_12  and  N_13
REMARK    8  A    between atoms: N_13  and  C_14
REMARK    9  A    between atoms: N_13  and  C_20
REMARK   10  A    between atoms: C_14  and  C_15
REMARK   11  A    between atoms: C_20  and  C_21
REMARK   12  A    between atoms: C_27  and  C_33
REMARK   13  A    between atoms: C_28  and  C_32
REMARK                            x       y       z     vdW  Elec       q    Type
REMARK                         _______ _______ _______ _____ _____    ______ ____
ROOT
ATOM      1  N   UNL     1       0.287   0.179   7.107  0.00  0.00    +0.391 N 
ATOM      2  H   UNL     1       0.979   0.775   6.679  0.00  0.00    -0.080 HD
ENDROOT
BRANCH   1   3
ATOM      3  C   UNL     1      -0.049  -0.918   6.189  0.00  0.00    -0.043 C 
BRANCH   3   4
ATOM      4  C   UNL     1      -0.432  -0.342   4.824  0.00  0.00    +0.135 C 
BRANCH   4   5
ATOM      5  O   UNL     1      -1.670   0.363   4.934  0.00  0.00    -0.390 OA
ATOM      6  H   UNL     1      -2.410  -0.186   5.230  0.00  0.00    +0.210 HD
ENDBRANCH   4   5
BRANCH   4   7
ATOM      7  C   UNL     1      -0.581  -1.480   3.813  0.00  0.00    +0.258 C 
BRANCH   7   8
ATOM      8  O   UNL     1      -0.823  -0.936   2.515  0.00  0.00    -0.489 OA
BRANCH   8  15
ATOM      9  C   UNL     1      -1.303   0.120  -0.061  0.00  0.00    +0.047 C 
ATOM     10  C   UNL     1      -1.218  -1.360   0.207  0.00  0.00    -0.009 A 
ATOM     11  C   UNL     1      -1.371  -2.261  -0.829  0.00  0.00    +0.007 A 
ATOM     12  C   UNL     1      -1.294  -3.619  -0.583  0.00  0.00    +0.000 A 
ATOM     13  C   UNL     1      -1.062  -4.080   0.700  0.00  0.00    +0.004 A 
ATOM     14  C   UNL     1      -0.908  -3.184   1.739  0.00  0.00    +0.046 A 
ATOM     15  C   UNL     1      -0.980  -1.820   1.494  0.00  0.00    +0.124 A 
ENDBRANCH   8  15
ENDBRANCH   7   8
ENDBRANCH   4   7
ENDBRANCH   3   4
ENDBRANCH   1   3
BRANCH   1  16
ATOM     16  C   UNL     1      -0.922   0.962   7.397  0.00  0.00    -0.002 C 
BRANCH  16  17
ATOM     17  C   UNL     1      -0.567   2.119   8.296  0.00  0.00    +0.089 A 
ATOM     18  C   UNL     1      -0.276   3.368   7.891  0.00  0.00    +0.042 A 
ATOM     19  C   UNL     1      -0.005   4.123   9.056  0.00  0.00    +0.041 A 
ATOM     20  C   UNL     1      -0.147   3.290  10.102  0.00  0.00    +0.195 A 
ATOM     21  O   UNL     1      -0.493   2.079   9.636  0.00  0.00    -0.470 OA
ENDBRANCH  16  17
ENDBRANCH   1  16
BRANCH   1  22
ATOM     22  C   UNL     1       0.823  -0.376   8.357  0.00  0.00    -0.003 C 
BRANCH  22  23
ATOM     23  C   UNL     1       2.148  -1.040   8.084  0.00  0.00    +0.094 A 
ATOM     24  N   UNL     1       2.764  -1.732   9.076  0.00  0.00    -0.312 N 
ATOM     25  H   UNL     1       2.342  -1.791   9.948  0.00  0.00    +0.170 HD
ATOM     26  C   UNL     1       3.948  -2.341   8.875  0.00  0.00    +0.260 A 
ATOM     27  O   UNL     1       4.487  -2.960   9.776  0.00  0.00    -0.267 OA
ATOM     28  C   UNL     1       4.564  -2.250   7.585  0.00  0.00    +0.075 A 
ATOM     29  C   UNL     1       5.820  -2.810   7.123  0.00  0.00    -0.026 A 
ATOM     30  C   UNL     1       6.206  -2.596   5.855  0.00  0.00    -0.008 A 
ATOM     31  S   UNL     1       4.884  -1.607   5.182  0.00  0.00    -0.073 S 
ATOM     32  C   UNL     1       3.852  -1.511   6.622  0.00  0.00    +0.116 A 
ATOM     33  N   UNL     1       2.682  -0.943   6.896  0.00  0.00    -0.229 NA
ATOM     34  C   UNL     1       7.458  -3.075   5.166  0.00  0.00    +0.052 C 
ATOM     35  C   UNL     1       6.681  -3.623   8.055  0.00  0.00    +0.045 C 
ENDBRANCH  22  23
ENDBRANCH   1  22
TORSDOF 10
