REMARK  Name = ZINC60363989
REMARK  5 active torsions:
REMARK  status: ('A' for Active; 'I' for Inactive)
REMARK    1  A    between atoms: C_1  and  C_2
REMARK    2  A    between atoms: C_5  and  O_29
REMARK    3  A    between atoms: C_6  and  C_8
REMARK    4  A    between atoms: C_14  and  C_17
REMARK    5  A    between atoms: C_19  and  C_22
REMARK                            x       y       z     vdW  Elec       q    Type
REMARK                         _______ _______ _______ _____ _____    ______ ____
ROOT
ATOM      1  C   UNL     1       0.053  -2.841   2.459  0.00  0.00    +0.250 C 
ATOM      2  O   UNL     1      -0.037  -4.053   2.453  0.00  0.00    -0.270 OA
ATOM      3  N   UNL     1       0.152  -2.178   3.628  0.00  0.00    -0.297 N 
ATOM      4  C   UNL     1       0.128  -0.710   3.662  0.00  0.00    +0.108 C 
ATOM      5  C   UNL     1      -0.961  -0.256   4.639  0.00  0.00    +0.020 C 
ATOM      6  C   UNL     1      -0.722  -0.912   6.002  0.00  0.00    +0.016 C 
ATOM      7  C   UNL     1      -0.804  -2.433   5.859  0.00  0.00    +0.095 C 
ATOM      8  C   UNL     1       0.280  -2.912   4.895  0.00  0.00    +0.121 C 
ENDROOT
BRANCH   1  14
ATOM      9  C   UNL     1       2.191   0.470  -0.597  0.00  0.00    +0.044 C 
ATOM     10  C   UNL     1       1.080  -0.500  -0.290  0.00  0.00    -0.050 A 
ATOM     11  C   UNL     1       0.058  -0.691  -1.206  0.00  0.00    +0.007 A 
ATOM     12  C   UNL     1      -0.965  -1.577  -0.936  0.00  0.00    +0.046 A 
ATOM     13  C   UNL     1      -0.977  -2.284   0.257  0.00  0.00    +0.129 A 
ATOM     14  C   UNL     1       0.055  -2.094   1.186  0.00  0.00    +0.078 A 
ATOM     15  C   UNL     1       1.087  -1.198   0.898  0.00  0.00    +0.020 A 
BRANCH  13  16
ATOM     16  O   UNL     1      -1.982  -3.155   0.523  0.00  0.00    -0.506 OA
ATOM     17  H   UNL     1      -1.812  -4.057   0.220  0.00  0.00    +0.292 HD
ENDBRANCH  13  16
ENDBRANCH   1  14
BRANCH   7  18
ATOM     18  C   UNL     1      -0.602  -3.077   7.207  0.00  0.00    +0.232 A 
ATOM     19  N   UNL     1      -1.455  -3.849   7.817  0.00  0.00    -0.191 NA
ATOM     20  C   UNL     1      -0.952  -4.248   8.999  0.00  0.00    +0.202 A 
ATOM     21  N   UNL     1       0.239  -3.723   9.145  0.00  0.00    -0.056 NA
ATOM     22  O   UNL     1       0.487  -2.955   7.976  0.00  0.00    -0.337 OA
BRANCH  20  23
ATOM     23  C   UNL     1      -1.633  -5.134   9.975  0.00  0.00    +0.023 A 
ATOM     24  C   UNL     1      -2.904  -5.634   9.697  0.00  0.00    +0.013 A 
ATOM     25  C   UNL     1      -3.533  -6.458  10.608  0.00  0.00    +0.021 A 
ATOM     26  C   UNL     1      -2.904  -6.788  11.796  0.00  0.00    +0.041 A 
ATOM     27  C   UNL     1      -1.641  -6.294  12.076  0.00  0.00    +0.021 A 
ATOM     28  C   UNL     1      -1.001  -5.475  11.169  0.00  0.00    +0.013 A 
ATOM     29 CL   UNL     1      -3.700  -7.825  12.938  0.00  0.00    -0.084 Cl
ENDBRANCH  20  23
ENDBRANCH   7  18
TORSDOF 4
