REMARK  Name = ZINC19228946
REMARK  12 active torsions:
REMARK  status: ('A' for Active; 'I' for Inactive)
REMARK    1  A    between atoms: C_1  and  N_2
REMARK    2  A    between atoms: N_2  and  C_3
REMARK    3  A    between atoms: N_2  and  C_26
REMARK    4  A    between atoms: C_3  and  C_4
REMARK    5  A    between atoms: C_9  and  O_10
REMARK    6  A    between atoms: O_10  and  C_11
REMARK    7  A    between atoms: C_11  and  C_12
REMARK    8  A    between atoms: C_12  and  C_14
REMARK    9  A    between atoms: C_12  and  O_25
REMARK   10  A    between atoms: C_14  and  N_15
REMARK   11  A    between atoms: C_26  and  C_27
REMARK   12  A    between atoms: C_26  and  C_30
REMARK                            x       y       z     vdW  Elec       q    Type
REMARK                         _______ _______ _______ _____ _____    ______ ____
ROOT
ATOM      1  C   UNL     1      -0.793   2.472   9.249  0.00  0.00    -0.022 A 
ATOM      2  C   UNL     1      -0.677   2.180  10.595  0.00  0.00    +0.005 A 
ATOM      3  C   UNL     1       0.340   1.356  11.039  0.00  0.00    +0.000 A 
ATOM      4  C   UNL     1       1.244   0.822  10.139  0.00  0.00    +0.004 A 
ATOM      5  C   UNL     1       1.129   1.106   8.792  0.00  0.00    +0.046 A 
ATOM      6  C   UNL     1       0.112   1.937   8.344  0.00  0.00    +0.122 A 
ENDROOT
BRANCH   1   7
ATOM      7  C   UNL     1      -1.902   3.369   8.765  0.00  0.00    -0.039 C 
BRANCH   7   9
ATOM      8  C   UNL     1      -2.585   1.909   6.958  0.00  0.00    -0.095 C 
ATOM      9  N   UNL     1      -2.991   2.550   8.216  0.00  0.00    +0.383 N 
ATOM     10  H   UNL     1      -3.216   1.756   8.943  0.00  0.00    -0.081 HD
BRANCH   9  11
ATOM     11  C   UNL     1      -4.210   3.350   8.030  0.00  0.00    -0.062 C 
BRANCH  11  12
ATOM     12  C   UNL     1      -4.860   3.612   9.390  0.00  0.00    -0.024 C 
ATOM     13  C   UNL     1      -4.147   3.068  10.631  0.00  0.00    +0.002 C 
ATOM     14  C   UNL     1      -5.439   2.411  10.140  0.00  0.00    +0.002 C 
ENDBRANCH  11  12
BRANCH  11  15
ATOM     15  C   UNL     1      -3.849   4.683   7.372  0.00  0.00    -0.024 C 
ATOM     16  C   UNL     1      -4.728   5.158   6.212  0.00  0.00    +0.002 C 
ATOM     17  C   UNL     1      -3.314   4.641   5.939  0.00  0.00    +0.002 C 
ENDBRANCH  11  15
ENDBRANCH   9  11
ENDBRANCH   7   9
ENDBRANCH   1   7
BRANCH   6  18
ATOM     18  O   UNL     1       0.000   2.222   7.020  0.00  0.00    -0.489 OA
BRANCH  18  19
ATOM     19  C   UNL     1       0.967   1.637   6.146  0.00  0.00    +0.258 C 
BRANCH  19  20
ATOM     20  C   UNL     1       0.682   2.069   4.707  0.00  0.00    +0.135 C 
BRANCH  20  21
ATOM     21  O   UNL     1       0.869   3.481   4.587  0.00  0.00    -0.390 OA
ATOM     22  H   UNL     1       0.709   3.976   3.618  0.00  0.00    +0.210 HD
ENDBRANCH  20  21
BRANCH  20  23
ATOM     23  C   UNL     1       1.638   1.345   3.757  0.00  0.00    -0.043 C 
BRANCH  23  24
ATOM     24  N   UNL     1       1.288   1.669   2.368  0.00  0.00    +0.384 N 
ATOM     25  C   UNL     1       1.613   3.069   2.055  0.00  0.00    -0.074 C 
ATOM     26  C   UNL     1       1.578   3.253   0.537  0.00  0.00    +0.017 C 
ATOM     27  C   UNL     1       0.292   2.698  -0.018  0.00  0.00    -0.048 A 
ATOM     28  C   UNL     1      -0.092   3.073  -1.297  0.00  0.00    +0.004 A 
ATOM     29  C   UNL     1      -1.262   2.586  -1.845  0.00  0.00    +0.000 A 
ATOM     30  C   UNL     1      -2.054   1.720  -1.115  0.00  0.00    +0.000 A 
ATOM     31  C   UNL     1      -1.674   1.347   0.158  0.00  0.00    +0.002 A 
ATOM     32  C   UNL     1      -0.500   1.837   0.711  0.00  0.00    -0.061 A 
ATOM     33  C   UNL     1      -0.130   1.405   2.106  0.00  0.00    -0.043 C 
ATOM     34  H   UNL     1       1.885   1.015   1.714  0.00  0.00    -0.081 HD
ENDBRANCH  23  24
ENDBRANCH  20  23
ENDBRANCH  19  20
ENDBRANCH  18  19
ENDBRANCH   6  18
TORSDOF 11
