REMARK  Name = ZINC40530289
REMARK  14 active torsions:
REMARK  status: ('A' for Active; 'I' for Inactive)
REMARK    1  A    between atoms: C_1  and  C_2
REMARK    2  A    between atoms: C_2  and  C_3
REMARK    3  A    between atoms: C_3  and  C_4
REMARK    4  A    between atoms: C_4  and  C_5
REMARK    5  A    between atoms: C_8  and  C_11
REMARK    6  A    between atoms: C_11  and  O_13
REMARK    7  A    between atoms: O_13  and  C_14
REMARK    8  A    between atoms: C_21  and  N_37
REMARK    9  A    between atoms: C_22  and  C_35
REMARK   10  A    between atoms: C_23  and  C_25
REMARK   11  A    between atoms: C_28  and  C_31
REMARK   12  A    between atoms: C_31  and  C_32
REMARK   13  A    between atoms: C_31  and  C_33
REMARK   14  A    between atoms: C_31  and  C_34
REMARK                            x       y       z     vdW  Elec       q    Type
REMARK                         _______ _______ _______ _____ _____    ______ ____
ROOT
ATOM      1  C   UNL     1       3.030  -6.425  -7.495  0.00  0.00    +0.135 A 
ATOM      2  C   UNL     1       3.502  -5.555  -8.469  0.00  0.00    +0.047 A 
ATOM      3  C   UNL     1       4.113  -6.054  -9.602  0.00  0.00    +0.012 A 
ATOM      4  C   UNL     1       4.257  -7.420  -9.773  0.00  0.00    +0.008 A 
ATOM      5  C   UNL     1       3.787  -8.293  -8.804  0.00  0.00    +0.138 A 
ATOM      6  C   UNL     1       3.178  -7.792  -7.660  0.00  0.00    +0.093 A 
ATOM      7  O   UNL     1       3.919  -9.634  -8.953  0.00  0.00    -0.441 OA
ATOM      8  C   UNL     1       4.821 -10.126  -9.818  0.00  0.00    +0.199 C 
ATOM      9  C   UNL     1       5.338  -9.376 -10.820  0.00  0.00    +0.098 C 
ATOM     10  C   UNL     1       4.926  -7.944 -11.016  0.00  0.00    +0.098 C 
ENDROOT
BRANCH  10  11
ATOM     11  C   UNL     1       3.966  -7.855 -12.174  0.00  0.00    -0.035 A 
ATOM     12  C   UNL     1       2.760  -8.529 -12.126  0.00  0.00    +0.005 A 
ATOM     13  C   UNL     1       1.879  -8.448 -13.188  0.00  0.00    +0.004 A 
ATOM     14  C   UNL     1       2.204  -7.691 -14.299  0.00  0.00    -0.042 A 
ATOM     15  C   UNL     1       3.410  -7.016 -14.347  0.00  0.00    +0.004 A 
ATOM     16  C   UNL     1       4.288  -7.095 -13.283  0.00  0.00    +0.005 A 
BRANCH  14  17
ATOM     17  C   UNL     1       1.245  -7.603 -15.457  0.00  0.00    -0.013 C 
ATOM     18  C   UNL     1      -0.080  -7.006 -14.978  0.00  0.00    +0.015 C 
ATOM     19  C   UNL     1       1.842  -6.711 -16.547  0.00  0.00    +0.015 C 
ATOM     20  C   UNL     1       0.998  -9.003 -16.023  0.00  0.00    +0.015 C 
ENDBRANCH  14  17
ENDBRANCH  10  11
BRANCH   8  21
ATOM     21  N   UNL     1       5.231 -11.429  -9.683  0.00  0.00    -0.328 N 
ATOM     22  H   UNL     1       4.870 -11.980  -8.971  0.00  0.00    +0.145 HD
ATOM     23  H   UNL     1       5.881 -11.800 -10.300  0.00  0.00    +0.145 HD
ENDBRANCH   8  21
BRANCH   9  24
ATOM     24  C   UNL     1       6.297  -9.958 -11.710  0.00  0.00    +0.101 C 
ATOM     25  N   UNL     1       7.058 -10.419 -12.415  0.00  0.00    -0.191 NA
ENDBRANCH   9  24
BRANCH   1  26
ATOM     26  O   UNL     1       2.428  -5.935  -6.379  0.00  0.00    -0.426 OA
BRANCH  26  27
ATOM     27  C   UNL     1       1.160  -5.505  -6.484  0.00  0.00    +0.315 C 
ATOM     28  O   UNL     1       0.619  -5.476  -7.564  0.00  0.00    -0.250 OA
BRANCH  27  32
ATOM     29  C   UNL     1      -1.022  -2.990  -3.754  0.00  0.00    -0.011 C 
ATOM     30  C   UNL     1      -1.759  -4.165  -4.400  0.00  0.00    +0.004 C 
ATOM     31  C   UNL     1      -1.000  -4.619  -5.648  0.00  0.00    +0.015 C 
ATOM     32  C   UNL     1       0.412  -5.057  -5.255  0.00  0.00    +0.098 C 
ATOM     33  C   UNL     1       1.149  -3.882  -4.609  0.00  0.00    +0.015 C 
ATOM     34  C   UNL     1       0.390  -3.428  -3.361  0.00  0.00    +0.004 C 
BRANCH  29  35
ATOM     35  C   UNL     1      -1.782  -2.536  -2.506  0.00  0.00    +0.003 C 
BRANCH  35  36
ATOM     36  C   UNL     1      -3.148  -1.981  -2.914  0.00  0.00    +0.000 C 
BRANCH  36  38
ATOM     37  C   UNL     1      -5.274  -0.973  -2.074  0.00  0.00    +0.004 C 
ATOM     38  C   UNL     1      -3.907  -1.527  -1.666  0.00  0.00    -0.003 C 
ENDBRANCH  36  38
ENDBRANCH  35  36
ENDBRANCH  29  35
ENDBRANCH  27  32
ENDBRANCH  26  27
ENDBRANCH   1  26
TORSDOF 10
