REMARK  Name = ZINC28795767
REMARK  3 active torsions:
REMARK  status: ('A' for Active; 'I' for Inactive)
REMARK    1  A    between atoms: C_4  and  N_27
REMARK    2  A    between atoms: C_5  and  C_7
REMARK    3  A    between atoms: C_10  and  C_12
REMARK                            x       y       z     vdW  Elec       q    Type
REMARK                         _______ _______ _______ _____ _____    ______ ____
ROOT
ATOM      1  C   UNL     1       2.353  -5.401  -1.300  0.00  0.00    +0.245 C 
ATOM      2  N   UNL     1       3.756  -5.108  -1.641  0.00  0.00    -0.292 N 
ATOM      3  C   UNL     1       4.048  -4.371  -2.758  0.00  0.00    +0.160 C 
ATOM      4  N   UNL     1       3.264  -4.397  -3.822  0.00  0.00    -0.302 N 
ATOM      5  C   UNL     1       2.124  -5.123  -3.766  0.00  0.00    +0.213 A 
ATOM      6  N   UNL     1       1.649  -5.636  -2.567  0.00  0.00    -0.284 N 
ATOM      7  C   UNL     1       0.505  -6.324  -2.838  0.00  0.00    +0.072 A 
ATOM      8  C   UNL     1      -0.375  -7.049  -2.043  0.00  0.00    +0.028 A 
ATOM      9  C   UNL     1      -1.464  -7.630  -2.672  0.00  0.00    +0.002 A 
ATOM     10  C   UNL     1      -1.680  -7.503  -4.034  0.00  0.00    +0.002 A 
ATOM     11  C   UNL     1      -0.820  -6.787  -4.848  0.00  0.00    +0.030 A 
ATOM     12  C   UNL     1       0.288  -6.192  -4.234  0.00  0.00    +0.091 A 
ATOM     13  N   UNL     1       1.300  -5.445  -4.735  0.00  0.00    -0.212 NA
ATOM     14  N   UNL     1       5.174  -3.594  -2.772  0.00  0.00    -0.332 N 
ATOM     15  H   UNL     1       3.501  -3.906  -4.624  0.00  0.00    +0.171 HD
ATOM     16  H   UNL     1       5.756  -3.568  -1.997  0.00  0.00    +0.145 HD
ATOM     17  H   UNL     1       5.390  -3.068  -3.559  0.00  0.00    +0.145 HD
ATOM     18  H   UNL     1       4.472  -5.436  -1.074  0.00  0.00    +0.151 HD
ENDROOT
BRANCH   1  22
ATOM     19  C   UNL     1       1.250  -2.160  -0.023  0.00  0.00    +0.138 A 
ATOM     20  C   UNL     1       0.561  -2.976   0.819  0.00  0.00    +0.050 A 
ATOM     21  C   UNL     1       0.882  -4.299   0.454  0.00  0.00    +0.049 A 
ATOM     22  C   UNL     1       1.740  -4.226  -0.582  0.00  0.00    +0.147 A 
ATOM     23  O   UNL     1       1.957  -2.932  -0.870  0.00  0.00    -0.456 OA
BRANCH  19  28
ATOM     24  C   UNL     1      -0.017   1.375   0.010  0.00  0.00    +0.001 A 
ATOM     25  C   UNL     1       1.170   2.086   0.002  0.00  0.00    +0.002 A 
ATOM     26  C   UNL     1       2.383   1.420  -0.013  0.00  0.00    +0.033 A 
ATOM     27  C   UNL     1       2.416   0.041  -0.021  0.00  0.00    +0.137 A 
ATOM     28  C   UNL     1       1.222  -0.682  -0.014  0.00  0.00    +0.047 A 
ATOM     29  C   UNL     1       0.002  -0.004   0.002  0.00  0.00    +0.014 A 
BRANCH  27  30
ATOM     30  N   UNL     1       3.714  -0.670  -0.038  0.00  0.00    +0.057 N 
ATOM     31  O   UNL     1       4.747  -0.042  -0.045  0.00  0.00    -0.126 OA
ATOM     32  O   UNL     1       3.741  -1.879  -0.045  0.00  0.00    -0.126 OA
ENDBRANCH  27  30
ENDBRANCH  19  28
ENDBRANCH   1  22
TORSDOF 3
