REMARK  Name = ZINC06885900
REMARK  3 active torsions:
REMARK  status: ('A' for Active; 'I' for Inactive)
REMARK    1  A    between atoms: C_20  and  C_21
REMARK    2  A    between atoms: C_21  and  C_22
REMARK    3  A    between atoms: C_23  and  C_24
REMARK                            x       y       z     vdW  Elec       q    Type
REMARK                         _______ _______ _______ _____ _____    ______ ____
ROOT
ATOM      1  C   UNL     1      -0.017   1.378   0.010  0.00  0.00    +0.001 A 
ATOM      2  C   UNL     1       1.173   2.083   0.002  0.00  0.00    +0.004 A 
ATOM      3  C   UNL     1       2.378   1.411  -0.005  0.00  0.00    +0.046 A 
ATOM      4  C   UNL     1       2.402   0.018  -0.010  0.00  0.00    +0.127 A 
ATOM      5  C   UNL     1       1.207  -0.679  -0.016  0.00  0.00    +0.003 A 
ATOM      6  C   UNL     1       0.002  -0.004   0.002  0.00  0.00    +0.008 A 
ATOM      7  C   UNL     1       1.210  -2.192  -0.069  0.00  0.00    +0.070 C 
ATOM      8  C   UNL     1       2.494  -2.686   0.611  0.00  0.00    +0.064 C 
ATOM      9  C   UNL     1       2.490  -2.275   2.083  0.00  0.00    +0.010 C 
ATOM     10  C   UNL     1       3.789  -2.744   2.743  0.00  0.00    +0.001 C 
ATOM     11  C   UNL     1       4.984  -2.110   2.030  0.00  0.00    +0.006 C 
ATOM     12  C   UNL     1       4.976  -2.510   0.553  0.00  0.00    +0.069 C 
ATOM     13  C   UNL     1       3.679  -2.023  -0.107  0.00  0.00    +0.182 C 
ATOM     14  O   UNL     1       3.602  -0.611   0.003  0.00  0.00    -0.468 OA
ATOM     15  N   UNL     1       3.661  -2.428  -1.512  0.00  0.00    -0.274 N 
ATOM     16  C   UNL     1       2.480  -2.641  -2.167  0.00  0.00    +0.247 C 
ATOM     17  O   UNL     1       2.507  -2.933  -3.484  0.00  0.00    -0.270 OA
ATOM     18  C   UNL     1       1.257  -2.568  -1.535  0.00  0.00    +0.069 C 
ATOM     19  H   UNL     1       4.498  -2.547  -1.986  0.00  0.00    +0.153 HD
ENDROOT
BRANCH  18  20
ATOM     20  C   UNL     1       0.062  -2.843  -2.226  0.00  0.00    +0.188 C 
ATOM     21  O   UNL     1       0.097  -3.146  -3.408  0.00  0.00    -0.287 OA
BRANCH  20  22
ATOM     22  C   UNL     1      -1.226  -2.766  -1.526  0.00  0.00    +0.052 C 
ATOM     23  C   UNL     1      -2.369  -3.029  -2.187  0.00  0.00    +0.011 C 
BRANCH  23  24
ATOM     24  C   UNL     1      -3.660  -2.952  -1.484  0.00  0.00    -0.025 A 
ATOM     25  C   UNL     1      -3.704  -2.599  -0.132  0.00  0.00    +0.009 A 
ATOM     26  C   UNL     1      -4.917  -2.528   0.520  0.00  0.00    +0.020 A 
ATOM     27  C   UNL     1      -6.090  -2.805  -0.162  0.00  0.00    +0.041 A 
ATOM     28  C   UNL     1      -6.054  -3.155  -1.502  0.00  0.00    +0.020 A 
ATOM     29  C   UNL     1      -4.849  -3.225  -2.168  0.00  0.00    +0.009 A 
ATOM     30 CL   UNL     1      -7.613  -2.713   0.666  0.00  0.00    -0.084 Cl
ENDBRANCH  23  24
ENDBRANCH  20  22
ENDBRANCH  18  20
TORSDOF 3
