REMARK  Name = ZINC14881652
REMARK  8 active torsions:
REMARK  status: ('A' for Active; 'I' for Inactive)
REMARK    1  A    between atoms: C_4  and  C_7
REMARK    2  A    between atoms: C_7  and  N_70
REMARK    3  A    between atoms: C_11  and  N_14
REMARK    4  A    between atoms: C_15  and  C_17
REMARK    5  A    between atoms: C_17  and  C_18
REMARK    6  A    between atoms: C_18  and  C_19
REMARK    7  A    between atoms: C_19  and  C_25
REMARK    8  A    between atoms: C_25  and  C_26
REMARK                            x       y       z     vdW  Elec       q    Type
REMARK                         _______ _______ _______ _____ _____    ______ ____
ROOT
ATOM      1  C   UNL     1      -1.655   4.265   4.785  0.00  0.00    +0.098 C 
ENDROOT
BRANCH   1   3
ATOM      2  N   UNL     1      -1.538   3.588   2.409  0.00  0.00    -0.314 N 
ATOM      3  C   UNL     1      -0.896   3.773   3.580  0.00  0.00    +0.213 C 
ATOM      4  O   UNL     1       0.291   3.542   3.663  0.00  0.00    -0.276 OA
ATOM      5  H   UNL     1      -2.488   3.773   2.342  0.00  0.00    +0.149 HD
BRANCH   2   9
ATOM      6  C   UNL     1      -0.754   1.594  -1.231  0.00  0.00    -0.078 C 
ATOM      7  C   UNL     1      -0.013   1.086   0.008  0.00  0.00    -0.017 C 
ATOM      8  C   UNL     1      -0.731   1.580   1.267  0.00  0.00    +0.018 C 
ATOM      9  C   UNL     1      -0.801   3.110   1.237  0.00  0.00    +0.056 C 
ATOM     10  C   UNL     1      -1.520   3.559  -0.037  0.00  0.00    -0.056 C 
ATOM     11  N   UNL     1      -0.765   3.072  -1.211  0.00  0.00    +0.384 N 
ATOM     12  H   UNL     1       0.202   3.411  -1.149  0.00  0.00    -0.081 HD
BRANCH  11  13
ATOM     13  C   UNL     1      -1.375   3.588  -2.454  0.00  0.00    -0.043 C 
BRANCH  13  17
ATOM     14  C   UNL     1       1.205   2.681  -5.735  0.00  0.00    +0.000 A 
ATOM     15  C   UNL     1       0.210   1.792  -5.372  0.00  0.00    +0.000 A 
ATOM     16  C   UNL     1      -0.625   2.086  -4.310  0.00  0.00    +0.002 A 
ATOM     17  C   UNL     1      -0.465   3.268  -3.611  0.00  0.00    -0.064 A 
ATOM     18  C   UNL     1       0.527   4.159  -3.977  0.00  0.00    +0.002 A 
ATOM     19  C   UNL     1       1.365   3.863  -5.036  0.00  0.00    +0.000 A 
ENDBRANCH  13  17
ENDBRANCH  11  13
ENDBRANCH   2   9
ENDBRANCH   1   3
BRANCH   1  20
ATOM     20  C   UNL     1      -0.699   4.388   5.974  0.00  0.00    +0.035 C 
BRANCH  20  21
ATOM     21  C   UNL     1      -1.469   4.887   7.198  0.00  0.00    +0.039 C 
ATOM     22  C   UNL     1      -2.550   3.862   7.605  0.00  0.00    +0.035 C 
ATOM     23  C   UNL     1      -3.791   4.399   6.852  0.00  0.00    +0.098 C 
ATOM     24  C   UNL     1      -3.504   5.873   6.667  0.00  0.00    +0.214 C 
ATOM     25  O   UNL     1      -4.331   6.711   6.376  0.00  0.00    -0.276 OA
ATOM     26  N   UNL     1      -2.198   6.119   6.871  0.00  0.00    -0.309 N 
ATOM     27  H   UNL     1      -1.790   6.997   6.811  0.00  0.00    +0.149 HD
BRANCH  21  28
ATOM     28  C   UNL     1      -0.508   5.135   8.362  0.00  0.00    +0.061 C 
BRANCH  28  29
ATOM     29  C   UNL     1       0.444   6.246   8.001  0.00  0.00    -0.038 A 
ATOM     30  C   UNL     1       1.669   5.956   7.485  0.00  0.00    +0.004 A 
ATOM     31  C   UNL     1       2.560   6.971   7.138  0.00  0.00    +0.001 A 
ATOM     32  C   UNL     1       2.235   8.280   7.319  0.00  0.00    +0.008 A 
ATOM     33  C   UNL     1       0.981   8.618   7.855  0.00  0.00    -0.018 A 
ATOM     34  C   UNL     1       0.073   7.586   8.201  0.00  0.00    -0.015 A 
ATOM     35  C   UNL     1      -1.181   7.924   8.739  0.00  0.00    +0.009 A 
ATOM     36  C   UNL     1      -1.506   9.233   8.919  0.00  0.00    +0.001 A 
ATOM     37  C   UNL     1      -0.612  10.248   8.579  0.00  0.00    +0.001 A 
ATOM     38  C   UNL     1       0.610   9.959   8.057  0.00  0.00    +0.008 A 
ENDBRANCH  28  29
ENDBRANCH  21  28
ENDBRANCH  20  21
ENDBRANCH   1  20
TORSDOF 8
