REMARK  Name = ZINC41106328
REMARK  8 active torsions:
REMARK  status: ('A' for Active; 'I' for Inactive)
REMARK    1  A    between atoms: C_1  and  C_2
REMARK    2  A    between atoms: C_3  and  C_27
REMARK    3  A    between atoms: C_11  and  C_13
REMARK    4  A    between atoms: C_13  and  C_15
REMARK    5  A    between atoms: C_13  and  N_16
REMARK    6  A    between atoms: C_19  and  C_22
REMARK    7  A    between atoms: N_24  and  C_25
REMARK    8  A    between atoms: N_24  and  C_26
REMARK                            x       y       z     vdW  Elec       q    Type
REMARK                         _______ _______ _______ _____ _____    ______ ____
ROOT
ATOM      1  C   UNL     1       0.124  -3.456   4.643  0.00  0.00    -0.004 C 
ATOM      2  C   UNL     1      -1.000  -3.080   5.611  0.00  0.00    -0.005 C 
ENDROOT
BRANCH   1  13
ATOM      3  C   UNL     1       0.287   1.556   0.194  0.00  0.00    +0.045 C 
ATOM      4  C   UNL     1       0.177   0.054   0.161  0.00  0.00    -0.026 A 
ATOM      5  C   UNL     1       0.082  -0.594  -1.011  0.00  0.00    -0.008 A 
ATOM      6  S   UNL     1      -0.023  -2.307  -0.528  0.00  0.00    -0.073 S 
ATOM      7  C   UNL     1       0.064  -2.103   1.232  0.00  0.00    +0.116 A 
ATOM      8  C   UNL     1       0.177  -0.710   1.394  0.00  0.00    +0.075 A 
ATOM      9  C   UNL     1       0.272  -0.250   2.748  0.00  0.00    +0.260 A 
ATOM     10  O   UNL     1       0.369   0.940   2.992  0.00  0.00    -0.267 OA
ATOM     11  N   UNL     1       0.251  -1.153   3.746  0.00  0.00    -0.312 N 
ATOM     12  H   UNL     1       0.315  -0.848   4.665  0.00  0.00    +0.170 HD
ATOM     13  C   UNL     1       0.143  -2.483   3.493  0.00  0.00    +0.097 A 
ATOM     14  N   UNL     1       0.046  -2.933   2.271  0.00  0.00    -0.228 NA
ATOM     15  C   UNL     1       0.066  -0.013  -2.402  0.00  0.00    +0.052 C 
ENDBRANCH   1  13
BRANCH   1  16
ATOM     16  N   UNL     1      -0.103  -4.814   4.132  0.00  0.00    +0.386 N 
ATOM     17  C   UNL     1      -0.277  -5.737   5.260  0.00  0.00    -0.077 C 
ATOM     18  C   UNL     1      -0.595  -7.138   4.733  0.00  0.00    -0.006 C 
ATOM     19  C   UNL     1       0.561  -7.620   3.851  0.00  0.00    +0.072 C 
ATOM     20  C   UNL     1       0.782  -6.611   2.720  0.00  0.00    -0.006 C 
ATOM     21  C   UNL     1       1.048  -5.229   3.322  0.00  0.00    -0.077 C 
ATOM     22  H   UNL     1      -0.935  -4.823   3.562  0.00  0.00    -0.081 HD
BRANCH  19  23
ATOM     23  C   UNL     1       0.221  -8.966   3.265  0.00  0.00    +0.218 C 
ATOM     24  O   UNL     1      -0.932  -9.242   3.007  0.00  0.00    -0.275 OA
ATOM     25  N   UNL     1       1.197  -9.865   3.029  0.00  0.00    -0.307 N 
ATOM     26  C   UNL     1       0.856 -11.216   2.578  0.00  0.00    +0.131 C 
ATOM     27  C   UNL     1       2.600  -9.490   3.224  0.00  0.00    +0.131 C 
ENDBRANCH  19  23
ENDBRANCH   1  16
TORSDOF 3
