REMARK  Name = ZINC21231154
REMARK  4 active torsions:
REMARK  status: ('A' for Active; 'I' for Inactive)
REMARK    1  A    between atoms: C_1  and  O_2
REMARK    2  A    between atoms: O_2  and  C_3
REMARK    3  A    between atoms: C_7  and  C_9
REMARK    4  A    between atoms: C_14  and  C_24
REMARK                            x       y       z     vdW  Elec       q    Type
REMARK                         _______ _______ _______ _____ _____    ______ ____
ROOT
ATOM      1  C   UNL     1       2.753   3.366  -3.663  0.00  0.00    +0.032 C 
ATOM      2  C   UNL     1       1.292   3.701  -3.375  0.00  0.00    +0.059 C 
ATOM      3  C   UNL     1       0.785   2.855  -2.217  0.00  0.00    +0.017 C 
ATOM      4  C   UNL     1       1.614   2.501  -1.223  0.00  0.00    +0.036 C 
ATOM      5  C   UNL     1       1.239   1.695  -0.001  0.00  0.00    +0.138 C 
ATOM      6  N   UNL     1      -0.067   1.076  -0.075  0.00  0.00    -0.331 N 
ATOM      7  C   UNL     1      -1.224   1.847  -0.145  0.00  0.00    +0.049 A 
ATOM      8  C   UNL     1      -2.145   1.852   0.898  0.00  0.00    +0.025 A 
ATOM      9  C   UNL     1      -3.253   2.677   0.821  0.00  0.00    +0.002 A 
ATOM     10  C   UNL     1      -3.443   3.495  -0.278  0.00  0.00    +0.002 A 
ATOM     11  C   UNL     1      -2.539   3.476  -1.326  0.00  0.00    +0.025 A 
ATOM     12  C   UNL     1      -1.444   2.633  -1.260  0.00  0.00    +0.052 A 
ATOM     13  N   UNL     1      -0.528   2.518  -2.302  0.00  0.00    -0.316 N 
ATOM     14  C   UNL     1       2.977   2.880  -1.260  0.00  0.00    +0.163 C 
ATOM     15  O   UNL     1       3.700   2.557  -0.338  0.00  0.00    -0.292 OA
ATOM     16  C   UNL     1       3.561   3.666  -2.395  0.00  0.00    +0.088 C 
ATOM     17  H   UNL     1      -0.157  -0.020  -0.077  0.00  0.00    +0.147 HD
ATOM     18  H   UNL     1      -0.935   2.123  -3.244  0.00  0.00    +0.152 HD
ENDROOT
BRANCH   5  19
ATOM     19  C   UNL     1       1.270   2.607   1.198  0.00  0.00    +0.002 A 
ATOM     20  C   UNL     1       1.187   3.947   1.185  0.00  0.00    +0.089 A 
ATOM     21  N   UNL     1       1.246   4.431   2.463  0.00  0.00    -0.360 N 
ATOM     22  H   UNL     1       1.186   5.514   2.645  0.00  0.00    +0.165 HD
ATOM     23  C   UNL     1       1.380   3.389   3.353  0.00  0.00    +0.047 A 
ATOM     24  C   UNL     1       1.401   2.200   2.600  0.00  0.00    +0.005 A 
ATOM     25  C   UNL     1       1.529   0.969   3.244  0.00  0.00    +0.010 A 
ATOM     26  C   UNL     1       1.635   0.924   4.606  0.00  0.00    +0.001 A 
ATOM     27  C   UNL     1       1.615   2.093   5.354  0.00  0.00    +0.002 A 
ATOM     28  C   UNL     1       1.489   3.319   4.738  0.00  0.00    +0.026 A 
ENDBRANCH   5  19
BRANCH   1  33
ATOM     29  C   UNL     1       4.224   4.393  -6.989  0.00  0.00    +0.120 A 
ATOM     30  C   UNL     1       4.184   5.776  -6.891  0.00  0.00    +0.045 A 
ATOM     31  C   UNL     1       3.683   6.373  -5.751  0.00  0.00    +0.004 A 
ATOM     32  C   UNL     1       3.220   5.592  -4.707  0.00  0.00    +0.004 A 
ATOM     33  C   UNL     1       3.258   4.213  -4.803  0.00  0.00    -0.040 A 
ATOM     34  C   UNL     1       3.764   3.612  -5.939  0.00  0.00    +0.049 A 
BRANCH  29  36
ATOM     35  C   UNL     1       5.179   4.670  -9.149  0.00  0.00    +0.277 C 
ATOM     36  O   UNL     1       4.717   3.804  -8.110  0.00  0.00    -0.495 OA
ENDBRANCH  29  36
ENDBRANCH   1  33
TORSDOF 3
