REMARK  Name = ZINC58866802
REMARK  10 active torsions:
REMARK  status: ('A' for Active; 'I' for Inactive)
REMARK    1  A    between atoms: C_4  and  N_7
REMARK    2  A    between atoms: N_7  and  C_8
REMARK    3  A    between atoms: C_14  and  C_16
REMARK    4  A    between atoms: C_16  and  N_17
REMARK    5  A    between atoms: N_17  and  C_18
REMARK    6  A    between atoms: C_18  and  C_19
REMARK    7  A    between atoms: C_19  and  N_20
REMARK    8  A    between atoms: N_20  and  C_21
REMARK    9  A    between atoms: C_24  and  C_30
REMARK   10  A    between atoms: C_26  and  N_27
REMARK                            x       y       z     vdW  Elec       q    Type
REMARK                         _______ _______ _______ _____ _____    ______ ____
ROOT
ATOM      1  N   UNL     1       6.722   2.233   1.017  0.00  0.00    +0.386 N 
ATOM      2  H   UNL     1       7.366   2.069   1.776  0.00  0.00    -0.085 HD
ATOM      3  H   UNL     1       7.068   1.788   0.180  0.00  0.00    -0.085 HD
ENDROOT
BRANCH   1   4
ATOM      4  C   UNL     1       5.408   1.672   1.362  0.00  0.00    +0.016 C 
BRANCH   4   6
ATOM      5  N   UNL     1       4.483  -0.519   2.039  0.00  0.00    -0.242 N 
ATOM      6  C   UNL     1       5.540   0.190   1.598  0.00  0.00    +0.207 C 
ATOM      7  O   UNL     1       6.599  -0.365   1.392  0.00  0.00    -0.277 OA
BRANCH   5  11
ATOM      8  C   UNL     1       0.760   1.314   2.422  0.00  0.00    +0.000 A 
ATOM      9  C   UNL     1       1.447   0.905   3.550  0.00  0.00    +0.002 A 
ATOM     10  C   UNL     1       2.681   0.297   3.427  0.00  0.00    +0.024 A 
ATOM     11  C   UNL     1       3.232   0.096   2.168  0.00  0.00    +0.041 A 
ATOM     12  C   UNL     1       2.539   0.507   1.036  0.00  0.00    +0.024 A 
ATOM     13  C   UNL     1       1.305   1.115   1.167  0.00  0.00    +0.002 A 
ENDBRANCH   5  11
BRANCH   5  14
ATOM     14  C   UNL     1       4.635  -1.872   2.368  0.00  0.00    +0.041 A 
ATOM     15  C   UNL     1       5.399  -2.239   3.468  0.00  0.00    +0.024 A 
ATOM     16  C   UNL     1       5.546  -3.573   3.791  0.00  0.00    +0.002 A 
ATOM     17  C   UNL     1       4.934  -4.544   3.019  0.00  0.00    +0.000 A 
ATOM     18  C   UNL     1       4.173  -4.182   1.923  0.00  0.00    +0.002 A 
ATOM     19  C   UNL     1       4.017  -2.849   1.599  0.00  0.00    +0.024 A 
ENDBRANCH   5  14
ENDBRANCH   4   6
ENDBRANCH   1   4
BRANCH   1  20
ATOM     20  C   UNL     1       6.593   3.678   0.787  0.00  0.00    -0.063 C 
BRANCH  20  21
ATOM     21  C   UNL     1       7.961   4.261   0.428  0.00  0.00    +0.082 C 
BRANCH  21  22
ATOM     22  N   UNL     1       7.832   5.702   0.198  0.00  0.00    -0.344 N 
ATOM     23  H   UNL     1       6.967   6.132   0.284  0.00  0.00    +0.146 HD
BRANCH  22  24
ATOM     24  C   UNL     1       8.956   6.458  -0.145  0.00  0.00    +0.058 A 
ATOM     25  C   UNL     1      10.183   5.834  -0.334  0.00  0.00    +0.026 A 
ATOM     26  C   UNL     1      11.291   6.584  -0.674  0.00  0.00    +0.014 A 
ATOM     27  C   UNL     1      11.181   7.954  -0.826  0.00  0.00    +0.057 A 
ATOM     28  C   UNL     1       9.961   8.578  -0.639  0.00  0.00    +0.047 A 
ATOM     29  C   UNL     1       8.847   7.833  -0.304  0.00  0.00    +0.147 A 
BRANCH  27  30
ATOM     30  C   UNL     1      12.393   8.769  -1.197  0.00  0.00    +0.417 C 
ATOM     31  F   UNL     1      13.500   7.925  -1.331  0.00  0.00    -0.166 F 
ATOM     32  F   UNL     1      12.159   9.428  -2.409  0.00  0.00    -0.166 F 
ATOM     33  F   UNL     1      12.645   9.713  -0.195  0.00  0.00    -0.166 F 
ENDBRANCH  27  30
BRANCH  29  34
ATOM     34  N   UNL     1       7.541   8.501  -0.109  0.00  0.00    +0.058 N 
ATOM     35  O   UNL     1       6.526   7.969  -0.496  0.00  0.00    -0.126 OA
ATOM     36  O   UNL     1       7.488   9.578   0.437  0.00  0.00    -0.126 OA
ENDBRANCH  29  34
ENDBRANCH  22  24
ENDBRANCH  21  22
ENDBRANCH  20  21
ENDBRANCH   1  20
TORSDOF 10
