REMARK  Name = ZINC20076219
REMARK  10 active torsions:
REMARK  status: ('A' for Active; 'I' for Inactive)
REMARK    1  A    between atoms: C_7  and  C_19
REMARK    2  A    between atoms: N_9  and  C_10
REMARK    3  A    between atoms: C_10  and  C_11
REMARK    4  A    between atoms: C_20  and  C_21
REMARK    5  A    between atoms: C_20  and  C_23
REMARK    6  A    between atoms: C_24  and  C_32
REMARK    7  A    between atoms: C_25  and  N_31
REMARK    8  A    between atoms: N_26  and  C_28
REMARK    9  A    between atoms: C_28  and  C_29
REMARK   10  A    between atoms: C_29  and  O_30
REMARK                            x       y       z     vdW  Elec       q    Type
REMARK                         _______ _______ _______ _____ _____    ______ ____
ROOT
ATOM      1  C   UNL     1       2.014   0.137   1.193  0.00  0.00    +0.001 A 
ATOM      2  C   UNL     1       0.761  -0.451   1.296  0.00  0.00    +0.002 A 
ATOM      3  C   UNL     1      -0.381   0.283   1.060  0.00  0.00    +0.026 A 
ATOM      4  C   UNL     1      -0.283   1.627   0.715  0.00  0.00    +0.050 A 
ATOM      5  C   UNL     1       0.985   2.221   0.612  0.00  0.00    +0.007 A 
ATOM      6  C   UNL     1       2.131   1.467   0.853  0.00  0.00    +0.010 A 
ATOM      7  C   UNL     1       0.745   3.627   0.236  0.00  0.00    +0.002 A 
ATOM      8  C   UNL     1      -0.611   3.776   0.143  0.00  0.00    +0.095 A 
ATOM      9  N   UNL     1      -1.221   2.595   0.421  0.00  0.00    -0.342 N 
ENDROOT
BRANCH   7  10
ATOM     10  C   UNL     1       1.756   4.658   0.010  0.00  0.00    +0.031 C 
ATOM     11  C   UNL     1       1.428   5.802  -0.660  0.00  0.00    +0.081 C 
BRANCH  11  12
ATOM     12  C   UNL     1       2.404   6.910  -0.756  0.00  0.00    +0.122 A 
ATOM     13  C   UNL     1       2.201   8.195  -1.437  0.00  0.00    +0.119 A 
ATOM     14  C   UNL     1       3.380   8.915  -1.266  0.00  0.00    +0.133 A 
ATOM     15  N   UNL     1       4.227   8.148  -0.550  0.00  0.00    -0.247 N 
ATOM     16  N   UNL     1       3.614   6.931  -0.243  0.00  0.00    -0.167 NA
BRANCH  14  17
ATOM     17  N   UNL     1       3.636  10.186  -1.745  0.00  0.00    -0.342 N 
ATOM     18  H   UNL     1       4.608  10.661  -1.550  0.00  0.00    +0.144 HD
ATOM     19  H   UNL     1       2.867  10.722  -2.321  0.00  0.00    +0.144 HD
ENDBRANCH  14  17
BRANCH  13  20
ATOM     20  C   UNL     1       1.027   8.621  -2.136  0.00  0.00    +0.105 C 
ATOM     21  N   UNL     1       0.095   8.959  -2.691  0.00  0.00    -0.191 NA
ENDBRANCH  13  20
BRANCH  15  22
ATOM     22  C   UNL     1       5.582   8.536  -0.150  0.00  0.00    +0.173 C 
BRANCH  22  23
ATOM     23  C   UNL     1       5.532   9.235   1.210  0.00  0.00    +0.179 C 
BRANCH  23  24
ATOM     24  O   UNL     1       6.854   9.612   1.600  0.00  0.00    -0.393 OA
ATOM     25  H   UNL     1       7.018  10.130   2.557  0.00  0.00    +0.209 HD
ENDBRANCH  23  24
ENDBRANCH  22  23
ENDBRANCH  15  22
ENDBRANCH  11  12
BRANCH  11  26
ATOM     26  C   UNL     1       0.138   5.930  -1.269  0.00  0.00    +0.101 C 
ATOM     27  N   UNL     1      -0.885   6.031  -1.752  0.00  0.00    -0.191 NA
ENDBRANCH  11  26
ENDBRANCH   7  10
BRANCH   9  28
ATOM     28  C   UNL     1      -2.670   2.380   0.411  0.00  0.00    +0.158 C 
BRANCH  28  29
ATOM     29  C   UNL     1      -3.211   2.544   1.808  0.00  0.00    -0.009 A 
ATOM     30  C   UNL     1      -3.390   1.436   2.615  0.00  0.00    +0.008 A 
ATOM     31  C   UNL     1      -3.881   1.586   3.898  0.00  0.00    +0.020 A 
ATOM     32  C   UNL     1      -4.205   2.845   4.372  0.00  0.00    +0.042 A 
ATOM     33  C   UNL     1      -4.032   3.954   3.563  0.00  0.00    +0.040 A 
ATOM     34  C   UNL     1      -3.535   3.803   2.281  0.00  0.00    +0.047 A 
ATOM     35 CL   UNL     1      -3.317   5.194   1.266  0.00  0.00    -0.083 Cl
ATOM     36 CL   UNL     1      -4.829   3.032   5.981  0.00  0.00    -0.083 Cl
ENDBRANCH  28  29
ENDBRANCH   9  28
TORSDOF 10
