REMARK  Name = ZINC13412979
REMARK  8 active torsions:
REMARK  status: ('A' for Active; 'I' for Inactive)
REMARK    1  A    between atoms: CG_4  and  CB_7
REMARK    2  A    between atoms: CB_7  and  CA_8
REMARK    3  A    between atoms: CA_8  and  C_10
REMARK    4  A    between atoms: CA_8  and  N_12
REMARK    5  A    between atoms: C_13  and  C_15
REMARK    6  A    between atoms: C_15  and  S_16
REMARK    7  A    between atoms: S_16  and  C_17
REMARK    8  A    between atoms: N_27  and  C_28
REMARK                            x       y       z     vdW  Elec       q    Type
REMARK                         _______ _______ _______ _____ _____    ______ ____
ROOT
ATOM      1  C   UNK A   0      -1.014  -2.038  -0.497  0.00  0.00    +0.177 A 
ATOM      2  N   UNK A   0      -1.025  -0.729  -0.522  0.00  0.00    -0.223 NA
ATOM      3  C   UNK A   0       0.016  -0.004  -0.063  0.00  0.00    +0.079 A 
ATOM      4  C   UNK A   0       0.004   1.393  -0.089  0.00  0.00    +0.028 A 
ATOM      5  C   UNK A   0       1.080   2.088   0.386  0.00  0.00    +0.002 A 
ATOM      6  C   UNK A   0       2.189   1.426   0.897  0.00  0.00    +0.001 A 
ATOM      7  C   UNK A   0       2.231   0.060   0.936  0.00  0.00    +0.015 A 
ATOM      8  C   UNK A   0       1.147  -0.674   0.457  0.00  0.00    +0.065 A 
ATOM      9  C   UNK A   0       1.136  -2.143   0.474  0.00  0.00    +0.267 A 
ATOM     10  O   UNK A   0       2.081  -2.776   0.910  0.00  0.00    -0.267 OA
ATOM     11  N   UNK A   0       0.038  -2.766  -0.012  0.00  0.00    -0.255 N 
ENDROOT
BRANCH  11  12
ATOM     12  C   UNK A   0      -0.023  -4.166  -0.019  0.00  0.00    +0.052 A 
ATOM     13  C   UNK A   0      -0.545  -4.845   1.075  0.00  0.00    +0.028 A 
ATOM     14  C   UNK A   0      -0.609  -6.224   1.063  0.00  0.00    +0.022 A 
ATOM     15  C   UNK A   0      -0.142  -6.931  -0.031  0.00  0.00    +0.041 A 
ATOM     16  C   UNK A   0       0.383  -6.257  -1.120  0.00  0.00    +0.022 A 
ATOM     17  C   UNK A   0       0.444  -4.877  -1.116  0.00  0.00    +0.028 A 
ATOM     18 CL   UNK A   0      -0.217  -8.665  -0.039  0.00  0.00    -0.084 Cl
ENDBRANCH  11  12
BRANCH   1  19
ATOM     19  S   UNK A   0      -2.418  -2.902  -1.118  0.00  0.00    -0.078 S 
BRANCH  19  20
ATOM     20  C   UNK A   0      -3.457  -1.503  -1.608  0.00  0.00    +0.173 C 
BRANCH  20  22
ATOM     21  N   PHE A   1      -5.686  -1.148  -2.619  0.00  0.00    -0.301 N 
ATOM     22  C   UNK A   0      -4.751  -2.016  -2.185  0.00  0.00    +0.224 C 
ATOM     23  O   UNK A   0      -4.952  -3.210  -2.257  0.00  0.00    -0.275 OA
ATOM     24  H   PHE A   1      -5.525  -0.193  -2.561  0.00  0.00    +0.150 HD
BRANCH  21  25
ATOM     25  CA  PHE A   1      -6.944  -1.646  -3.180  0.00  0.00    +0.191 C 
BRANCH  25  26
ATOM     26  C   PHE A   1      -7.920  -1.914  -2.064  0.00  0.00    +0.376 C 
ATOM     27  O   PHE A   1      -7.598  -1.710  -0.917  0.00  0.00    -0.244 OA
ATOM     28  OXT PHE A   1      -9.148  -2.380  -2.343  0.00  0.00    -0.244 OA
ENDBRANCH  25  26
BRANCH  25  29
ATOM     29  CB  PHE A   1      -7.530  -0.599  -4.129  0.00  0.00    +0.069 C 
BRANCH  29  33
ATOM     30  CZ  PHE A   1      -4.924  -0.093  -7.476  0.00  0.00    +0.000 A 
ATOM     31  CE1 PHE A   1      -5.934  -1.036  -7.522  0.00  0.00    +0.000 A 
ATOM     32  CD1 PHE A   1      -6.777  -1.200  -6.439  0.00  0.00    +0.004 A 
ATOM     33  CG  PHE A   1      -6.611  -0.420  -5.310  0.00  0.00    -0.045 A 
ATOM     34  CD2 PHE A   1      -5.605   0.527  -5.266  0.00  0.00    +0.004 A 
ATOM     35  CE2 PHE A   1      -4.758   0.687  -6.347  0.00  0.00    +0.000 A 
ENDBRANCH  29  33
ENDBRANCH  25  29
ENDBRANCH  21  25
ENDBRANCH  20  22
ENDBRANCH  19  20
ENDBRANCH   1  19
TORSDOF 8
