REMARK  Name = ZINC46910700
REMARK  5 active torsions:
REMARK  status: ('A' for Active; 'I' for Inactive)
REMARK    1  A    between atoms: C_1  and  C_2
REMARK    2  A    between atoms: C_5  and  O_9
REMARK    3  A    between atoms: O_9  and  C_10
REMARK    4  A    between atoms: C_10  and  C_12
REMARK    5  A    between atoms: C_10  and  C_13
REMARK                            x       y       z     vdW  Elec       q    Type
REMARK                         _______ _______ _______ _____ _____    ______ ____
ROOT
ATOM      1  C   UNL     1       0.612  -6.130  -1.223  0.00  0.00    +0.256 C 
ATOM      2  O   UNL     1       1.101  -6.510  -0.181  0.00  0.00    -0.272 OA
ATOM      3  N   UNL     1       0.651  -6.921  -2.314  0.00  0.00    -0.294 N 
ATOM      4  C   UNL     1       0.156  -6.441  -3.613  0.00  0.00    +0.114 C 
ATOM      5  C   UNL     1       1.326  -6.376  -4.601  0.00  0.00    +0.072 C 
ATOM      6  C   UNL     1       2.132  -7.649  -4.494  0.00  0.00    +0.023 A 
ATOM      7  C   UNL     1       2.074  -8.496  -3.443  0.00  0.00    -0.002 A 
ATOM      8  C   UNL     1       2.990  -9.583  -3.717  0.00  0.00    +0.005 A 
ATOM      9  C   UNL     1       3.346 -10.729  -2.999  0.00  0.00    +0.010 A 
ATOM     10  C   UNL     1       4.271 -11.562  -3.578  0.00  0.00    +0.001 A 
ATOM     11  C   UNL     1       4.834 -11.290  -4.814  0.00  0.00    +0.002 A 
ATOM     12  C   UNL     1       4.500 -10.164  -5.546  0.00  0.00    +0.026 A 
ATOM     13  C   UNL     1       3.563  -9.300  -4.983  0.00  0.00    +0.047 A 
ATOM     14  N   UNL     1       3.021  -8.127  -5.422  0.00  0.00    -0.358 N 
ATOM     15  H   UNL     1       3.233  -7.695  -6.264  0.00  0.00    +0.166 HD
ATOM     16  C   UNL     1       1.195  -8.288  -2.239  0.00  0.00    +0.145 C 
ENDROOT
BRANCH   1  17
ATOM     17  C   UNL     1      -0.039  -4.773  -1.299  0.00  0.00    +0.256 C 
ATOM     18  C   UNL     1      -1.547  -4.941  -1.501  0.00  0.00    +0.062 C 
BRANCH  17  19
ATOM     19  O   UNL     1       0.202  -4.060  -0.085  0.00  0.00    -0.479 OA
BRANCH  19  24
ATOM     20  C   UNL     1      -0.130   1.559  -0.309  0.00  0.00    +0.044 C 
ATOM     21  C   UNL     1      -0.041   0.056  -0.249  0.00  0.00    -0.049 A 
ATOM     22  C   UNL     1      -0.209  -0.692  -1.399  0.00  0.00    +0.007 A 
ATOM     23  C   UNL     1      -0.128  -2.071  -1.347  0.00  0.00    +0.047 A 
ATOM     24  C   UNL     1       0.123  -2.704  -0.139  0.00  0.00    +0.136 A 
ATOM     25  C   UNL     1       0.292  -1.951   1.015  0.00  0.00    +0.060 A 
ATOM     26  C   UNL     1       0.215  -0.572   0.956  0.00  0.00    +0.022 A 
ATOM     27 BR   UNL     1       0.634  -2.811   2.664  0.00  0.00    -0.047 Br
ENDBRANCH  19  24
ENDBRANCH  17  19
ENDBRANCH   1  17
TORSDOF 3
