REMARK  Name = ZINC36155590
REMARK  11 active torsions:
REMARK  status: ('A' for Active; 'I' for Inactive)
REMARK    1  A    between atoms: C_1  and  C_2
REMARK    2  A    between atoms: C_2  and  O_3
REMARK    3  A    between atoms: O_3  and  C_4
REMARK    4  A    between atoms: C_4  and  C_6
REMARK    5  A    between atoms: C_7  and  C_22
REMARK    6  A    between atoms: C_12  and  C_14
REMARK    7  A    between atoms: C_17  and  O_20
REMARK    8  A    between atoms: O_20  and  C_21
REMARK    9  A    between atoms: C_22  and  N_23
REMARK   10  A    between atoms: C_25  and  C_32
REMARK   11  A    between atoms: C_28  and  C_31
REMARK                            x       y       z     vdW  Elec       q    Type
REMARK                         _______ _______ _______ _____ _____    ______ ____
ROOT
ATOM      1  C   UNL     1       1.349  -2.336  -2.519  0.00  0.00    +0.076 C 
ATOM      2  C   UNL     1       1.628  -3.654  -2.615  0.00  0.00    +0.008 C 
ATOM      3  N   UNL     1       2.333  -4.150  -3.674  0.00  0.00    -0.274 N 
ATOM      4  C   UNL     1       2.795  -3.394  -4.678  0.00  0.00    +0.304 C 
ATOM      5  O   UNL     1       3.413  -3.927  -5.579  0.00  0.00    -0.252 OA
ATOM      6  N   UNL     1       2.596  -2.062  -4.722  0.00  0.00    -0.288 N 
ATOM      7  C   UNL     1       1.841  -1.429  -3.628  0.00  0.00    +0.143 C 
ATOM      8  H   UNL     1       2.509  -5.104  -3.701  0.00  0.00    +0.156 HD
ATOM      9  H   UNL     1       2.940  -1.533  -5.459  0.00  0.00    +0.151 HD
ENDROOT
BRANCH   7  10
ATOM     10  C   UNL     1       0.643  -0.735  -4.225  0.00  0.00    -0.022 A 
ATOM     11  C   UNL     1      -0.157  -1.399  -5.136  0.00  0.00    +0.009 A 
ATOM     12  C   UNL     1      -1.254  -0.765  -5.685  0.00  0.00    +0.046 A 
ATOM     13  C   UNL     1      -1.554   0.540  -5.321  0.00  0.00    +0.120 A 
ATOM     14  C   UNL     1      -0.750   1.204  -4.406  0.00  0.00    +0.046 A 
ATOM     15  C   UNL     1       0.344   0.564  -3.857  0.00  0.00    +0.009 A 
BRANCH  13  16
ATOM     16  O   UNL     1      -2.633   1.166  -5.860  0.00  0.00    -0.495 OA
ATOM     17  C   UNL     1      -2.881   2.509  -5.439  0.00  0.00    +0.277 C 
ENDBRANCH  13  16
ENDBRANCH   7  10
BRANCH   1  18
ATOM     18  C   UNL     1       0.619  -1.821  -1.422  0.00  0.00    +0.339 C 
ATOM     19  O   UNL     1      -0.569  -1.582  -1.541  0.00  0.00    -0.245 OA
BRANCH  18  20
ATOM     20  O   UNL     1       1.238  -1.595  -0.245  0.00  0.00    -0.462 OA
BRANCH  20  22
ATOM     21  C   UNL     1       1.309  -0.885   2.064  0.00  0.00    +0.048 C 
ATOM     22  C   UNL     1       0.439  -1.075   0.819  0.00  0.00    +0.229 C 
ENDBRANCH  20  22
ENDBRANCH  18  20
ENDBRANCH   1  18
BRANCH   2  23
ATOM     23  C   UNL     1       1.153  -4.593  -1.536  0.00  0.00    -0.026 C 
BRANCH  23  24
ATOM     24  N   UNL     1       0.182  -5.539  -2.102  0.00  0.00    +0.384 N 
ATOM     25  C   UNL     1      -1.011  -4.808  -2.544  0.00  0.00    -0.075 C 
ATOM     26  C   UNL     1      -1.991  -5.777  -3.208  0.00  0.00    -0.031 C 
ATOM     27  C   UNL     1      -2.397  -6.855  -2.199  0.00  0.00    +0.003 C 
ATOM     28  C   UNL     1      -1.138  -7.562  -1.689  0.00  0.00    -0.031 C 
ATOM     29  C   UNL     1      -0.189  -6.526  -1.081  0.00  0.00    -0.075 C 
ATOM     30  C   UNL     1      -1.525  -8.589  -0.623  0.00  0.00    +0.005 C 
ATOM     31  C   UNL     1      -3.235  -5.012  -3.667  0.00  0.00    +0.005 C 
ATOM     32  H   UNL     1       0.596  -6.012  -2.891  0.00  0.00    -0.081 HD
ENDBRANCH  23  24
ENDBRANCH   2  23
TORSDOF 7
