REMARK  Name = ZINC40315537
REMARK  17 active torsions:
REMARK  status: ('A' for Active; 'I' for Inactive)
REMARK    1  A    between atoms: C_1  and  C_2
REMARK    2  A    between atoms: C_5  and  O_9
REMARK    3  A    between atoms: C_6  and  C_8
REMARK    4  A    between atoms: O_9  and  C_10
REMARK    5  A    between atoms: C_10  and  C_11
REMARK    6  A    between atoms: C_11  and  C_13
REMARK    7  A    between atoms: C_11  and  O_36
REMARK    8  A    between atoms: C_13  and  N_14
REMARK    9  A    between atoms: N_14  and  C_15
REMARK   10  A    between atoms: N_14  and  C_28
REMARK   11  A    between atoms: C_15  and  C_16
REMARK   12  A    between atoms: C_18  and  O_26
REMARK   13  A    between atoms: C_19  and  O_24
REMARK   14  A    between atoms: C_20  and  O_22
REMARK   15  A    between atoms: O_22  and  C_23
REMARK   16  A    between atoms: O_24  and  C_25
REMARK   17  A    between atoms: O_26  and  C_27
REMARK                            x       y       z     vdW  Elec       q    Type
REMARK                         _______ _______ _______ _____ _____    ______ ____
ROOT
ATOM      1  N   UNL     1       0.505  -8.596  -2.412  0.00  0.00    +0.387 N 
ATOM      2  H   UNL     1       1.293  -9.211  -2.272  0.00  0.00    -0.081 HD
ENDROOT
BRANCH   1   3
ATOM      3  C   UNL     1      -0.493  -8.835  -1.361  0.00  0.00    -0.045 C 
ATOM      4  C   UNL     1      -0.653 -10.347  -1.129  0.00  0.00    +0.009 C 
ATOM      5  C   UNL     1      -1.911 -10.619  -0.271  0.00  0.00    +0.164 C 
ATOM      6  S   UNL     1      -2.998  -9.194  -0.683  0.00  0.00    -0.033 S 
ATOM      7  O   UNL     1      -3.218  -8.425   0.491  0.00  0.00    -0.174 OA
ATOM      8  O   UNL     1      -4.112  -9.664  -1.431  0.00  0.00    -0.174 OA
ATOM      9  C   UNL     1      -1.871  -8.265  -1.806  0.00  0.00    +0.151 C 
ENDBRANCH   1   3
BRANCH   1  10
ATOM     10  C   UNL     1       0.957  -7.200  -2.350  0.00  0.00    -0.043 C 
BRANCH  10  11
ATOM     11  C   UNL     1       1.722  -6.968  -1.045  0.00  0.00    +0.135 C 
BRANCH  11  12
ATOM     12  O   UNL     1       2.856  -7.836  -0.998  0.00  0.00    -0.390 OA
ATOM     13  H   UNL     1       3.482  -7.705  -1.723  0.00  0.00    +0.210 HD
ENDBRANCH  11  12
BRANCH  11  14
ATOM     14  C   UNL     1       2.190  -5.513  -0.980  0.00  0.00    +0.258 C 
BRANCH  14  15
ATOM     15  O   UNL     1       2.802  -5.266   0.287  0.00  0.00    -0.489 OA
BRANCH  15  20
ATOM     16  C   UNL     1       4.764  -0.067   1.210  0.00  0.00    +0.044 C 
ATOM     17  C   UNL     1       4.239  -1.458   0.963  0.00  0.00    -0.050 A 
ATOM     18  C   UNL     1       3.636  -1.765  -0.243  0.00  0.00    +0.007 A 
ATOM     19  C   UNL     1       3.154  -3.039  -0.472  0.00  0.00    +0.046 A 
ATOM     20  C   UNL     1       3.276  -4.012   0.510  0.00  0.00    +0.124 A 
ATOM     21  C   UNL     1       3.882  -3.702   1.718  0.00  0.00    -0.009 A 
ATOM     22  C   UNL     1       4.367  -2.428   1.940  0.00  0.00    +0.010 A 
ATOM     23  C   UNL     1       4.015  -4.756   2.787  0.00  0.00    +0.047 C 
ENDBRANCH  15  20
ENDBRANCH  14  15
ENDBRANCH  11  14
ENDBRANCH  10  11
ENDBRANCH   1  10
BRANCH   1  24
ATOM     24  C   UNL     1      -0.095  -8.859  -3.726  0.00  0.00    -0.042 C 
BRANCH  24  25
ATOM     25  C   UNL     1      -0.387 -10.332  -3.860  0.00  0.00    -0.057 A 
ATOM     26  C   UNL     1       0.644 -11.249  -3.779  0.00  0.00    +0.051 A 
ATOM     27  C   UNL     1       0.380 -12.604  -3.902  0.00  0.00    +0.165 A 
ATOM     28  C   UNL     1      -0.924 -13.041  -4.106  0.00  0.00    +0.204 A 
ATOM     29  C   UNL     1      -1.958 -12.115  -4.186  0.00  0.00    +0.165 A 
ATOM     30  C   UNL     1      -1.686 -10.762  -4.057  0.00  0.00    +0.051 A 
BRANCH  29  31
ATOM     31  O   UNL     1      -3.236 -12.537  -4.385  0.00  0.00    -0.491 OA
ATOM     32  C   UNL     1      -4.230 -11.528  -4.574  0.00  0.00    +0.277 C 
ENDBRANCH  29  31
BRANCH  28  33
ATOM     33  O   UNL     1      -1.188 -14.370  -4.227  0.00  0.00    -0.488 OA
ATOM     34  C   UNL     1      -1.483 -15.085  -3.026  0.00  0.00    +0.277 C 
ENDBRANCH  28  33
BRANCH  27  35
ATOM     35  O   UNL     1       1.395 -13.506  -3.823  0.00  0.00    -0.491 OA
ATOM     36  C   UNL     1       2.709 -12.986  -3.613  0.00  0.00    +0.277 C 
ENDBRANCH  27  35
ENDBRANCH  24  25
ENDBRANCH   1  24
TORSDOF 12
