REMARK  Name = ZINC63743841
REMARK  8 active torsions:
REMARK  status: ('A' for Active; 'I' for Inactive)
REMARK    1  A    between atoms: C_1  and  C_2
REMARK    2  A    between atoms: C_2  and  O_3
REMARK    3  A    between atoms: O_3  and  C_4
REMARK    4  A    between atoms: C_4  and  C_6
REMARK    5  A    between atoms: C_6  and  C_7
REMARK    6  A    between atoms: C_10  and  N_13
REMARK    7  A    between atoms: N_16  and  C_17
REMARK    8  A    between atoms: C_20  and  C_23
REMARK                            x       y       z     vdW  Elec       q    Type
REMARK                         _______ _______ _______ _____ _____    ______ ____
ROOT
ATOM      1  N   UNL     1       1.371  -8.023   2.074  0.00  0.00    -0.269 N 
ATOM      2  C   UNL     1       2.307  -8.687   1.367  0.00  0.00    +0.308 C 
ATOM      3  O   UNL     1       3.146  -8.070   0.739  0.00  0.00    -0.252 OA
ATOM      4  N   UNL     1       2.312 -10.035   1.354  0.00  0.00    -0.269 N 
ATOM      5  H   UNL     1       0.749  -8.513   2.634  0.00  0.00    +0.156 HD
ATOM      6  H   UNL     1       1.600 -10.527   1.792  0.00  0.00    +0.156 HD
ENDROOT
BRANCH   1  10
ATOM      7  C   UNL     1       1.152  -3.869   1.857  0.00  0.00    -0.037 A 
ATOM      8  C   UNL     1       1.547  -4.598   0.750  0.00  0.00    +0.006 A 
ATOM      9  C   UNL     1       1.621  -5.975   0.819  0.00  0.00    +0.023 A 
ATOM     10  C   UNL     1       1.298  -6.628   2.002  0.00  0.00    +0.035 A 
ATOM     11  C   UNL     1       0.901  -5.893   3.111  0.00  0.00    +0.023 A 
ATOM     12  C   UNL     1       0.835  -4.515   3.038  0.00  0.00    +0.006 A 
BRANCH   7  13
ATOM     13  C   UNL     1       1.072  -2.366   1.778  0.00  0.00    +0.155 C 
BRANCH  13  14
ATOM     14  C   UNL     1       2.401  -1.771   2.167  0.00  0.00    +0.311 C 
ATOM     15  O   UNL     1       3.319  -2.494   2.477  0.00  0.00    -0.250 OA
BRANCH  14  16
ATOM     16  O   UNL     1       2.566  -0.439   2.170  0.00  0.00    -0.465 OA
BRANCH  16  18
ATOM     17  C   UNL     1       3.847   1.584   2.493  0.00  0.00    +0.048 C 
ATOM     18  C   UNL     1       3.852   0.055   2.549  0.00  0.00    +0.229 C 
ENDBRANCH  16  18
ENDBRANCH  14  16
ENDBRANCH  13  14
ENDBRANCH   7  13
ENDBRANCH   1  10
BRANCH   4  19
ATOM     19  C   UNL     1       3.345 -10.724   0.709  0.00  0.00    +0.035 A 
ATOM     20  C   UNL     1       4.629 -10.195   0.691  0.00  0.00    +0.024 A 
ATOM     21  C   UNL     1       5.647 -10.878   0.054  0.00  0.00    +0.008 A 
ATOM     22  C   UNL     1       5.388 -12.087  -0.565  0.00  0.00    -0.021 A 
ATOM     23  C   UNL     1       4.111 -12.616  -0.549  0.00  0.00    +0.008 A 
ATOM     24  C   UNL     1       3.090 -11.941   0.091  0.00  0.00    +0.024 A 
BRANCH  22  25
ATOM     25  C   UNL     1       6.501 -12.830  -1.259  0.00  0.00    +0.133 C 
ATOM     26  C   UNL     1       6.981 -13.975  -0.396  0.00  0.00    +0.012 C 
ATOM     27  C   UNL     1       6.762 -15.101  -1.111  0.00  0.00    -0.002 A 
ATOM     28  C   UNL     1       7.008 -16.521  -0.831  0.00  0.00    +0.029 A 
ATOM     29  C   UNL     1       6.674 -17.442  -1.765  0.00  0.00    +0.042 A 
ATOM     30  C   UNL     1       6.101 -17.074  -2.991  0.00  0.00    +0.022 A 
ATOM     31  C   UNL     1       5.845 -15.790  -3.320  0.00  0.00    +0.027 A 
ATOM     32  C   UNL     1       6.155 -14.740  -2.413  0.00  0.00    +0.043 A 
ATOM     33  N   UNL     1       6.006 -13.439  -2.499  0.00  0.00    -0.374 N 
ATOM     34 CL   UNL     1       6.965 -19.122  -1.438  0.00  0.00    -0.084 Cl
ATOM     35  H   UNL     1       5.631 -12.960  -3.255  0.00  0.00    +0.161 HD
ENDBRANCH  22  25
ENDBRANCH   4  19
TORSDOF 7
