REMARK  Name = ZINC59409182
REMARK  11 active torsions:
REMARK  status: ('A' for Active; 'I' for Inactive)
REMARK    1  A    between atoms: C_1  and  C_2
REMARK    2  A    between atoms: C_2  and  N_3
REMARK    3  A    between atoms: N_3  and  C_4
REMARK    4  A    between atoms: C_5  and  N_20
REMARK    5  A    between atoms: N_6  and  C_13
REMARK    6  A    between atoms: C_13  and  C_14
REMARK    7  A    between atoms: C_21  and  C_23
REMARK    8  A    between atoms: C_23  and  N_24
REMARK    9  A    between atoms: N_24  and  C_25
REMARK   10  A    between atoms: N_24  and  C_32
REMARK   11  A    between atoms: C_25  and  C_26
REMARK                            x       y       z     vdW  Elec       q    Type
REMARK                         _______ _______ _______ _____ _____    ______ ____
ROOT
ATOM      1  C   UNL     1       0.207  -2.390   2.271  0.00  0.00    +0.140 A 
ATOM      2  C   UNL     1      -0.780  -3.330   2.060  0.00  0.00    +0.128 A 
ATOM      3  N   UNL     1      -1.232  -4.080   3.121  0.00  0.00    -0.276 N 
ATOM      4  C   UNL     1      -0.718  -3.897   4.351  0.00  0.00    +0.331 A 
ATOM      5  O   UNL     1      -1.131  -4.570   5.276  0.00  0.00    -0.246 OA
ATOM      6  N   UNL     1       0.245  -2.986   4.576  0.00  0.00    -0.273 N 
ATOM      7  H   UNL     1       0.600  -2.874   5.472  0.00  0.00    +0.173 HD
ATOM      8  C   UNL     1       0.727  -2.230   3.570  0.00  0.00    +0.277 A 
ATOM      9  O   UNL     1       1.603  -1.410   3.783  0.00  0.00    -0.266 OA
ENDROOT
BRANCH   1  10
ATOM     10  N   UNL     1       0.692  -1.606   1.203  0.00  0.00    -0.266 N 
ATOM     11  C   UNL     1       1.964  -1.755   0.780  0.00  0.00    +0.203 C 
ATOM     12  O   UNL     1       2.661  -2.630   1.249  0.00  0.00    -0.277 OA
BRANCH  10  14
ATOM     13  C   UNL     1      -0.144   0.690   1.327  0.00  0.00    +0.025 C 
ATOM     14  C   UNL     1      -0.187  -0.630   0.554  0.00  0.00    +0.110 C 
ENDBRANCH  10  14
BRANCH  11  15
ATOM     15  C   UNL     1       2.520  -0.834  -0.276  0.00  0.00    +0.019 C 
BRANCH  15  16
ATOM     16  N   UNL     1       3.926  -1.173  -0.531  0.00  0.00    +0.387 N 
ATOM     17  H   UNL     1       4.006  -2.162  -0.714  0.00  0.00    -0.081 HD
BRANCH  16  18
ATOM     18  C   UNL     1       4.735  -0.826   0.645  0.00  0.00    -0.068 C 
ATOM     19  C   UNL     1       4.001  -0.267   1.867  0.00  0.00    -0.017 C 
ATOM     20  C   UNL     1       4.862   0.657   1.002  0.00  0.00    -0.017 C 
ENDBRANCH  16  18
BRANCH  16  21
ATOM     21  C   UNL     1       4.408  -0.419  -1.696  0.00  0.00    -0.074 C 
BRANCH  21  22
ATOM     22  C   UNL     1       5.844  -0.840  -2.017  0.00  0.00    -0.028 C 
ATOM     23  C   UNL     1       6.363  -0.020  -3.200  0.00  0.00    +0.002 C 
ATOM     24  C   UNL     1       7.799  -0.441  -3.521  0.00  0.00    +0.000 C 
ATOM     25  C   UNL     1       7.826  -1.927  -3.880  0.00  0.00    +0.000 C 
ATOM     26  C   UNL     1       7.307  -2.748  -2.697  0.00  0.00    +0.000 C 
ATOM     27  C   UNL     1       5.871  -2.327  -2.376  0.00  0.00    +0.002 C 
ENDBRANCH  21  22
ENDBRANCH  16  21
ENDBRANCH  15  16
ENDBRANCH  11  15
ENDBRANCH   1  10
BRANCH   2  28
ATOM     28  N   UNL     1      -1.306  -3.516   0.804  0.00  0.00    -0.343 N 
ATOM     29  H   UNL     1      -1.025  -2.946   0.071  0.00  0.00    +0.144 HD
ATOM     30  H   UNL     1      -1.959  -4.217   0.650  0.00  0.00    +0.144 HD
ENDBRANCH   2  28
BRANCH   3  31
ATOM     31  C   UNL     1      -2.280  -5.082   2.911  0.00  0.00    +0.163 C 
BRANCH  31  32
ATOM     32  C   UNL     1      -1.648  -6.406   2.569  0.00  0.00    -0.028 A 
ATOM     33  C   UNL     1      -1.390  -6.728   1.250  0.00  0.00    +0.005 A 
ATOM     34  C   UNL     1      -0.809  -7.943   0.936  0.00  0.00    +0.000 A 
ATOM     35  C   UNL     1      -0.487  -8.835   1.942  0.00  0.00    +0.000 A 
ATOM     36  C   UNL     1      -0.744  -8.512   3.261  0.00  0.00    +0.000 A 
ATOM     37  C   UNL     1      -1.320  -7.296   3.575  0.00  0.00    +0.005 A 
ENDBRANCH  31  32
ENDBRANCH   3  31
TORSDOF 10
