REMARK  Name = ZINC03670364
REMARK  11 active torsions:
REMARK  status: ('A' for Active; 'I' for Inactive)
REMARK    1  A    between atoms: C_1  and  C_2
REMARK    2  A    between atoms: C_2  and  C_3
REMARK    3  A    between atoms: C_6  and  N_9
REMARK    4  A    between atoms: C_19  and  C_20
REMARK    5  A    between atoms: C_19  and  O_33
REMARK    6  A    between atoms: N_22  and  C_23
REMARK    7  A    between atoms: C_23  and  C_24
REMARK    8  A    between atoms: C_24  and  N_64
REMARK    9  A    between atoms: C_25  and  N_64
REMARK   10  A    between atoms: C_26  and  C_27
REMARK   11  A    between atoms: C_26  and  N_64
REMARK                            x       y       z     vdW  Elec       q    Type
REMARK                         _______ _______ _______ _____ _____    ______ ____
ROOT
ATOM      1  N   UNL     1       3.686   3.107  -0.016  0.00  0.00    -0.214 N 
ATOM      2  C   UNL     1       3.549   1.828  -0.410  0.00  0.00    +0.314 C 
ATOM      3  O   UNL     1       4.540   1.223  -0.771  0.00  0.00    -0.252 OA
ATOM      4  N   UNL     1       2.372   1.190  -0.423  0.00  0.00    -0.269 N 
ATOM      5  C   UNL     1       1.177   1.793  -0.029  0.00  0.00    +0.043 A 
ATOM      6  C   UNL     1      -0.019   1.087  -0.061  0.00  0.00    +0.024 A 
ATOM      7  C   UNL     1      -1.192   1.704   0.328  0.00  0.00    +0.002 A 
ATOM      8  C   UNL     1      -1.180   3.018   0.761  0.00  0.00    +0.001 A 
ATOM      9  C   UNL     1       0.009   3.726   0.794  0.00  0.00    +0.010 A 
ATOM     10  C   UNL     1       1.178   3.115   0.401  0.00  0.00    +0.033 A 
ATOM     11  C   UNL     1       2.496   3.854   0.424  0.00  0.00    +0.247 C 
ATOM     12  H   UNL     1       2.348   0.266  -0.719  0.00  0.00    +0.156 HD
ENDROOT
BRANCH   1  16
ATOM     13  C   UNL     1       7.432   4.931  -0.043  0.00  0.00    -0.048 A 
ATOM     14  C   UNL     1       7.044   4.168   1.043  0.00  0.00    +0.005 A 
ATOM     15  C   UNL     1       5.803   3.562   1.055  0.00  0.00    +0.024 A 
ATOM     16  C   UNL     1       4.944   3.719  -0.025  0.00  0.00    +0.041 A 
ATOM     17  C   UNL     1       5.340   4.481  -1.117  0.00  0.00    +0.024 A 
ATOM     18  C   UNL     1       6.580   5.089  -1.121  0.00  0.00    +0.005 A 
BRANCH  13  20
ATOM     19  C   UNL     1       9.812   4.642  -0.677  0.00  0.00    +0.009 C 
ATOM     20  C   UNL     1       8.787   5.591  -0.053  0.00  0.00    +0.032 C 
ENDBRANCH  13  20
ENDBRANCH   1  16
BRANCH  11  21
ATOM     21  C   UNL     1       2.740   4.327   1.834  0.00  0.00    +0.269 C 
ATOM     22  O   UNL     1       2.768   5.515   2.078  0.00  0.00    -0.270 OA
ATOM     23  N   UNL     1       2.926   3.431   2.823  0.00  0.00    -0.313 N 
ATOM     24  H   UNL     1       2.903   2.481   2.627  0.00  0.00    +0.149 HD
BRANCH  23  25
ATOM     25  C   UNL     1       3.163   3.891   4.194  0.00  0.00    +0.086 C 
BRANCH  25  26
ATOM     26  C   UNL     1       3.340   2.682   5.114  0.00  0.00    -0.060 C 
BRANCH  26  28
ATOM     27  C   UNL     1       4.860   3.852   6.591  0.00  0.00    -0.096 C 
ATOM     28  N   UNL     1       3.557   3.162   6.495  0.00  0.00    +0.382 N 
ATOM     29  H   UNL     1       2.810   3.823   6.739  0.00  0.00    -0.082 HD
BRANCH  28  30
ATOM     30  C   UNL     1       3.517   2.023   7.437  0.00  0.00    -0.043 C 
BRANCH  30  31
ATOM     31  C   UNL     1       3.519   2.558   8.846  0.00  0.00    -0.064 A 
ATOM     32  C   UNL     1       4.715   2.749   9.512  0.00  0.00    +0.002 A 
ATOM     33  C   UNL     1       4.717   3.244  10.802  0.00  0.00    +0.000 A 
ATOM     34  C   UNL     1       3.522   3.539  11.431  0.00  0.00    +0.000 A 
ATOM     35  C   UNL     1       2.325   3.344  10.767  0.00  0.00    +0.000 A 
ATOM     36  C   UNL     1       2.324   2.853   9.475  0.00  0.00    +0.002 A 
ENDBRANCH  30  31
ENDBRANCH  28  30
ENDBRANCH  26  28
ENDBRANCH  25  26
ENDBRANCH  23  25
ENDBRANCH  11  21
BRANCH  11  37
ATOM     37  O   UNL     1       2.368   5.009  -0.408  0.00  0.00    -0.360 OA
ATOM     38  H   UNL     1       1.677   5.623  -0.125  0.00  0.00    +0.213 HD
ENDBRANCH  11  37
TORSDOF 9
