REMARK  Name = ZINC01409668
REMARK  6 active torsions:
REMARK  status: ('A' for Active; 'I' for Inactive)
REMARK    1  A    between atoms: C_1  and  O_2
REMARK    2  A    between atoms: O_2  and  C_3
REMARK    3  A    between atoms: C_6  and  N_9
REMARK    4  A    between atoms: C_10  and  C_28
REMARK    5  A    between atoms: C_20  and  C_21
REMARK    6  A    between atoms: C_31  and  O_34
REMARK                            x       y       z     vdW  Elec       q    Type
REMARK                         _______ _______ _______ _____ _____    ______ ____
ROOT
ATOM      1  N   UNL     1      -1.834   1.445  -0.774  0.00  0.00    -0.255 N 
ATOM      2  C   UNL     1      -1.738   2.912  -0.706  0.00  0.00    +0.146 C 
ATOM      3  C   UNL     1      -3.114   3.394  -0.366  0.00  0.00    +0.027 C 
ATOM      4  C   UNL     1      -3.904   2.301  -0.217  0.00  0.00    +0.098 C 
ATOM      5  C   UNL     1      -3.109   1.099  -0.499  0.00  0.00    +0.266 C 
ATOM      6  O   UNL     1      -3.535  -0.040  -0.484  0.00  0.00    -0.268 OA
ATOM      7  N   UNL     1      -5.237   2.401   0.152  0.00  0.00    -0.338 N 
ATOM      8  C   UNL     1      -5.541   2.893   1.502  0.00  0.00    +0.122 C 
ATOM      9  C   UNL     1      -4.603   4.052   1.855  0.00  0.00    +0.131 C 
ATOM     10  N   UNL     1      -4.443   5.025   0.780  0.00  0.00    -0.382 N 
ATOM     11  C   UNL     1      -3.646   4.753  -0.235  0.00  0.00    +0.050 C 
ATOM     12  H   UNL     1      -6.054   2.126  -0.530  0.00  0.00    +0.146 HD
ATOM     13  H   UNL     1      -4.984   5.983   0.813  0.00  0.00    +0.160 HD
ENDROOT
BRANCH  11  14
ATOM     14  C   UNL     1      -3.296   5.801  -1.224  0.00  0.00    -0.002 A 
ATOM     15  C   UNL     1      -2.977   7.089  -0.794  0.00  0.00    +0.011 A 
ATOM     16  C   UNL     1      -2.646   8.059  -1.718  0.00  0.00    +0.020 A 
ATOM     17  C   UNL     1      -2.641   7.758  -3.070  0.00  0.00    +0.041 A 
ATOM     18  C   UNL     1      -2.962   6.482  -3.502  0.00  0.00    +0.020 A 
ATOM     19  C   UNL     1      -3.289   5.503  -2.586  0.00  0.00    +0.011 A 
ATOM     20 CL   UNL     1      -2.231   8.985  -4.227  0.00  0.00    -0.084 Cl
ENDBRANCH  11  14
BRANCH   1  24
ATOM     21  C   UNL     1       1.275  -1.177  -1.690  0.00  0.00    +0.120 A 
ATOM     22  C   UNL     1       0.009  -1.672  -1.413  0.00  0.00    +0.047 A 
ATOM     23  C   UNL     1      -1.021  -0.805  -1.108  0.00  0.00    +0.027 A 
ATOM     24  C   UNL     1      -0.789   0.565  -1.078  0.00  0.00    +0.038 A 
ATOM     25  C   UNL     1       0.478   1.060  -1.354  0.00  0.00    +0.027 A 
ATOM     26  C   UNL     1       1.507   0.191  -1.659  0.00  0.00    +0.047 A 
BRANCH  21  28
ATOM     27  C   UNL     1       3.566  -1.452  -2.264  0.00  0.00    +0.277 C 
ATOM     28  O   UNL     1       2.288  -2.031  -1.991  0.00  0.00    -0.495 OA
ENDBRANCH  21  28
ENDBRANCH   1  24
BRANCH   2  29
ATOM     29  C   UNL     1      -1.305   3.468  -2.038  0.00  0.00    -0.022 A 
ATOM     30  C   UNL     1      -1.793   2.915  -3.207  0.00  0.00    +0.009 A 
ATOM     31  C   UNL     1      -1.402   3.427  -4.430  0.00  0.00    +0.046 A 
ATOM     32  C   UNL     1      -0.512   4.489  -4.483  0.00  0.00    +0.117 A 
ATOM     33  C   UNL     1      -0.020   5.039  -3.308  0.00  0.00    +0.046 A 
ATOM     34  C   UNL     1      -0.418   4.527  -2.088  0.00  0.00    +0.009 A 
BRANCH  32  35
ATOM     35  O   UNL     1      -0.122   4.991  -5.685  0.00  0.00    -0.507 OA
ATOM     36  H   UNL     1       0.584   5.834  -5.726  0.00  0.00    +0.292 HD
ENDBRANCH  32  35
ENDBRANCH   2  29
TORSDOF 5
