REMARK  Name = ZINC40011114
REMARK  8 active torsions:
REMARK  status: ('A' for Active; 'I' for Inactive)
REMARK    1  A    between atoms: C_1  and  C_2
REMARK    2  A    between atoms: C_2  and  O_3
REMARK    3  A    between atoms: O_3  and  C_4
REMARK    4  A    between atoms: C_11  and  C_16
REMARK    5  A    between atoms: C_16  and  N_17
REMARK    6  A    between atoms: N_17  and  C_18
REMARK    7  A    between atoms: C_18  and  C_19
REMARK    8  A    between atoms: N_26  and  C_27
REMARK                            x       y       z     vdW  Elec       q    Type
REMARK                         _______ _______ _______ _____ _____    ______ ____
ROOT
ATOM      1  N   UNL     1       3.956  -7.662   4.261  0.00  0.00    -0.277 N 
ATOM      2  C   UNL     1       3.941  -7.941   5.579  0.00  0.00    +0.307 C 
ATOM      3  O   UNL     1       3.951  -7.036   6.391  0.00  0.00    -0.252 OA
ATOM      4  N   UNL     1       3.916  -9.221   5.998  0.00  0.00    -0.267 N 
ATOM      5  H   UNL     1       3.831  -9.941   5.353  0.00  0.00    +0.156 HD
ENDROOT
BRANCH   4   6
ATOM      6  C   UNL     1       4.011  -9.514   7.364  0.00  0.00    +0.070 A 
ATOM      7  C   UNL     1       4.534  -8.574   8.242  0.00  0.00    +0.026 A 
ATOM      8  C   UNL     1       4.627  -8.865   9.589  0.00  0.00    +0.002 A 
ATOM      9  C   UNL     1       4.199 -10.091  10.065  0.00  0.00    +0.003 A 
ATOM     10  C   UNL     1       3.678 -11.030   9.195  0.00  0.00    +0.040 A 
ATOM     11  C   UNL     1       3.577 -10.744   7.846  0.00  0.00    +0.145 A 
ATOM     12  F   UNL     1       3.062 -11.659   6.996  0.00  0.00    -0.204 F 
ENDBRANCH   4   6
BRANCH   1  13
ATOM     13  C   UNL     1       3.984  -6.270   3.806  0.00  0.00    +0.126 C 
BRANCH  13  21
ATOM     14  C   UNL     1      -0.296  -3.841   6.946  0.00  0.00    +0.121 A 
ATOM     15  C   UNL     1      -0.134  -2.609   6.301  0.00  0.00    +0.047 A 
ATOM     16  C   UNL     1       0.614  -2.466   5.177  0.00  0.00    +0.027 A 
ATOM     17  C   UNL     1       1.269  -3.573   4.606  0.00  0.00    +0.041 A 
ATOM     18  N   UNL     1       2.000  -3.417   3.502  0.00  0.00    -0.284 N 
ATOM     19  C   UNL     1       2.641  -4.413   2.914  0.00  0.00    +0.226 C 
ATOM     20  O   UNL     1       3.294  -4.210   1.908  0.00  0.00    -0.275 OA
ATOM     21  C   UNL     1       2.559  -5.806   3.496  0.00  0.00    +0.116 C 
ATOM     22  C   UNL     1       1.728  -5.989   4.751  0.00  0.00    -0.003 C 
ATOM     23  C   UNL     1       1.117  -4.883   5.263  0.00  0.00    -0.004 A 
ATOM     24  C   UNL     1       0.301  -4.970   6.474  0.00  0.00    +0.055 A 
ATOM     25  H   UNL     1       2.066  -2.531   3.112  0.00  0.00    +0.155 HD
BRANCH  14  26
ATOM     26  O   UNL     1      -1.061  -3.910   8.068  0.00  0.00    -0.492 OA
BRANCH  26  28
ATOM     27  C   UNL     1      -2.479  -2.969   9.783  0.00  0.00    +0.048 C 
ATOM     28  C   UNL     1      -1.664  -2.695   8.518  0.00  0.00    +0.225 C 
ENDBRANCH  26  28
ENDBRANCH  14  26
ENDBRANCH  13  21
ENDBRANCH   1  13
BRANCH   1  29
ATOM     29  C   UNL     1       3.944  -8.753   3.282  0.00  0.00    +0.183 C 
BRANCH  29  30
ATOM     30  C   UNL     1       5.356  -9.216   3.029  0.00  0.00    +0.122 A 
ATOM     31  C   UNL     1       5.997 -10.187   3.703  0.00  0.00    +0.046 A 
ATOM     32  C   UNL     1       7.290 -10.292   3.140  0.00  0.00    +0.041 A 
ATOM     33  C   UNL     1       7.361  -9.378   2.155  0.00  0.00    +0.195 A 
ATOM     34  O   UNL     1       6.184  -8.734   2.089  0.00  0.00    -0.466 OA
ENDBRANCH  29  30
ENDBRANCH   1  29
TORSDOF 7
