REMARK  Name = ZINC67580882
REMARK  8 active torsions:
REMARK  status: ('A' for Active; 'I' for Inactive)
REMARK    1  A    between atoms: C_1  and  C_2
REMARK    2  A    between atoms: C_3  and  C_8
REMARK    3  A    between atoms: C_8  and  C_9
REMARK    4  A    between atoms: C_9  and  C_10
REMARK    5  A    between atoms: C_10  and  N_11
REMARK    6  A    between atoms: C_17  and  C_20
REMARK    7  A    between atoms: C_20  and  C_22
REMARK    8  A    between atoms: C_20  and  O_29
REMARK                            x       y       z     vdW  Elec       q    Type
REMARK                         _______ _______ _______ _____ _____    ______ ____
ROOT
ATOM      1  N   UNL     1       2.781   0.735  -4.867  0.00  0.00    -0.299 N 
ATOM      2  C   UNL     1       3.014   1.171  -6.121  0.00  0.00    +0.302 C 
ATOM      3  O   UNL     1       2.100   1.240  -6.920  0.00  0.00    -0.253 OA
ATOM      4  N   UNL     1       4.260   1.530  -6.489  0.00  0.00    -0.286 N 
ATOM      5  C   UNL     1       5.394   1.343  -5.573  0.00  0.00    +0.109 C 
ATOM      6  C   UNL     1       6.128   2.679  -5.418  0.00  0.00    +0.025 C 
ATOM      7  C   UNL     1       6.517   3.206  -6.801  0.00  0.00    +0.025 C 
ATOM      8  C   UNL     1       5.254   3.442  -7.633  0.00  0.00    +0.025 C 
ATOM      9  C   UNL     1       4.511   2.110  -7.815  0.00  0.00    +0.109 C 
ATOM     10  H   UNL     1       3.520   0.610  -4.251  0.00  0.00    +0.150 HD
ENDROOT
BRANCH   1  11
ATOM     11  C   UNL     1       1.411   0.451  -4.433  0.00  0.00    +0.106 C 
BRANCH  11  12
ATOM     12  C   UNL     1       1.424  -0.025  -2.979  0.00  0.00    +0.023 C 
BRANCH  12  13
ATOM     13  C   UNL     1      -0.006  -0.322  -2.526  0.00  0.00    +0.040 C 
BRANCH  13  16
ATOM     14  C   UNL     1      -0.017   1.509   0.011  0.00  0.00    +0.065 C 
ATOM     15  C   UNL     1       0.002   0.002   0.003  0.00  0.00    +0.036 A 
ATOM     16  C   UNL     1       0.007  -0.790  -1.094  0.00  0.00    -0.007 A 
ATOM     17  C   UNL     1       0.026  -2.121  -0.663  0.00  0.00    +0.138 A 
ATOM     18  N   UNL     1       0.033  -2.127   0.645  0.00  0.00    -0.182 NA
ATOM     19  N   UNL     1       0.023  -0.799   1.089  0.00  0.00    -0.282 N 
ATOM     20  H   UNL     1       0.029  -0.506   2.014  0.00  0.00    +0.189 HD
ENDBRANCH  13  16
ENDBRANCH  12  13
ENDBRANCH  11  12
ENDBRANCH   1  11
BRANCH   7  21
ATOM     21  C   UNL     1       7.280   4.523  -6.649  0.00  0.00    +0.148 C 
BRANCH  21  22
ATOM     22  C   UNL     1       7.663   5.042  -8.011  0.00  0.00    -0.019 A 
ATOM     23  C   UNL     1       8.760   4.516  -8.667  0.00  0.00    +0.007 A 
ATOM     24  C   UNL     1       9.112   4.992  -9.916  0.00  0.00    +0.020 A 
ATOM     25  C   UNL     1       8.367   5.995 -10.509  0.00  0.00    +0.041 A 
ATOM     26  C   UNL     1       7.269   6.521  -9.852  0.00  0.00    +0.020 A 
ATOM     27  C   UNL     1       6.915   6.041  -8.605  0.00  0.00    +0.007 A 
ATOM     28 CL   UNL     1       8.808   6.594 -12.078  0.00  0.00    -0.084 Cl
ENDBRANCH  21  22
BRANCH  21  29
ATOM     29  O   UNL     1       8.460   4.302  -5.874  0.00  0.00    -0.387 OA
ATOM     30  H   UNL     1       9.072   3.661  -6.262  0.00  0.00    +0.210 HD
ENDBRANCH  21  29
ENDBRANCH   7  21
TORSDOF 7
