REMARK  Name = ZINC64491460
REMARK  10 active torsions:
REMARK  status: ('A' for Active; 'I' for Inactive)
REMARK    1  A    between atoms: C_1  and  C_2
REMARK    2  A    between atoms: C_8  and  C_11
REMARK    3  A    between atoms: C_11  and  C_12
REMARK    4  A    between atoms: C_12  and  N_13
REMARK    5  A    between atoms: C_14  and  C_16
REMARK    6  A    between atoms: C_16  and  S_17
REMARK    7  A    between atoms: S_17  and  C_18
REMARK    8  A    between atoms: C_18  and  C_19
REMARK    9  A    between atoms: C_23  and  C_26
REMARK   10  A    between atoms: N_28  and  C_29
REMARK                            x       y       z     vdW  Elec       q    Type
REMARK                         _______ _______ _______ _____ _____    ______ ____
ROOT
ATOM      1  C   UNL     1      -2.538  -2.317   7.760  0.00  0.00    +0.164 C 
ENDROOT
BRANCH   1   3
ATOM      2  N   UNL     1      -1.388  -2.563   5.584  0.00  0.00    -0.314 N 
ATOM      3  C   UNL     1      -2.545  -2.569   6.274  0.00  0.00    +0.223 C 
ATOM      4  O   UNL     1      -3.593  -2.777   5.700  0.00  0.00    -0.275 OA
ATOM      5  H   UNL     1      -0.550  -2.397   6.044  0.00  0.00    +0.149 HD
BRANCH   2   6
ATOM      6  C   UNL     1      -1.395  -2.808   4.140  0.00  0.00    +0.108 C 
BRANCH   6   7
ATOM      7  C   UNL     1       0.038  -2.747   3.605  0.00  0.00    +0.052 C 
BRANCH   7  15
ATOM      8  C   UNL     1      -0.059   1.577   0.001  0.00  0.00    +0.044 C 
ATOM      9  C   UNL     1      -0.035   0.070  -0.016  0.00  0.00    -0.050 A 
ATOM     10  C   UNL     1      -0.035  -0.598  -1.248  0.00  0.00    +0.005 A 
ATOM     11  C   UNL     1      -0.014  -1.944  -1.348  0.00  0.00    +0.026 A 
ATOM     12  C   UNL     1       0.008  -2.751  -0.177  0.00  0.00    +0.043 A 
ATOM     13  N   UNL     1       0.029  -4.052  -0.013  0.00  0.00    -0.380 N 
ATOM     14  C   UNL     1       0.045  -4.342   1.425  0.00  0.00    +0.144 C 
ATOM     15  C   UNL     1       0.030  -2.999   2.119  0.00  0.00    -0.040 C 
ATOM     16  C   UNL     1       0.008  -2.069   1.137  0.00  0.00    -0.001 A 
ATOM     17  C   UNL     1      -0.009  -0.602   1.157  0.00  0.00    +0.013 A 
ATOM     18  H   UNL     1       0.034  -4.712  -0.724  0.00  0.00    +0.160 HD
ENDBRANCH   7  15
ENDBRANCH   6   7
ENDBRANCH   2   6
ENDBRANCH   1   3
BRANCH   1  19
ATOM     19  S   UNL     1      -4.236  -2.389   8.394  0.00  0.00    -0.148 S 
BRANCH  19  20
ATOM     20  C   UNL     1      -4.055  -2.070  10.170  0.00  0.00    +0.109 C 
BRANCH  20  21
ATOM     21  C   UNL     1      -5.432  -2.103  10.837  0.00  0.00    +0.197 C 
ATOM     22  N   UNL     1      -6.141  -3.371  10.549  0.00  0.00    -0.176 NA
ATOM     23  N   UNL     1      -7.293  -3.364  10.164  0.00  0.00    -0.167 NA
ATOM     24  C   UNL     1      -8.019  -2.087   9.973  0.00  0.00    +0.272 C 
ATOM     25  S   UNL     1      -6.595  -0.907  10.040  0.00  0.00    -0.094 S 
BRANCH  24  26
ATOM     26  C   UNL     1      -8.708  -2.042   8.634  0.00  0.00    +0.254 C 
ATOM     27  O   UNL     1      -8.286  -1.316   7.758  0.00  0.00    -0.272 OA
ATOM     28  N   UNL     1      -9.794  -2.808   8.409  0.00  0.00    -0.283 N 
ATOM     29  H   UNL     1     -10.092  -3.438   9.085  0.00  0.00    +0.155 HD
BRANCH  28  30
ATOM     30  C   UNL     1     -10.492  -2.696   7.200  0.00  0.00    +0.034 A 
ATOM     31  C   UNL     1     -11.873  -2.838   7.179  0.00  0.00    +0.026 A 
ATOM     32  C   UNL     1     -12.560  -2.727   5.986  0.00  0.00    +0.040 A 
ATOM     33  C   UNL     1     -11.872  -2.475   4.811  0.00  0.00    +0.124 A 
ATOM     34  C   UNL     1     -10.495  -2.333   4.830  0.00  0.00    +0.040 A 
ATOM     35  C   UNL     1      -9.805  -2.438   6.022  0.00  0.00    +0.026 A 
ATOM     36  F   UNL     1     -12.545  -2.368   3.645  0.00  0.00    -0.205 F 
ENDBRANCH  28  30
ENDBRANCH  24  26
ENDBRANCH  20  21
ENDBRANCH  19  20
ENDBRANCH   1  19
TORSDOF 9
