REMARK  Name = ZINC12163266
REMARK  7 active torsions:
REMARK  status: ('A' for Active; 'I' for Inactive)
REMARK    1  A    between atoms: N_9  and  S_12
REMARK    2  A    between atoms: S_12  and  C_15
REMARK    3  A    between atoms: C_15  and  C_16
REMARK    4  A    between atoms: C_16  and  C_17
REMARK    5  A    between atoms: C_17  and  N_18
REMARK    6  A    between atoms: C_19  and  C_21
REMARK    7  A    between atoms: C_21  and  C_26
REMARK                            x       y       z     vdW  Elec       q    Type
REMARK                         _______ _______ _______ _____ _____    ______ ____
ROOT
ATOM      1  C   UNL     1      -3.915   5.972  -4.196  0.00  0.00    +0.043 C 
ENDROOT
BRANCH   1   2
ATOM      2  C   UNL     1      -3.240   4.993  -3.233  0.00  0.00    +0.187 C 
BRANCH   2   3
ATOM      3  S   UNL     1      -4.339   4.676  -1.825  0.00  0.00    +0.032 S 
ATOM      4  O   UNL     1      -5.487   3.955  -2.252  0.00  0.00    -0.158 OA
ATOM      5  O   UNL     1      -4.473   5.850  -1.035  0.00  0.00    -0.158 OA
BRANCH   3  14
ATOM      6  C   UNL     1       1.032  -0.748  -0.001  0.00  0.00    +0.005 A 
ATOM      7  C   UNL     1       2.189   0.020   0.037  0.00  0.00    +0.018 A 
ATOM      8  C   UNL     1       2.087   1.396   0.062  0.00  0.00    +0.084 A 
ATOM      9  C   UNL     1      -0.218   1.291   0.014  0.00  0.00    +0.099 A 
ATOM     10  C   UNL     1      -0.190  -0.100  -0.013  0.00  0.00    +0.042 A 
ATOM     11  N   UNL     1      -1.440   1.955  -0.003  0.00  0.00    -0.314 N 
ATOM     12  C   UNL     1      -2.243   1.550  -1.164  0.00  0.00    +0.123 C 
ATOM     13  C   UNL     1      -3.643   2.161  -1.051  0.00  0.00    +0.128 C 
ATOM     14  N   UNL     1      -3.505   3.614  -0.866  0.00  0.00    -0.178 NA
ATOM     15  C   UNL     1      -2.607   4.098   0.194  0.00  0.00    +0.128 C 
ATOM     16  C   UNL     1      -1.247   3.411   0.031  0.00  0.00    +0.123 C 
ATOM     17  N   UNL     1       0.903   2.066   0.052  0.00  0.00    -0.350 N 
ATOM     18  H   UNL     1       0.857   3.092   0.071  0.00  0.00    +0.166 HD
ENDBRANCH   3  14
ENDBRANCH   2   3
ENDBRANCH   1   2
BRANCH   1  19
ATOM     19  C   UNL     1      -2.989   6.239  -5.384  0.00  0.00    +0.106 C 
BRANCH  19  20
ATOM     20  N   UNL     1      -3.635   7.176  -6.306  0.00  0.00    -0.315 N 
ATOM     21  C   UNL     1      -3.000   7.560  -7.432  0.00  0.00    +0.224 C 
ATOM     22  O   UNL     1      -1.860   7.201  -7.637  0.00  0.00    -0.275 OA
ATOM     23  H   UNL     1      -4.519   7.521  -6.106  0.00  0.00    +0.149 HD
BRANCH  21  24
ATOM     24  C   UNL     1      -3.708   8.434  -8.435  0.00  0.00    +0.072 C 
ATOM     25  C   UNL     1      -5.015   7.762  -8.890  0.00  0.00    +0.021 C 
ATOM     26  C   UNL     1      -4.892   7.545 -10.413  0.00  0.00    +0.001 C 
ATOM     27  C   UNL     1      -3.365   7.521 -10.671  0.00  0.00    +0.001 C 
ATOM     28  C   UNL     1      -2.836   8.602  -9.697  0.00  0.00    +0.021 C 
BRANCH  24  29
ATOM     29  C   UNL     1      -4.003   9.781  -7.828  0.00  0.00    -0.032 A 
ATOM     30  C   UNL     1      -3.521  10.093  -6.570  0.00  0.00    +0.006 A 
ATOM     31  C   UNL     1      -3.787  11.331  -6.015  0.00  0.00    +0.020 A 
ATOM     32  C   UNL     1      -4.544  12.253  -6.714  0.00  0.00    +0.041 A 
ATOM     33  C   UNL     1      -5.031  11.939  -7.970  0.00  0.00    +0.020 A 
ATOM     34  C   UNL     1      -4.760  10.703  -8.526  0.00  0.00    +0.006 A 
ATOM     35 CL   UNL     1      -4.884  13.806  -6.015  0.00  0.00    -0.084 Cl
ENDBRANCH  24  29
ENDBRANCH  21  24
ENDBRANCH  19  20
ENDBRANCH   1  19
TORSDOF 7
