REMARK  Name = ZINC39975337
REMARK  7 active torsions:
REMARK  status: ('A' for Active; 'I' for Inactive)
REMARK    1  A    between atoms: C_1  and  C_2
REMARK    2  A    between atoms: C_2  and  C_3
REMARK    3  A    between atoms: C_3  and  C_5
REMARK    4  A    between atoms: C_3  and  N_6
REMARK    5  A    between atoms: N_9  and  C_10
REMARK    6  A    between atoms: C_11  and  C_21
REMARK    7  A    between atoms: C_16  and  C_20
REMARK                            x       y       z     vdW  Elec       q    Type
REMARK                         _______ _______ _______ _____ _____    ______ ____
ROOT
ATOM      1  C   UNL     1      -5.402   0.400   2.556  0.00  0.00    +0.091 A 
ATOM      2  C   UNL     1      -6.180   0.744   3.650  0.00  0.00    +0.084 A 
ATOM      3  C   UNL     1      -7.618   0.791   3.454  0.00  0.00    -0.018 A 
ATOM      4  C   UNL     1      -8.015   0.486   2.200  0.00  0.00    -0.004 A 
ATOM      5  S   UNL     1      -6.515   0.157   1.322  0.00  0.00    -0.077 S 
ATOM      6  C   UNL     1      -9.421   0.448   1.685  0.00  0.00    +0.046 C 
ATOM      7  C   UNL     1     -10.323   1.173   2.694  0.00  0.00    -0.009 C 
ATOM      8  C   UNL     1     -10.008   0.657   4.101  0.00  0.00    +0.008 C 
ATOM      9  C   UNL     1      -8.625   1.146   4.538  0.00  0.00    +0.037 C 
ATOM     10  C   UNL     1     -11.790   0.897   2.361  0.00  0.00    +0.008 C 
ENDROOT
BRANCH   1  14
ATOM     11  N   UNL     1      -2.082  -0.162   1.273  0.00  0.00    -0.297 N 
ATOM     12  C   UNL     1      -3.424  -0.053   1.334  0.00  0.00    +0.304 C 
ATOM     13  O   UNL     1      -4.096  -0.264   0.344  0.00  0.00    -0.252 OA
ATOM     14  N   UNL     1      -4.020   0.289   2.493  0.00  0.00    -0.263 N 
ATOM     15  H   UNL     1      -1.545   0.006   2.063  0.00  0.00    +0.151 HD
ATOM     16  H   UNL     1      -3.483   0.457   3.284  0.00  0.00    +0.157 HD
BRANCH  11  17
ATOM     17  C   UNL     1      -1.433  -0.534   0.013  0.00  0.00    +0.071 C 
ATOM     18  C   UNL     1      -1.416  -2.058  -0.121  0.00  0.00    +0.028 C 
BRANCH  17  20
ATOM     19  C   UNL     1      -0.019   1.526   0.010  0.00  0.00    +0.005 C 
ATOM     20  C   UNL     1       0.002  -0.004   0.002  0.00  0.00    +0.019 C 
ENDBRANCH  17  20
ENDBRANCH  11  17
ENDBRANCH   1  14
BRANCH   2  21
ATOM     21  C   UNL     1      -5.590   1.040   4.921  0.00  0.00    +0.102 C 
ATOM     22  N   UNL     1      -5.122   1.274   5.929  0.00  0.00    -0.191 NA
ENDBRANCH   2  21
TORSDOF 4
