REMARK  Name = ZINC08998657
REMARK  14 active torsions:
REMARK  status: ('A' for Active; 'I' for Inactive)
REMARK    1  A    between atoms: C_1  and  C_2
REMARK    2  A    between atoms: C_2  and  N_3
REMARK    3  A    between atoms: N_3  and  C_4
REMARK    4  A    between atoms: N_3  and  C_6
REMARK    5  A    between atoms: C_4  and  C_5
REMARK    6  A    between atoms: C_9  and  C_12
REMARK    7  A    between atoms: C_12  and  N_14
REMARK    8  A    between atoms: N_16  and  C_28
REMARK    9  A    between atoms: C_20  and  S_24
REMARK   10  A    between atoms: S_24  and  N_27
REMARK   11  A    between atoms: C_28  and  C_29
REMARK   12  A    between atoms: C_29  and  O_30
REMARK   13  A    between atoms: O_30  and  C_31
REMARK   14  A    between atoms: C_31  and  C_32
REMARK                            x       y       z     vdW  Elec       q    Type
REMARK                         _______ _______ _______ _____ _____    ______ ____
ROOT
ATOM      1  N   UNL     1      -5.233  -2.677  -2.902  0.00  0.00    -0.152 NA
ATOM      2  C   UNL     1      -6.177  -3.430  -3.456  0.00  0.00    +0.167 A 
ATOM      3  N   UNL     1      -6.626  -4.650  -3.055  0.00  0.00    -0.319 N 
ATOM      4  C   UNL     1      -7.626  -5.288  -3.765  0.00  0.00    +0.058 A 
ATOM      5  C   UNL     1      -8.215  -6.537  -3.510  0.00  0.00    +0.029 A 
ATOM      6  C   UNL     1      -9.208  -7.025  -4.325  0.00  0.00    +0.030 A 
ATOM      7  C   UNL     1      -9.659  -6.305  -5.418  0.00  0.00    +0.106 A 
ATOM      8  C   UNL     1      -9.097  -5.070  -5.693  0.00  0.00    +0.045 A 
ATOM      9  C   UNL     1      -8.103  -4.581  -4.878  0.00  0.00    +0.041 A 
ATOM     10  S   UNL     1      -7.140  -3.090  -4.858  0.00  0.00    -0.052 S 
ENDROOT
BRANCH   7  11
ATOM     11  S   UNL     1     -10.934  -6.952  -6.448  0.00  0.00    +0.056 S 
ATOM     12  O   UNL     1     -11.665  -7.878  -5.656  0.00  0.00    -0.153 OA
ATOM     13  O   UNL     1     -11.549  -5.838  -7.081  0.00  0.00    -0.153 OA
BRANCH  11  14
ATOM     14  N   UNL     1     -10.198  -7.830  -7.644  0.00  0.00    -0.204 NA
ATOM     15  H   UNL     1     -10.654  -8.591  -8.037  0.00  0.00    +0.144 HD
ATOM     16  H   UNL     1      -9.312  -7.583  -7.953  0.00  0.00    +0.144 HD
ENDBRANCH  11  14
ENDBRANCH   7  11
BRANCH   1  17
ATOM     17  C   UNL     1      -4.922  -1.492  -3.440  0.00  0.00    +0.269 C 
ATOM     18  O   UNL     1      -5.505  -1.103  -4.438  0.00  0.00    -0.268 OA
BRANCH  17  22
ATOM     19  C   UNL     1      -1.902   0.918  -1.670  0.00  0.00    +0.030 A 
ATOM     20  C   UNL     1      -2.221  -0.317  -1.113  0.00  0.00    +0.024 A 
ATOM     21  C   UNL     1      -3.203  -1.097  -1.681  0.00  0.00    +0.015 A 
ATOM     22  C   UNL     1      -3.871  -0.653  -2.824  0.00  0.00    +0.039 A 
ATOM     23  C   UNL     1      -3.545   0.584  -3.385  0.00  0.00    +0.015 A 
ATOM     24  C   UNL     1      -2.567   1.362  -2.809  0.00  0.00    +0.024 A 
BRANCH  19  25
ATOM     25  N   UNL     1      -0.913   1.706  -1.091  0.00  0.00    -0.330 N 
BRANCH  25  27
ATOM     26  C   UNL     1      -0.963   1.714   1.355  0.00  0.00    +0.024 C 
ATOM     27  C   UNL     1      -0.213   1.240   0.108  0.00  0.00    +0.102 C 
ENDBRANCH  25  27
BRANCH  25  28
ATOM     28  C   UNL     1      -0.572   3.004  -1.679  0.00  0.00    +0.102 C 
ATOM     29  C   UNL     1       0.540   2.818  -2.713  0.00  0.00    +0.024 C 
ENDBRANCH  25  28
ENDBRANCH  19  25
ENDBRANCH  17  22
ENDBRANCH   1  17
BRANCH   3  30
ATOM     30  C   UNL     1      -6.047  -5.290  -1.871  0.00  0.00    +0.152 C 
BRANCH  30  31
ATOM     31  C   UNL     1      -4.548  -4.990  -1.811  0.00  0.00    +0.181 C 
BRANCH  31  32
ATOM     32  O   UNL     1      -3.959  -5.722  -0.734  0.00  0.00    -0.378 OA
BRANCH  32  33
ATOM     33  C   UNL     1      -2.553  -5.513  -0.589  0.00  0.00    +0.156 C 
ATOM     34  C   UNL     1      -2.032  -6.341   0.587  0.00  0.00    +0.034 C 
ENDBRANCH  32  33
ENDBRANCH  31  32
ENDBRANCH  30  31
ENDBRANCH   3  30
TORSDOF 11
