REMARK  Name = ZINC12658762
REMARK  8 active torsions:
REMARK  status: ('A' for Active; 'I' for Inactive)
REMARK    1  A    between atoms: C_1  and  N_63
REMARK    2  A    between atoms: C_8  and  O_34
REMARK    3  A    between atoms: C_10  and  C_12
REMARK    4  A    between atoms: N_16  and  C_17
REMARK    5  A    between atoms: C_20  and  C_23
REMARK    6  A    between atoms: N_25  and  N_26
REMARK    7  A    between atoms: C_27  and  C_28
REMARK    8  A    between atoms: O_34  and  C_35
REMARK                            x       y       z     vdW  Elec       q    Type
REMARK                         _______ _______ _______ _____ _____    ______ ____
ROOT
ATOM      1  C   UNL     1       1.056  -2.732   0.852  0.00  0.00    +0.148 A 
ATOM      2  N   UNL     1       1.919  -3.178  -0.023  0.00  0.00    -0.114 NA
ATOM      3  N   UNL     1       2.325  -4.353   0.299  0.00  0.00    -0.023 NA
ATOM      4  N   UNL     1       1.749  -4.741   1.386  0.00  0.00    -0.039 NA
ATOM      5  N   UNL     1       0.899  -3.695   1.787  0.00  0.00    -0.198 N 
ENDROOT
BRANCH   1  15
ATOM      6  C   UNL     1      -1.795  -2.427   0.451  0.00  0.00    -0.095 C 
ATOM      7  C   UNL     1      -1.397  -0.142  -0.251  0.00  0.00    -0.073 C 
ATOM      8  C   UNL     1      -0.454   0.693  -1.118  0.00  0.00    +0.017 C 
ATOM      9  C   UNL     1       0.947   0.629  -0.565  0.00  0.00    -0.040 A 
ATOM     10  C   UNL     1       1.865   1.581  -0.983  0.00  0.00    +0.053 A 
ATOM     11  C   UNL     1       3.166   1.559  -0.509  0.00  0.00    +0.170 A 
ATOM     12  C   UNL     1       3.553   0.575   0.395  0.00  0.00    +0.208 A 
ATOM     13  C   UNL     1       2.631  -0.374   0.814  0.00  0.00    +0.168 A 
ATOM     14  C   UNL     1       1.325  -0.346   0.334  0.00  0.00    -0.005 A 
ATOM     15  C   UNL     1       0.361  -1.395   0.821  0.00  0.00    +0.037 C 
ATOM     16  O   UNL     1       4.869   0.764   0.709  0.00  0.00    -0.449 OA
ATOM     17  C   UNL     1       5.170   2.112   0.304  0.00  0.00    +0.467 C 
ATOM     18  O   UNL     1       4.237   2.365  -0.763  0.00  0.00    -0.452 OA
ATOM     19  N   UNL     1      -0.794  -1.481  -0.089  0.00  0.00    +0.388 N 
ATOM     20  H   UNL     1      -0.475  -1.819  -1.005  0.00  0.00    -0.081 HD
BRANCH  13  21
ATOM     21  O   UNL     1       3.006  -1.337   1.698  0.00  0.00    -0.491 OA
ATOM     22  C   UNL     1       2.992  -0.987   3.083  0.00  0.00    +0.277 C 
ENDBRANCH  13  21
ENDBRANCH   1  15
BRANCH   5  23
ATOM     23  C   UNL     1       0.068  -3.660   2.913  0.00  0.00    +0.069 A 
ATOM     24  C   UNL     1      -0.009  -2.504   3.682  0.00  0.00    +0.028 A 
ATOM     25  C   UNL     1      -0.830  -2.463   4.787  0.00  0.00    +0.015 A 
ATOM     26  C   UNL     1      -1.577  -3.589   5.142  0.00  0.00    +0.038 A 
ATOM     27  C   UNL     1      -1.493  -4.751   4.370  0.00  0.00    +0.015 A 
ATOM     28  C   UNL     1      -0.674  -4.782   3.262  0.00  0.00    +0.028 A 
BRANCH  26  29
ATOM     29  C   UNL     1      -2.453  -3.552   6.329  0.00  0.00    +0.263 C 
ATOM     30  O   UNL     1      -3.103  -4.533   6.637  0.00  0.00    -0.268 OA
ATOM     31  N   UNL     1      -2.533  -2.431   7.073  0.00  0.00    -0.203 N 
ATOM     32  H   UNL     1      -2.015  -1.648   6.827  0.00  0.00    +0.178 HD
BRANCH  31  33
ATOM     33  N   UNL     1      -3.364  -2.395   8.200  0.00  0.00    -0.187 NA
ATOM     34  C   UNL     1      -3.441  -1.315   8.916  0.00  0.00    +0.138 C 
BRANCH  34  35
ATOM     35  C   UNL     1      -4.316  -1.278  10.102  0.00  0.00    -0.005 A 
ATOM     36  C   UNL     1      -5.068  -2.401  10.455  0.00  0.00    +0.009 A 
ATOM     37  C   UNL     1      -5.880  -2.361  11.570  0.00  0.00    +0.001 A 
ATOM     38  C   UNL     1      -5.959  -1.208  12.331  0.00  0.00    +0.000 A 
ATOM     39  C   UNL     1      -5.222  -0.090  11.984  0.00  0.00    +0.001 A 
ATOM     40  C   UNL     1      -4.401  -0.117  10.875  0.00  0.00    +0.009 A 
ENDBRANCH  34  35
ENDBRANCH  31  33
ENDBRANCH  26  29
ENDBRANCH   5  23
TORSDOF 6
