REMARK  Name = ZINC34914365
REMARK  12 active torsions:
REMARK  status: ('A' for Active; 'I' for Inactive)
REMARK    1  A    between atoms: C_1  and  C_2
REMARK    2  A    between atoms: C_2  and  O_3
REMARK    3  A    between atoms: O_3  and  C_4
REMARK    4  A    between atoms: C_7  and  N_10
REMARK    5  A    between atoms: C_11  and  C_13
REMARK    6  A    between atoms: C_17  and  N_18
REMARK    7  A    between atoms: C_19  and  C_21
REMARK    8  A    between atoms: C_24  and  N_27
REMARK    9  A    between atoms: C_31  and  C_35
REMARK   10  A    between atoms: C_35  and  C_36
REMARK   11  A    between atoms: C_35  and  C_37
REMARK   12  A    between atoms: C_35  and  C_38
REMARK                            x       y       z     vdW  Elec       q    Type
REMARK                         _______ _______ _______ _____ _____    ______ ____
ROOT
ATOM      1  C   UNL     1       2.065  -7.916   2.866  0.00  0.00    +0.069 A 
ATOM      2  C   UNL     1       3.208  -8.559   2.241  0.00  0.00    -0.023 A 
ATOM      3  C   UNL     1       3.255  -9.897   2.420  0.00  0.00    -0.004 A 
ATOM      4  S   UNL     1       1.824 -10.271   3.390  0.00  0.00    -0.077 S 
ATOM      5  C   UNL     1       1.183  -8.729   3.562  0.00  0.00    +0.085 A 
ATOM      6  C   UNL     1       4.299 -10.837   1.902  0.00  0.00    +0.046 C 
ATOM      7  C   UNL     1       5.108 -10.110   0.818  0.00  0.00    -0.000 C 
ATOM      8  C   UNL     1       5.513  -8.730   1.343  0.00  0.00    +0.009 C 
ATOM      9  C   UNL     1       4.280  -7.829   1.445  0.00  0.00    +0.037 C 
ENDROOT
BRANCH   1  11
ATOM     10  N   UNL     1       1.136  -5.957   1.754  0.00  0.00    -0.281 N 
ATOM     11  C   UNL     1       1.857  -6.468   2.771  0.00  0.00    +0.251 C 
ATOM     12  O   UNL     1       2.335  -5.728   3.610  0.00  0.00    -0.270 OA
ATOM     13  H   UNL     1       0.691  -6.550   1.128  0.00  0.00    +0.155 HD
BRANCH  10  17
ATOM     14  C   UNL     1       0.817  -1.825   1.296  0.00  0.00    +0.121 A 
ATOM     15  C   UNL     1      -0.244  -2.645   0.943  0.00  0.00    +0.047 A 
ATOM     16  C   UNL     1      -0.139  -4.014   1.094  0.00  0.00    +0.027 A 
ATOM     17  C   UNL     1       1.029  -4.569   1.599  0.00  0.00    +0.034 A 
ATOM     18  C   UNL     1       2.091  -3.747   1.953  0.00  0.00    +0.027 A 
ATOM     19  C   UNL     1       1.986  -2.379   1.797  0.00  0.00    +0.047 A 
BRANCH  14  20
ATOM     20  O   UNL     1       0.713  -0.477   1.147  0.00  0.00    -0.492 OA
BRANCH  20  22
ATOM     21  C   UNL     1      -0.449   1.550   0.531  0.00  0.00    +0.048 C 
ATOM     22  C   UNL     1      -0.520   0.025   0.626  0.00  0.00    +0.225 C 
ENDBRANCH  20  22
ENDBRANCH  14  20
ENDBRANCH  10  17
ENDBRANCH   1  11
BRANCH   5  23
ATOM     23  N   UNL     1       0.035  -8.354   4.241  0.00  0.00    -0.275 N 
ATOM     24  C   UNL     1      -0.711  -9.285   4.868  0.00  0.00    +0.249 C 
ATOM     25  O   UNL     1      -0.377 -10.454   4.838  0.00  0.00    -0.270 OA
ATOM     26  H   UNL     1      -0.232  -7.422   4.266  0.00  0.00    +0.156 HD
BRANCH  24  27
ATOM     27  C   UNL     1      -1.936  -8.886   5.593  0.00  0.00    +0.037 A 
ATOM     28  C   UNL     1      -2.325  -7.546   5.625  0.00  0.00    +0.015 A 
ATOM     29  C   UNL     1      -3.470  -7.180   6.303  0.00  0.00    +0.033 A 
ATOM     30  C   UNL     1      -4.230  -8.137   6.951  0.00  0.00    +0.126 A 
ATOM     31  C   UNL     1      -3.849  -9.467   6.923  0.00  0.00    +0.033 A 
ATOM     32  C   UNL     1      -2.711  -9.848   6.243  0.00  0.00    +0.015 A 
BRANCH  30  33
ATOM     33  N   UNL     1      -5.456  -7.737   7.678  0.00  0.00    +0.056 N 
ATOM     34  O   UNL     1      -5.791  -6.576   7.704  0.00  0.00    -0.126 OA
ATOM     35  O   UNL     1      -6.122  -8.572   8.245  0.00  0.00    -0.126 OA
ENDBRANCH  30  33
ENDBRANCH  24  27
ENDBRANCH   5  23
BRANCH   7  36
ATOM     36  C   UNL     1       6.361 -10.921   0.482  0.00  0.00    -0.035 C 
ATOM     37  C   UNL     1       5.952 -12.304  -0.030  0.00  0.00    +0.011 C 
ATOM     38  C   UNL     1       7.165 -10.195  -0.598  0.00  0.00    +0.011 C 
ATOM     39  C   UNL     1       7.220 -11.077   1.739  0.00  0.00    +0.011 C 
ENDBRANCH   7  36
TORSDOF 8
