REMARK  Name = ZINC15947048
REMARK  8 active torsions:
REMARK  status: ('A' for Active; 'I' for Inactive)
REMARK    1  A    between atoms: C_1  and  C_2
REMARK    2  A    between atoms: C_2  and  C_3
REMARK    3  A    between atoms: C_2  and  N_4
REMARK    4  A    between atoms: C_12  and  O_34
REMARK    5  A    between atoms: C_14  and  C_17
REMARK    6  A    between atoms: C_20  and  O_23
REMARK    7  A    between atoms: O_23  and  C_24
REMARK    8  A    between atoms: C_24  and  C_26
REMARK                            x       y       z     vdW  Elec       q    Type
REMARK                         _______ _______ _______ _____ _____    ______ ____
ROOT
ATOM      1  N   UNL     1       0.365  -0.115   1.088  0.00  0.00    +0.384 N 
ATOM      2  C   UNL     1       0.672  -1.548   1.183  0.00  0.00    -0.073 C 
ATOM      3  C   UNL     1       1.827  -1.777   2.164  0.00  0.00    +0.018 C 
ATOM      4  C   UNL     1       1.479  -1.075   3.469  0.00  0.00    -0.027 A 
ATOM      5  C   UNL     1       0.507  -0.131   3.492  0.00  0.00    -0.021 A 
ATOM      6  S   UNL     1       0.439   0.404   5.178  0.00  0.00    -0.080 S 
ATOM      7  C   UNL     1       1.624  -0.562   5.820  0.00  0.00    +0.080 A 
ATOM      8  C   UNL     1       2.110  -1.323   4.749  0.00  0.00    +0.067 A 
ATOM      9  C   UNL     1       3.208  -2.283   5.034  0.00  0.00    +0.220 C 
ATOM     10  N   UNL     1       3.478  -2.541   6.285  0.00  0.00    -0.223 NA
ATOM     11  C   UNL     1       2.737  -2.002   7.419  0.00  0.00    +0.224 C 
ATOM     12  N   UNL     1       2.121  -0.702   7.096  0.00  0.00    -0.313 N 
ATOM     13  C   UNL     1      -0.305   0.330   2.324  0.00  0.00    -0.035 C 
ATOM     14  H   UNL     1       2.068   0.015   7.747  0.00  0.00    +0.149 HD
ATOM     15  H   UNL     1       1.221   0.405   0.964  0.00  0.00    -0.081 HD
ENDROOT
BRANCH  11  16
ATOM     16  C   UNL     1       1.654  -2.976   7.806  0.00  0.00    -0.005 A 
ATOM     17  C   UNL     1       0.477  -2.513   8.363  0.00  0.00    +0.011 A 
ATOM     18  C   UNL     1      -0.517  -3.404   8.719  0.00  0.00    +0.047 A 
ATOM     19  C   UNL     1      -0.334  -4.764   8.517  0.00  0.00    +0.132 A 
ATOM     20  C   UNL     1       0.849  -5.226   7.957  0.00  0.00    +0.047 A 
ATOM     21  C   UNL     1       1.838  -4.330   7.598  0.00  0.00    +0.011 A 
BRANCH  19  22
ATOM     22  O   UNL     1      -1.310  -5.642   8.867  0.00  0.00    -0.422 OA
BRANCH  22  23
ATOM     23  C   UNL     1      -2.381  -5.754   8.056  0.00  0.00    +0.346 C 
ATOM     24  O   UNL     1      -2.495  -5.017   7.096  0.00  0.00    -0.244 OA
BRANCH  23  25
ATOM     25  C   UNL     1      -3.414  -6.770   8.335  0.00  0.00    +0.078 A 
ATOM     26  C   UNL     1      -3.288  -7.614   9.441  0.00  0.00    +0.018 A 
ATOM     27  C   UNL     1      -4.256  -8.561   9.695  0.00  0.00    +0.021 A 
ATOM     28  C   UNL     1      -5.354  -8.678   8.857  0.00  0.00    +0.042 A 
ATOM     29  C   UNL     1      -5.486  -7.845   7.759  0.00  0.00    +0.040 A 
ATOM     30  C   UNL     1      -4.526  -6.888   7.496  0.00  0.00    +0.056 A 
ATOM     31 CL   UNL     1      -4.697  -5.839   6.123  0.00  0.00    -0.083 Cl
ATOM     32 CL   UNL     1      -6.568  -9.874   9.185  0.00  0.00    -0.083 Cl
ENDBRANCH  23  25
ENDBRANCH  22  23
ENDBRANCH  19  22
ENDBRANCH  11  16
BRANCH   1  34
ATOM     33  C   UNL     1      -0.921   1.596  -0.101  0.00  0.00    -0.014 C 
ATOM     34  C   UNL     1      -0.521   0.120  -0.060  0.00  0.00    -0.074 C 
ATOM     35  C   UNL     1       0.212  -0.245  -1.353  0.00  0.00    -0.014 C 
ENDBRANCH   1  34
BRANCH   9  36
ATOM     36  O   UNL     1       3.903  -2.869   4.032  0.00  0.00    -0.492 OA
ATOM     37  H   UNL     1       4.594  -3.474   4.335  0.00  0.00    +0.294 HD
ENDBRANCH   9  36
TORSDOF 6
