REMARK  Name = ZINC15770399
REMARK  6 active torsions:
REMARK  status: ('A' for Active; 'I' for Inactive)
REMARK    1  A    between atoms: C_4  and  C_7
REMARK    2  A    between atoms: C_9  and  C_31
REMARK    3  A    between atoms: N_10  and  N_19
REMARK    4  A    between atoms: C_11  and  C_13
REMARK    5  A    between atoms: C_20  and  C_21
REMARK    6  A    between atoms: C_24  and  N_27
REMARK                            x       y       z     vdW  Elec       q    Type
REMARK                         _______ _______ _______ _____ _____    ______ ____
ROOT
ATOM      1  C   UNL     1      -1.427  -0.565  -0.131  0.00  0.00    -0.014 A 
ATOM      2  C   UNL     1      -2.758  -0.140  -0.134  0.00  0.00    +0.036 A 
ATOM      3  C   UNL     1      -3.771  -1.079   0.012  0.00  0.00    +0.070 A 
ATOM      4  N   UNL     1      -3.482  -2.375   0.165  0.00  0.00    -0.259 N 
ATOM      5  C   UNL     1      -2.220  -2.814   0.177  0.00  0.00    +0.070 A 
ATOM      6  C   UNL     1      -1.160  -1.928   0.030  0.00  0.00    +0.036 A 
ENDROOT
BRANCH   1  10
ATOM      7  C   UNL     1       1.746   2.228  -0.587  0.00  0.00    +0.000 A 
ATOM      8  C   UNL     1       0.434   2.667  -0.598  0.00  0.00    +0.001 A 
ATOM      9  C   UNL     1      -0.600   1.765  -0.451  0.00  0.00    +0.008 A 
ATOM     10  C   UNL     1      -0.320   0.409  -0.290  0.00  0.00    -0.018 A 
ATOM     11  C   UNL     1       1.004  -0.028  -0.280  0.00  0.00    +0.008 A 
ATOM     12  C   UNL     1       2.029   0.883  -0.428  0.00  0.00    +0.001 A 
ENDBRANCH   1  10
BRANCH   5  13
ATOM     13  C   UNL     1      -1.947  -4.260   0.349  0.00  0.00    +0.000 A 
ATOM     14  C   UNL     1      -0.758  -4.683   0.942  0.00  0.00    +0.010 A 
ATOM     15  C   UNL     1      -0.513  -6.031   1.104  0.00  0.00    +0.001 A 
ATOM     16  C   UNL     1      -1.438  -6.963   0.669  0.00  0.00    +0.000 A 
ATOM     17  C   UNL     1      -2.618  -6.550   0.075  0.00  0.00    +0.001 A 
ATOM     18  C   UNL     1      -2.877  -5.204  -0.087  0.00  0.00    +0.010 A 
ENDBRANCH   5  13
BRANCH   4  19
ATOM     19  N   UNL     1      -4.528  -3.296   0.315  0.00  0.00    -0.238 N 
ATOM     20  C   UNL     1      -4.986  -3.581   1.513  0.00  0.00    +0.115 C 
ATOM     21  N   UNL     1      -4.438  -2.974   2.622  0.00  0.00    -0.385 N 
ATOM     22  H   UNL     1      -4.821  -3.213   3.625  0.00  0.00    +0.157 HD
ATOM     23  H   UNL     1      -3.617  -2.252   2.505  0.00  0.00    +0.157 HD
ATOM     24  H   UNL     1      -4.965  -3.780  -0.571  0.00  0.00    +0.174 HD
BRANCH  20  25
ATOM     25  C   UNL     1      -6.088  -4.551   1.671  0.00  0.00    +0.014 A 
ATOM     26  C   UNL     1      -6.649  -5.164   0.549  0.00  0.00    +0.013 A 
ATOM     27  C   UNL     1      -7.675  -6.073   0.704  0.00  0.00    +0.033 A 
ATOM     28  C   UNL     1      -8.154  -6.371   1.968  0.00  0.00    +0.126 A 
ATOM     29  C   UNL     1      -7.606  -5.764   3.083  0.00  0.00    +0.033 A 
ATOM     30  C   UNL     1      -6.577  -4.856   2.943  0.00  0.00    +0.013 A 
BRANCH  28  31
ATOM     31  N   UNL     1      -9.258  -7.344   2.126  0.00  0.00    +0.056 N 
ATOM     32  O   UNL     1      -9.682  -7.608   3.237  0.00  0.00    -0.126 OA
ATOM     33  O   UNL     1      -9.743  -7.880   1.145  0.00  0.00    -0.126 OA
ENDBRANCH  28  31
ENDBRANCH  20  25
ENDBRANCH   4  19
BRANCH   3  34
ATOM     34  C   UNL     1      -5.186  -0.639   0.004  0.00  0.00    +0.000 A 
ATOM     35  C   UNL     1      -6.186  -1.505  -0.435  0.00  0.00    +0.010 A 
ATOM     36  C   UNL     1      -7.502  -1.092  -0.435  0.00  0.00    +0.001 A 
ATOM     37  C   UNL     1      -7.829   0.184  -0.012  0.00  0.00    +0.000 A 
ATOM     38  C   UNL     1      -6.841   1.050   0.420  0.00  0.00    +0.001 A 
ATOM     39  C   UNL     1      -5.521   0.646   0.430  0.00  0.00    +0.010 A 
ENDBRANCH   3  34
TORSDOF 6
