REMARK  Name = ZINC08991361
REMARK  5 active torsions:
REMARK  status: ('A' for Active; 'I' for Inactive)
REMARK    1  A    between atoms: C_1  and  C_2
REMARK    2  A    between atoms: C_4  and  O_29
REMARK    3  A    between atoms: C_5  and  C_22
REMARK    4  A    between atoms: C_11  and  C_12
REMARK    5  A    between atoms: C_22  and  N_55
REMARK                            x       y       z     vdW  Elec       q    Type
REMARK                         _______ _______ _______ _____ _____    ______ ____
ROOT
ATOM      1  C   UNL     1       4.546  -0.008  -0.043  0.00  0.00    +0.045 C 
ATOM      2  C   UNL     1       3.541   1.114  -0.026  0.00  0.00    -0.033 A 
ATOM      3  C   UNL     1       3.965   2.413  -0.022  0.00  0.00    +0.050 A 
ATOM      4  C   UNL     1       3.038   3.452  -0.008  0.00  0.00    +0.122 A 
ATOM      5  C   UNL     1       1.679   3.183   0.003  0.00  0.00    +0.020 A 
ATOM      6  C   UNL     1       1.231   1.868   0.000  0.00  0.00    +0.145 A 
ATOM      7  C   UNL     1       2.175   0.829  -0.014  0.00  0.00    +0.071 A 
ATOM      8  C   UNL     1       1.407  -0.429  -0.014  0.00  0.00    +0.232 C 
ATOM      9  O   UNL     1       1.842  -1.569  -0.024  0.00  0.00    -0.283 OA
ATOM     10  C   UNL     1       0.002  -0.004   0.002  0.00  0.00    +0.179 C 
ATOM     11  C   UNL     1      -1.086  -0.823   0.008  0.00  0.00    +0.096 C 
ATOM     12  O   UNL     1      -0.016   1.349   0.009  0.00  0.00    -0.451 OA
ENDROOT
BRANCH  11  13
ATOM     13  C   UNL     1      -2.389  -0.270   0.023  0.00  0.00    +0.133 A 
ATOM     14  C   UNL     1      -3.550  -0.985   0.025  0.00  0.00    +0.058 A 
ATOM     15  C   UNL     1      -4.611  -0.046   0.046  0.00  0.00    +0.021 A 
ATOM     16  C   UNL     1      -6.006  -0.162   0.059  0.00  0.00    +0.011 A 
ATOM     17  C   UNL     1      -6.779   0.963   0.073  0.00  0.00    +0.001 A 
ATOM     18  C   UNL     1      -6.193   2.221   0.074  0.00  0.00    +0.004 A 
ATOM     19  C   UNL     1      -4.821   2.358   0.061  0.00  0.00    +0.047 A 
ATOM     20  C   UNL     1      -4.013   1.228   0.047  0.00  0.00    +0.136 A 
ATOM     21  O   UNL     1      -2.676   1.050   0.033  0.00  0.00    -0.455 OA
ENDBRANCH  11  13
BRANCH   4  22
ATOM     22  O   UNL     1       3.470   4.739  -0.006  0.00  0.00    -0.506 OA
ATOM     23  H   UNL     1       3.604   5.107   0.878  0.00  0.00    +0.292 HD
ENDBRANCH   4  22
BRANCH   5  24
ATOM     24  C   UNL     1       0.687   4.318   0.019  0.00  0.00    -0.036 C 
BRANCH  24  31
ATOM     25  C   UNL     1      -0.231   3.539   2.131  0.00  0.00    -0.078 C 
ATOM     26  C   UNL     1      -0.810   3.933   3.462  0.00  0.00    -0.019 C 
ATOM     27  C   UNL     1      -2.308   4.251   3.269  0.00  0.00    -0.002 C 
ATOM     28  C   UNL     1      -2.520   5.575   2.695  0.00  0.00    -0.002 C 
ATOM     29  C   UNL     1      -1.879   5.714   1.298  0.00  0.00    -0.019 C 
ATOM     30  C   UNL     1      -0.401   5.935   1.470  0.00  0.00    -0.078 C 
ATOM     31  N   UNL     1       0.432   4.686   1.421  0.00  0.00    +0.383 N 
ATOM     32  H   UNL     1       1.329   4.877   1.882  0.00  0.00    -0.081 HD
ENDBRANCH  24  31
ENDBRANCH   5  24
TORSDOF 4
