REMARK  Name = ZINC39688680
REMARK  8 active torsions:
REMARK  status: ('A' for Active; 'I' for Inactive)
REMARK    1  A    between atoms: C_1  and  C_2
REMARK    2  A    between atoms: C_2  and  C_4
REMARK    3  A    between atoms: C_2  and  N_12
REMARK    4  A    between atoms: C_4  and  C_5
REMARK    5  A    between atoms: C_13  and  C_15
REMARK    6  A    between atoms: C_26  and  C_28
REMARK    7  A    between atoms: C_32  and  O_33
REMARK    8  A    between atoms: O_33  and  C_34
REMARK                            x       y       z     vdW  Elec       q    Type
REMARK                         _______ _______ _______ _____ _____    ______ ____
ROOT
ATOM      1  C   UNL     1      -3.477  -1.172  -1.123  0.00  0.00    +0.100 C 
ATOM      2  C   UNL     1      -4.374  -0.273  -0.242  0.00  0.00    +0.121 C 
ATOM      3  N   UNL     1      -4.990   0.685  -1.190  0.00  0.00    -0.296 N 
ATOM      4  C   UNL     1      -5.294  -0.129  -2.391  0.00  0.00    +0.115 C 
ATOM      5  C   UNL     1      -4.087  -1.078  -2.532  0.00  0.00    -0.004 C 
ATOM      6  C   UNL     1      -4.548  -2.454  -3.001  0.00  0.00    -0.010 C 
ATOM      7  C   UNL     1      -5.096  -2.345  -4.427  0.00  0.00    -0.082 C 
ATOM      8  N   UNL     1      -4.051  -1.827  -5.317  0.00  0.00    +0.379 N 
ATOM      9  C   UNL     1      -3.679  -0.466  -4.914  0.00  0.00    -0.082 C 
ATOM     10  C   UNL     1      -3.070  -0.495  -3.509  0.00  0.00    -0.010 C 
ATOM     11  C   UNL     1      -5.223   1.999  -1.002  0.00  0.00    +0.251 C 
ATOM     12  O   UNL     1      -4.827   2.548   0.009  0.00  0.00    -0.270 OA
ATOM     13  H   UNL     1      -3.240  -2.425  -5.265  0.00  0.00    -0.086 HD
ATOM     14  H   UNL     1      -4.395  -1.814  -6.266  0.00  0.00    -0.086 HD
ENDROOT
BRANCH  11  15
ATOM     15  C   UNL     1      -5.956   2.768  -2.018  0.00  0.00    +0.087 A 
ATOM     16  C   UNL     1      -6.978   2.206  -2.752  0.00  0.00    +0.063 A 
ATOM     17  S   UNL     1      -7.495   3.443  -3.759  0.00  0.00    -0.081 S 
ATOM     18  C   UNL     1      -6.389   4.742  -3.252  0.00  0.00    +0.120 A 
ATOM     19  C   UNL     1      -5.643   4.153  -2.291  0.00  0.00    +0.158 A 
ATOM     20 CL   UNL     1      -6.294   6.371  -3.845  0.00  0.00    -0.072 Cl
BRANCH  19  21
ATOM     21  O   UNL     1      -4.659   4.818  -1.626  0.00  0.00    -0.492 OA
ATOM     22  C   UNL     1      -3.347   4.771  -2.192  0.00  0.00    +0.277 C 
ENDBRANCH  19  21
ENDBRANCH  11  15
BRANCH   1  24
ATOM     23  N   UNL     1      -1.032  -1.515  -1.269  0.00  0.00    -0.312 N 
ATOM     24  C   UNL     1      -2.061  -0.656  -1.128  0.00  0.00    +0.218 C 
ATOM     25  O   UNL     1      -1.848   0.531  -1.006  0.00  0.00    -0.275 OA
ATOM     26  H   UNL     1      -1.203  -2.465  -1.367  0.00  0.00    +0.149 HD
BRANCH  23  28
ATOM     27  C   UNL     1       0.844  -0.880   0.166  0.00  0.00    +0.028 C 
ATOM     28  C   UNL     1       0.344  -1.014  -1.274  0.00  0.00    +0.074 C 
BRANCH  28  29
ATOM     29  C   UNL     1       1.241  -1.992  -2.036  0.00  0.00    +0.057 C 
BRANCH  29  30
ATOM     30  C   UNL     1       0.825  -2.030  -3.484  0.00  0.00    -0.045 A 
ATOM     31  C   UNL     1      -0.134  -2.933  -3.904  0.00  0.00    +0.006 A 
ATOM     32  C   UNL     1      -0.516  -2.969  -5.231  0.00  0.00    +0.038 A 
ATOM     33  C   UNL     1       0.062  -2.100  -6.141  0.00  0.00    +0.123 A 
ATOM     34  C   UNL     1       1.022  -1.196  -5.720  0.00  0.00    +0.038 A 
ATOM     35  C   UNL     1       1.399  -1.158  -4.391  0.00  0.00    +0.006 A 
ATOM     36  F   UNL     1      -0.311  -2.134  -7.439  0.00  0.00    -0.205 F 
ENDBRANCH  29  30
ENDBRANCH  28  29
ENDBRANCH  23  28
ENDBRANCH   1  24
TORSDOF 6
