REMARK  Name = ZINC63139390
REMARK  9 active torsions:
REMARK  status: ('A' for Active; 'I' for Inactive)
REMARK    1  A    between atoms: C_1  and  O_2
REMARK    2  A    between atoms: O_2  and  C_3
REMARK    3  A    between atoms: C_5  and  C_13
REMARK    4  A    between atoms: C_7  and  O_11
REMARK    5  A    between atoms: C_8  and  O_9
REMARK    6  A    between atoms: O_9  and  C_10
REMARK    7  A    between atoms: O_11  and  C_12
REMARK    8  A    between atoms: N_32  and  C_35
REMARK    9  A    between atoms: C_35  and  C_36
REMARK                            x       y       z     vdW  Elec       q    Type
REMARK                         _______ _______ _______ _____ _____    ______ ____
ROOT
ATOM      1  C   UNL     1      -4.871   0.264   0.038  0.00  0.00    +0.134 C 
ATOM      2  C   UNL     1      -5.399   0.420  -1.391  0.00  0.00    +0.131 C 
ATOM      3  C   UNL     1      -5.891  -0.954  -1.829  0.00  0.00    -0.034 C 
ATOM      4  C   UNL     1      -5.246  -1.242  -2.953  0.00  0.00    -0.001 A 
ATOM      5  C   UNL     1      -5.348  -2.385  -3.875  0.00  0.00    +0.010 A 
ATOM      6  C   UNL     1      -4.511  -2.366  -4.947  0.00  0.00    +0.001 A 
ATOM      7  C   UNL     1      -3.594  -1.339  -5.189  0.00  0.00    +0.002 A 
ATOM      8  C   UNL     1      -3.437  -0.249  -4.397  0.00  0.00    +0.026 A 
ATOM      9  C   UNL     1      -4.265  -0.152  -3.241  0.00  0.00    +0.043 A 
ATOM     10  N   UNL     1      -4.339   0.797  -2.327  0.00  0.00    -0.375 N 
ATOM     11  C   UNL     1      -6.864  -1.764  -1.008  0.00  0.00    +0.065 C 
ATOM     12  C   UNL     1      -6.313  -1.788   0.430  0.00  0.00    +0.167 C 
ATOM     13  N   UNL     1      -5.906  -0.442   0.827  0.00  0.00    -0.279 N 
ATOM     14  C   UNL     1      -6.432   0.192   1.881  0.00  0.00    +0.234 C 
ATOM     15  O   UNL     1      -6.042   1.316   2.114  0.00  0.00    -0.274 OA
ATOM     16  C   UNL     1      -7.465  -0.386   2.790  0.00  0.00    +0.204 C 
ATOM     17  N   UNL     1      -7.841  -1.737   2.407  0.00  0.00    -0.287 N 
ATOM     18  C   UNL     1      -7.332  -2.374   1.349  0.00  0.00    +0.237 C 
ATOM     19  O   UNL     1      -7.720  -3.500   1.123  0.00  0.00    -0.274 OA
ATOM     20  H   UNL     1      -3.794   1.598  -2.274  0.00  0.00    +0.160 HD
ENDROOT
BRANCH   1  23
ATOM     21  C   UNL     1      -1.256  -0.732   0.513  0.00  0.00    +0.165 A 
ATOM     22  C   UNL     1      -2.430   0.007   0.520  0.00  0.00    +0.055 A 
ATOM     23  C   UNL     1      -3.598  -0.543   0.028  0.00  0.00    -0.018 A 
ATOM     24  C   UNL     1      -3.602  -1.831  -0.474  0.00  0.00    +0.055 A 
ATOM     25  C   UNL     1      -2.433  -2.576  -0.486  0.00  0.00    +0.165 A 
ATOM     26  C   UNL     1      -1.255  -2.025   0.004  0.00  0.00    +0.204 A 
BRANCH  21  28
ATOM     27  C   UNL     1      -0.183   1.144   1.506  0.00  0.00    +0.277 C 
ATOM     28  O   UNL     1      -0.107  -0.190   0.998  0.00  0.00    -0.491 OA
ENDBRANCH  21  28
BRANCH  26  29
ATOM     29  O   UNL     1      -0.104  -2.751  -0.011  0.00  0.00    -0.488 OA
ATOM     30  C   UNL     1       0.171  -3.554   1.139  0.00  0.00    +0.277 C 
ENDBRANCH  26  29
BRANCH  25  31
ATOM     31  O   UNL     1      -2.438  -3.843  -0.980  0.00  0.00    -0.491 OA
ATOM     32  C   UNL     1      -3.684  -4.343  -1.471  0.00  0.00    +0.277 C 
ENDBRANCH  25  31
ENDBRANCH   1  23
BRANCH  17  33
ATOM     33  C   UNL     1      -8.834  -2.438   3.224  0.00  0.00    +0.143 C 
BRANCH  33  34
ATOM     34  C   UNL     1     -10.214  -2.157   2.688  0.00  0.00    -0.030 A 
ATOM     35  C   UNL     1     -10.930  -1.070   3.155  0.00  0.00    +0.005 A 
ATOM     36  C   UNL     1     -12.195  -0.813   2.663  0.00  0.00    +0.000 A 
ATOM     37  C   UNL     1     -12.746  -1.642   1.704  0.00  0.00    +0.000 A 
ATOM     38  C   UNL     1     -12.031  -2.729   1.237  0.00  0.00    +0.000 A 
ATOM     39  C   UNL     1     -10.763  -2.984   1.726  0.00  0.00    +0.005 A 
ENDBRANCH  33  34
ENDBRANCH  17  33
TORSDOF 6
