REMARK  Name = ZINC12635371
REMARK  10 active torsions:
REMARK  status: ('A' for Active; 'I' for Inactive)
REMARK    1  A    between atoms: C_1  and  C_2
REMARK    2  A    between atoms: C_2  and  O_3
REMARK    3  A    between atoms: O_3  and  C_4
REMARK    4  A    between atoms: C_9  and  N_10
REMARK    5  A    between atoms: N_10  and  C_11
REMARK    6  A    between atoms: C_11  and  C_13
REMARK    7  A    between atoms: C_11  and  C_20
REMARK    8  A    between atoms: C_16  and  O_19
REMARK    9  A    between atoms: N_22  and  C_23
REMARK   10  A    between atoms: C_29  and  C_31
REMARK                            x       y       z     vdW  Elec       q    Type
REMARK                         _______ _______ _______ _____ _____    ______ ____
ROOT
ATOM      1  N   UNL     1       4.164  -2.008  -0.448  0.00  0.00    -0.248 N 
ATOM      2  C   UNL     1       4.619  -0.868  -1.004  0.00  0.00    +0.252 C 
ATOM      3  O   UNL     1       5.680  -0.396  -0.643  0.00  0.00    -0.270 OA
ENDROOT
BRANCH   2   4
ATOM      4  C   UNL     1       3.830  -0.191  -2.051  0.00  0.00    +0.041 A 
ATOM      5  C   UNL     1       3.239  -0.937  -3.075  0.00  0.00    +0.017 A 
ATOM      6  C   UNL     1       2.505  -0.302  -4.052  0.00  0.00    +0.050 A 
ATOM      7  C   UNL     1       2.347   1.079  -4.025  0.00  0.00    +0.162 A 
ATOM      8  C   UNL     1       2.931   1.827  -3.006  0.00  0.00    +0.163 A 
ATOM      9  C   UNL     1       3.671   1.196  -2.023  0.00  0.00    +0.062 A 
ATOM     10  O   UNL     1       2.779   3.179  -2.961  0.00  0.00    -0.485 OA
ATOM     11  C   UNL     1       2.345   3.819  -4.166  0.00  0.00    +0.270 C 
ATOM     12  C   UNL     1       1.170   3.015  -4.739  0.00  0.00    +0.270 C 
ATOM     13  O   UNL     1       1.625   1.684  -5.005  0.00  0.00    -0.485 OA
ENDBRANCH   2   4
BRANCH   1  19
ATOM     14  C   UNL     1       1.748  -2.089  -0.577  0.00  0.00    +0.142 A 
ATOM     15  C   UNL     1       0.594  -2.680  -1.064  0.00  0.00    +0.047 A 
ATOM     16  C   UNL     1       0.678  -3.785  -1.891  0.00  0.00    +0.004 A 
ATOM     17  C   UNL     1       1.913  -4.301  -2.238  0.00  0.00    +0.002 A 
ATOM     18  C   UNL     1       3.069  -3.714  -1.762  0.00  0.00    +0.027 A 
ATOM     19  C   UNL     1       2.993  -2.604  -0.932  0.00  0.00    +0.079 A 
BRANCH  14  20
ATOM     20  O   UNL     1       1.667  -1.006   0.240  0.00  0.00    -0.490 OA
BRANCH  20  22
ATOM     21  C   UNL     1       0.467   0.683   1.484  0.00  0.00    +0.048 C 
ATOM     22  C   UNL     1       0.357  -0.532   0.561  0.00  0.00    +0.226 C 
ENDBRANCH  20  22
ENDBRANCH  14  20
ENDBRANCH   1  19
BRANCH   1  23
ATOM     23  C   UNL     1       4.894  -2.623   0.664  0.00  0.00    +0.198 C 
BRANCH  23  24
ATOM     24  C   UNL     1       4.271  -3.954   0.999  0.00  0.00    -0.018 A 
ATOM     25  C   UNL     1       2.926  -4.027   1.312  0.00  0.00    +0.009 A 
ATOM     26  C   UNL     1       2.351  -5.246   1.613  0.00  0.00    +0.046 A 
ATOM     27  C   UNL     1       3.127  -6.396   1.614  0.00  0.00    +0.117 A 
ATOM     28  C   UNL     1       4.477  -6.319   1.304  0.00  0.00    +0.046 A 
ATOM     29  C   UNL     1       5.046  -5.098   0.998  0.00  0.00    +0.009 A 
BRANCH  27  30
ATOM     30  O   UNL     1       2.565  -7.596   1.916  0.00  0.00    -0.507 OA
ATOM     31  H   UNL     1       2.591  -7.816   2.858  0.00  0.00    +0.292 HD
ENDBRANCH  27  30
ENDBRANCH  23  24
BRANCH  23  32
ATOM     32  C   UNL     1       4.828  -1.720   1.869  0.00  0.00    +0.239 C 
ATOM     33  O   UNL     1       3.986  -0.850   1.929  0.00  0.00    -0.273 OA
ATOM     34  N   UNL     1       5.706  -1.880   2.879  0.00  0.00    -0.311 N 
ATOM     35  H   UNL     1       6.380  -2.576   2.830  0.00  0.00    +0.149 HD
BRANCH  34  36
ATOM     36  C   UNL     1       5.642  -1.003   4.050  0.00  0.00    +0.073 C 
ATOM     37  C   UNL     1       6.425   0.281   3.768  0.00  0.00    +0.022 C 
ATOM     38  C   UNL     1       6.359   1.198   4.992  0.00  0.00    +0.002 C 
ATOM     39  C   UNL     1       6.969   0.483   6.199  0.00  0.00    +0.000 C 
ATOM     40  C   UNL     1       6.187  -0.801   6.480  0.00  0.00    +0.002 C 
ATOM     41  C   UNL     1       6.253  -1.718   5.257  0.00  0.00    +0.022 C 
ENDBRANCH  34  36
ENDBRANCH  23  32
ENDBRANCH   1  23
TORSDOF 9
