REMARK  Name = ZINC00196646
REMARK  6 active torsions:
REMARK  status: ('A' for Active; 'I' for Inactive)
REMARK    1  A    between atoms: C_1  and  C_2
REMARK    2  A    between atoms: C_2  and  O_3
REMARK    3  A    between atoms: O_3  and  C_4
REMARK    4  A    between atoms: C_4  and  C_6
REMARK    5  A    between atoms: C_7  and  N_25
REMARK    6  A    between atoms: C_11  and  C_13
REMARK                            x       y       z     vdW  Elec       q    Type
REMARK                         _______ _______ _______ _____ _____    ______ ____
ROOT
ATOM      1  C   UNL     1      -0.775   1.581   3.566  0.00  0.00    +0.105 C 
ATOM      2  C   UNL     1      -0.287   1.149   4.758  0.00  0.00    +0.195 C 
ATOM      3  O   UNL     1      -0.826   1.550   5.919  0.00  0.00    -0.446 OA
ATOM      4  C   UNL     1      -1.553   2.683   5.966  0.00  0.00    +0.115 C 
ATOM      5  C   UNL     1      -2.122   3.197   4.860  0.00  0.00    +0.045 C 
ATOM      6  C   UNL     1      -1.946   2.522   3.521  0.00  0.00    +0.097 C 
ATOM      7  C   UNL     1      -2.897   4.372   4.914  0.00  0.00    +0.163 C 
ATOM      8  O   UNL     1      -3.383   4.813   3.892  0.00  0.00    -0.292 OA
ATOM      9  C   UNL     1      -3.133   5.091   6.215  0.00  0.00    +0.080 C 
ATOM     10  C   UNL     1      -3.066   4.076   7.361  0.00  0.00    +0.016 C 
ATOM     11  C   UNL     1      -1.711   3.368   7.303  0.00  0.00    +0.075 C 
ENDROOT
BRANCH   6  12
ATOM     12  C   UNL     1      -3.196   1.750   3.186  0.00  0.00    -0.034 A 
ATOM     13  C   UNL     1      -3.616   0.723   4.011  0.00  0.00    +0.004 A 
ATOM     14  C   UNL     1      -4.765   0.018   3.706  0.00  0.00    +0.002 A 
ATOM     15  C   UNL     1      -5.489   0.331   2.571  0.00  0.00    +0.020 A 
ATOM     16  C   UNL     1      -5.066   1.354   1.742  0.00  0.00    +0.041 A 
ATOM     17  C   UNL     1      -3.918   2.064   2.050  0.00  0.00    +0.024 A 
ATOM     18 CL   UNL     1      -5.973   1.748   0.316  0.00  0.00    -0.084 Cl
ENDBRANCH   6  12
BRANCH   2  19
ATOM     19  N   UNL     1       0.779   0.290   4.775  0.00  0.00    -0.329 N 
ATOM     20  H   UNL     1       1.236   0.069   3.948  0.00  0.00    +0.145 HD
ATOM     21  H   UNL     1       1.077  -0.096   5.613  0.00  0.00    +0.145 HD
ENDBRANCH   2  19
BRANCH   1  22
ATOM     22  C   UNL     1      -0.186   1.142   2.370  0.00  0.00    +0.341 C 
ATOM     23  O   UNL     1       0.577   1.872   1.763  0.00  0.00    -0.245 OA
BRANCH  22  24
ATOM     24  O   UNL     1      -0.466  -0.090   1.893  0.00  0.00    -0.462 OA
BRANCH  24  26
ATOM     25  C   UNL     1      -0.266  -1.889   0.291  0.00  0.00    +0.048 C 
ATOM     26  C   UNL     1       0.169  -0.472   0.671  0.00  0.00    +0.229 C 
ENDBRANCH  24  26
ENDBRANCH  22  24
ENDBRANCH   1  22
TORSDOF 5
