REMARK  Name = ZINC13977004
REMARK  9 active torsions:
REMARK  status: ('A' for Active; 'I' for Inactive)
REMARK    1  A    between atoms: C_1  and  C_2
REMARK    2  A    between atoms: C_4  and  O_9
REMARK    3  A    between atoms: O_9  and  C_10
REMARK    4  A    between atoms: C_10  and  C_11
REMARK    5  A    between atoms: N_13  and  N_14
REMARK    6  A    between atoms: N_14  and  C_15
REMARK    7  A    between atoms: C_15  and  N_17
REMARK    8  A    between atoms: C_18  and  C_20
REMARK    9  A    between atoms: C_20  and  C_21
REMARK                            x       y       z     vdW  Elec       q    Type
REMARK                         _______ _______ _______ _____ _____    ______ ____
ROOT
ATOM      1  C   UNL     1      -3.183  -3.667   0.013  0.00  0.00    +0.153 C 
ATOM      2  S   UNL     1      -4.789  -4.260   0.025  0.00  0.00    -0.017 S 
ENDROOT
BRANCH   1   3
ATOM      3  N   UNL     1      -2.147  -4.529  -0.002  0.00  0.00    -0.266 N 
ATOM      4  C   UNL     1      -2.375  -5.857  -0.007  0.00  0.00    +0.223 C 
ATOM      5  O   UNL     1      -3.512  -6.277   0.002  0.00  0.00    -0.275 OA
ATOM      6  H   UNL     1      -1.236  -4.193  -0.009  0.00  0.00    +0.157 HD
BRANCH   4   7
ATOM      7  C   UNL     1      -1.216  -6.821  -0.023  0.00  0.00    +0.131 C 
BRANCH   7   8
ATOM      8  C   UNL     1      -1.738  -8.234  -0.026  0.00  0.00    -0.031 A 
ATOM      9  C   UNL     1      -1.868  -8.918   1.144  0.00  0.00    +0.005 A 
ATOM     10  C   UNL     1      -2.349 -10.226   1.162  0.00  0.00    +0.001 A 
ATOM     11  C   UNL     1      -2.704 -10.857   0.009  0.00  0.00    +0.008 A 
ATOM     12  C   UNL     1      -2.584 -10.184  -1.218  0.00  0.00    -0.018 A 
ATOM     13  C   UNL     1      -2.100  -8.852  -1.235  0.00  0.00    -0.014 A 
ATOM     14  C   UNL     1      -1.976  -8.179  -2.463  0.00  0.00    +0.009 A 
ATOM     15  C   UNL     1      -2.330  -8.811  -3.615  0.00  0.00    +0.001 A 
ATOM     16  C   UNL     1      -2.811 -10.119  -3.598  0.00  0.00    +0.001 A 
ATOM     17  C   UNL     1      -2.940 -10.803  -2.428  0.00  0.00    +0.008 A 
ENDBRANCH   7   8
ENDBRANCH   4   7
ENDBRANCH   1   3
BRANCH   1  18
ATOM     18  N   UNL     1      -2.954  -2.339   0.018  0.00  0.00    -0.245 N 
ATOM     19  H   UNL     1      -3.700  -1.719   0.028  0.00  0.00    +0.172 HD
BRANCH  18  22
ATOM     20  C   UNL     1      -1.412  -0.526   0.013  0.00  0.00    +0.267 C 
ATOM     21  O   UNL     1      -2.344   0.250   0.026  0.00  0.00    -0.271 OA
ATOM     22  N   UNL     1      -1.640  -1.854   0.008  0.00  0.00    -0.232 N 
ATOM     23  H   UNL     1      -0.894  -2.474  -0.003  0.00  0.00    +0.173 HD
BRANCH  20  24
ATOM     24  C   UNL     1       0.002  -0.004   0.002  0.00  0.00    +0.326 C 
BRANCH  24  25
ATOM     25  O   UNL     1      -0.017   1.425   0.010  0.00  0.00    -0.483 OA
BRANCH  25  29
ATOM     26  C   UNL     1       2.524   5.592   0.007  0.00  0.00    +0.045 C 
ATOM     27  C   UNL     1       2.463   4.086   0.000  0.00  0.00    -0.033 A 
ATOM     28  C   UNL     1       1.240   3.444   0.009  0.00  0.00    +0.050 A 
ATOM     29  C   UNL     1       1.185   2.058   0.002  0.00  0.00    +0.122 A 
ATOM     30  C   UNL     1       2.360   1.319  -0.008  0.00  0.00    +0.047 A 
ATOM     31  C   UNL     1       3.580   1.965  -0.022  0.00  0.00    +0.019 A 
ATOM     32  C   UNL     1       3.633   3.348  -0.015  0.00  0.00    +0.021 A 
ATOM     33 BR   UNL     1       5.306   4.229  -0.027  0.00  0.00    -0.050 Br
ENDBRANCH  25  29
ENDBRANCH  24  25
ENDBRANCH  20  24
ENDBRANCH  18  22
ENDBRANCH   1  18
TORSDOF 8
