REMARK  Name = ZINC36700812
REMARK  6 active torsions:
REMARK  status: ('A' for Active; 'I' for Inactive)
REMARK    1  A    between atoms: C_1  and  C_2
REMARK    2  A    between atoms: C_7  and  C_9
REMARK    3  A    between atoms: C_7  and  C_10
REMARK    4  A    between atoms: N_13  and  C_17
REMARK    5  A    between atoms: C_17  and  C_18
REMARK    6  A    between atoms: N_20  and  C_21
REMARK                            x       y       z     vdW  Elec       q    Type
REMARK                         _______ _______ _______ _____ _____    ______ ____
ROOT
ATOM      1  C   UNL     1       0.015   1.510   0.007  0.00  0.00    +0.007 C 
ATOM      2  C   UNL     1       0.036  -0.021  -0.007  0.00  0.00    -0.011 C 
ATOM      3  C   UNL     1       0.751  -0.504  -1.271  0.00  0.00    +0.038 C 
ATOM      4  C   UNL     1       0.737  -2.025  -1.321  0.00  0.00    +0.113 C 
ATOM      5  C   UNL     1       1.300  -2.662  -0.065  0.00  0.00    +0.041 C 
ATOM      6  C   UNL     1       0.833  -2.052   1.245  0.00  0.00    -0.032 C 
ATOM      7  C   UNL     1       0.808  -0.529   1.209  0.00  0.00    +0.009 C 
ATOM      8  C   UNL     1      -0.547  -2.591   1.632  0.00  0.00    +0.011 C 
ATOM      9  C   UNL     1       1.822  -2.480   2.350  0.00  0.00    +0.011 C 
ATOM     10  C   UNL     1      -0.641  -2.540  -1.652  0.00  0.00    +0.247 C 
ATOM     11  O   UNL     1      -1.688  -2.297  -1.091  0.00  0.00    -0.273 OA
ATOM     12  N   UNL     1      -0.488  -3.327  -2.740  0.00  0.00    -0.215 N 
ATOM     13  C   UNL     1       0.763  -3.272  -3.211  0.00  0.00    +0.310 C 
ATOM     14  O   UNL     1       1.143  -3.883  -4.191  0.00  0.00    -0.252 OA
ATOM     15  N   UNL     1       1.550  -2.469  -2.476  0.00  0.00    -0.285 N 
ATOM     16  H   UNL     1       2.469  -2.219  -2.654  0.00  0.00    +0.151 HD
ENDROOT
BRANCH  12  17
ATOM     17  C   UNL     1      -1.558  -4.136  -3.327  0.00  0.00    +0.214 C 
BRANCH  17  18
ATOM     18  C   UNL     1      -2.288  -3.326  -4.367  0.00  0.00    +0.235 C 
ATOM     19  O   UNL     1      -1.948  -2.184  -4.595  0.00  0.00    -0.274 OA
ATOM     20  N   UNL     1      -3.319  -3.870  -5.043  0.00  0.00    -0.282 N 
ATOM     21  H   UNL     1      -3.550  -4.802  -4.908  0.00  0.00    +0.155 HD
BRANCH  20  22
ATOM     22  C   UNL     1      -4.057  -3.089  -5.941  0.00  0.00    +0.070 A 
ATOM     23  C   UNL     1      -3.426  -2.100  -6.685  0.00  0.00    +0.046 A 
ATOM     24  C   UNL     1      -4.157  -1.331  -7.571  0.00  0.00    +0.043 A 
ATOM     25  C   UNL     1      -5.517  -1.545  -7.717  0.00  0.00    +0.023 A 
ATOM     26  C   UNL     1      -6.149  -2.528  -6.979  0.00  0.00    +0.041 A 
ATOM     27  C   UNL     1      -5.422  -3.305  -6.095  0.00  0.00    +0.145 A 
ATOM     28  F   UNL     1      -6.038  -4.270  -5.378  0.00  0.00    -0.204 F 
ATOM     29 CL   UNL     1      -3.369  -0.095  -8.500  0.00  0.00    -0.083 Cl
ENDBRANCH  20  22
ENDBRANCH  17  18
ENDBRANCH  12  17
TORSDOF 3
