REMARK  Name = ZINC02156762
REMARK  8 active torsions:
REMARK  status: ('A' for Active; 'I' for Inactive)
REMARK    1  A    between atoms: C_1  and  C_2
REMARK    2  A    between atoms: C_12  and  C_13
REMARK    3  A    between atoms: C_13  and  C_14
REMARK    4  A    between atoms: N_16  and  CA_17
REMARK    5  A    between atoms: CA_17  and  C_19
REMARK    6  A    between atoms: CA_17  and  C_27
REMARK    7  A    between atoms: C_19  and  C_20
REMARK    8  A    between atoms: C_31  and  C_32
REMARK                            x       y       z     vdW  Elec       q    Type
REMARK                         _______ _______ _______ _____ _____    ______ ____
ROOT
ATOM      1  C   UNL     1      -0.018   1.503   0.010  0.00  0.00    +0.045 C 
ATOM      2  C   UNL     1       0.002  -0.004   0.002  0.00  0.00    -0.029 A 
ATOM      3  C   UNL     1       0.024  -0.764   1.256  0.00  0.00    +0.022 A 
ATOM      4  C   UNL     1       0.026  -0.108   2.488  0.00  0.00    +0.024 A 
ATOM      5  C   UNL     1       0.047  -0.856   3.654  0.00  0.00    +0.029 A 
ATOM      6  C   UNL     1       0.066  -2.264   3.602  0.00  0.00    +0.139 A 
ATOM      7  C   UNL     1       0.064  -2.909   2.374  0.00  0.00    +0.093 A 
ATOM      8  C   UNL     1       0.043  -2.172   1.202  0.00  0.00    +0.143 A 
ATOM      9  O   UNL     1       0.040  -2.796   0.003  0.00  0.00    -0.422 OA
ATOM     10  C   UNL     1       0.020  -2.106  -1.147  0.00  0.00    +0.341 A 
ATOM     11  O   UNL     1       0.019  -2.712  -2.203  0.00  0.00    -0.245 OA
ATOM     12  C   UNL     1      -0.005  -0.695  -1.166  0.00  0.00    +0.049 A 
ATOM     13  O   UNL     1       0.083  -2.713   4.874  0.00  0.00    -0.462 OA
ATOM     14  C   UNL     1       0.077  -1.695   5.750  0.00  0.00    +0.204 A 
ATOM     15  C   UNL     1       0.055  -0.515   5.090  0.00  0.00    +0.028 A 
ENDROOT
BRANCH  15  16
ATOM     16  C   UNL     1       0.041   0.842   5.687  0.00  0.00    -0.014 A 
ATOM     17  C   UNL     1       0.951   1.806   5.255  0.00  0.00    +0.008 A 
ATOM     18  C   UNL     1       0.929   3.069   5.810  0.00  0.00    +0.001 A 
ATOM     19  C   UNL     1       0.014   3.376   6.801  0.00  0.00    +0.000 A 
ATOM     20  C   UNL     1      -0.887   2.422   7.237  0.00  0.00    +0.001 A 
ATOM     21  C   UNL     1      -0.879   1.158   6.686  0.00  0.00    +0.008 A 
ENDBRANCH  15  16
BRANCH  12  22
ATOM     22  C   UNL     1      -0.035   0.043  -2.480  0.00  0.00    +0.138 C 
BRANCH  22  23
ATOM     23  C   UNL     1       1.376   0.309  -2.939  0.00  0.00    +0.218 C 
ATOM     24  O   UNL     1       2.313  -0.064  -2.265  0.00  0.00    -0.275 OA
ATOM     25  N   UNL     1       1.596   0.961  -4.097  0.00  0.00    -0.302 N 
ATOM     26  H   UNL     1       0.847   1.259  -4.636  0.00  0.00    +0.150 HD
BRANCH  25  27
ATOM     27  CA  UNL     1       2.968   1.219  -4.543  0.00  0.00    +0.191 C 
BRANCH  27  28
ATOM     28  C   UNL     1       3.489   0.017  -5.288  0.00  0.00    +0.376 C 
ATOM     29  O   UNL     1       2.787  -0.955  -5.432  0.00  0.00    -0.244 OA
ATOM     30  OXT UNL     1       4.733   0.027  -5.792  0.00  0.00    -0.244 OA
ENDBRANCH  27  28
BRANCH  27  31
ATOM     31  C   UNL     1       2.982   2.438  -5.468  0.00  0.00    +0.069 C 
BRANCH  31  32
ATOM     32  C   UNL     1       2.578   3.664  -4.690  0.00  0.00    -0.045 A 
ATOM     33  C   UNL     1       1.247   4.029  -4.619  0.00  0.00    +0.005 A 
ATOM     34  C   UNL     1       0.875   5.150  -3.901  0.00  0.00    +0.020 A 
ATOM     35  C   UNL     1       1.837   5.913  -3.263  0.00  0.00    +0.041 A 
ATOM     36  C   UNL     1       3.170   5.550  -3.339  0.00  0.00    +0.020 A 
ATOM     37  C   UNL     1       3.540   4.425  -4.052  0.00  0.00    +0.005 A 
ATOM     38 CL   UNL     1       1.372   7.325  -2.366  0.00  0.00    -0.084 Cl
ENDBRANCH  31  32
ENDBRANCH  27  31
ENDBRANCH  25  27
ENDBRANCH  22  23
ENDBRANCH  12  22
TORSDOF 7
