REMARK  Name = ZINC63907187
REMARK  5 active torsions:
REMARK  status: ('A' for Active; 'I' for Inactive)
REMARK    1  A    between atoms: C_1  and  C_2
REMARK    2  A    between atoms: N_11  and  C_15
REMARK    3  A    between atoms: C_15  and  C_16
REMARK    4  A    between atoms: C_16  and  C_18
REMARK    5  A    between atoms: C_26  and  C_28
REMARK                            x       y       z     vdW  Elec       q    Type
REMARK                         _______ _______ _______ _____ _____    ______ ____
ROOT
ATOM      1  C   UNL     1      -0.019   1.526   0.010  0.00  0.00    +0.010 C 
ATOM      2  C   UNL     1       0.002  -0.004   0.002  0.00  0.00    +0.018 C 
ATOM      3  C   UNL     1      -1.434  -0.533   0.012  0.00  0.00    +0.006 C 
ATOM      4  C   UNL     1      -1.413  -2.063   0.024  0.00  0.00    +0.000 C 
ATOM      5  C   UNL     1      -0.690  -2.554   1.280  0.00  0.00    +0.003 C 
ATOM      6  C   UNL     1       0.749  -2.033   1.276  0.00  0.00    +0.035 C 
ATOM      7  C   UNL     1       0.741  -0.509   1.237  0.00  0.00    +0.115 C 
ATOM      8  C   UNL     1       0.111   0.049   2.493  0.00  0.00    +0.247 C 
ATOM      9  O   UNL     1      -1.023  -0.123   2.884  0.00  0.00    -0.273 OA
ATOM     10  N   UNL     1       1.078   0.778   3.087  0.00  0.00    -0.217 N 
ATOM     11  C   UNL     1       2.217   0.755   2.383  0.00  0.00    +0.310 C 
ATOM     12  O   UNL     1       3.230   1.337   2.717  0.00  0.00    -0.252 OA
ATOM     13  N   UNL     1       2.113   0.013   1.264  0.00  0.00    -0.285 N 
ATOM     14  H   UNL     1       2.808  -0.145   0.606  0.00  0.00    +0.151 HD
ENDROOT
BRANCH  10  15
ATOM     15  C   UNL     1       0.904   1.505   4.347  0.00  0.00    +0.197 C 
BRANCH  15  16
ATOM     16  C   UNL     1       1.267   0.606   5.501  0.00  0.00    +0.179 C 
ATOM     17  O   UNL     1       1.635  -0.532   5.291  0.00  0.00    -0.291 OA
BRANCH  16  18
ATOM     18  C   UNL     1       1.178   1.087   6.824  0.00  0.00    +0.027 C 
ATOM     19  C   UNL     1       0.774   2.345   7.232  0.00  0.00    +0.006 A 
ATOM     20  C   UNL     1       0.345   3.494   6.527  0.00  0.00    +0.010 A 
ATOM     21  C   UNL     1       0.002   4.617   7.197  0.00  0.00    +0.001 A 
ATOM     22  C   UNL     1       0.051   4.703   8.598  0.00  0.00    +0.002 A 
ATOM     23  C   UNL     1       0.447   3.664   9.364  0.00  0.00    +0.026 A 
ATOM     24  C   UNL     1       0.837   2.403   8.714  0.00  0.00    +0.043 A 
ATOM     25  N   UNL     1       1.250   1.266   9.197  0.00  0.00    -0.377 N 
ATOM     26  C   UNL     1       1.499   0.331   8.095  0.00  0.00    +0.111 C 
ATOM     27  C   UNL     1       2.967  -0.099   8.095  0.00  0.00    +0.035 C 
ATOM     28  H   UNL     1       1.370   1.068  10.139  0.00  0.00    +0.160 HD
ENDBRANCH  16  18
ENDBRANCH  15  16
ENDBRANCH  10  15
TORSDOF 3
