REMARK  Name = ZINC44909479
REMARK  1 active torsions:
REMARK  status: ('A' for Active; 'I' for Inactive)
REMARK    1  A    between atoms: C_3  and  C_7
REMARK                            x       y       z     vdW  Elec       q    Type
REMARK                         _______ _______ _______ _____ _____    ______ ____
ROOT
ATOM      1  C   UNL     1       3.587   0.679  -0.029  0.00  0.00    +0.117 A 
ATOM      2  C   UNL     1       4.305  -0.317   0.644  0.00  0.00    +0.113 A 
ATOM      3  C   UNL     1       5.710  -0.279   0.600  0.00  0.00    +0.183 A 
ATOM      4  N   UNL     1       6.150  -1.331   1.315  0.00  0.00    -0.216 NA
ATOM      5  H   UNL     1       3.080  -1.719   1.621  0.00  0.00    +0.167 HD
ATOM      6  C   UNL     1       5.135  -2.000   1.787  0.00  0.00    +0.199 A 
ATOM      7  N   UNL     1       3.976  -1.417   1.403  0.00  0.00    -0.341 N 
ATOM      8  N   UNL     1       6.304   0.705  -0.082  0.00  0.00    -0.196 NA
ATOM      9  C   UNL     1       5.588   1.621  -0.700  0.00  0.00    +0.225 A 
ATOM     10  N   UNL     1       4.268   1.619  -0.689  0.00  0.00    -0.214 NA
ATOM     11 CL   UNL     1       6.413   2.877  -1.570  0.00  0.00    -0.041 Cl
ENDROOT
BRANCH   1  14
ATOM     12  C   UNL     1      -0.016   1.348   0.009  0.00  0.00    +0.019 A 
ATOM     13  C   UNL     1       1.313   1.793  -0.001  0.00  0.00    +0.029 A 
ATOM     14  C   UNL     1       2.112   0.686  -0.014  0.00  0.00    +0.067 A 
ATOM     15  N   UNL     1       1.298  -0.419  -0.013  0.00  0.00    -0.359 N 
ATOM     16  H   UNL     1       1.596  -1.342  -0.020  0.00  0.00    +0.165 HD
ATOM     17  C   UNL     1       0.002  -0.004   0.002  0.00  0.00    +0.083 A 
ENDBRANCH   1  14
TORSDOF 1
