REMARK  Name = ZINC18179020
REMARK  4 active torsions:
REMARK  status: ('A' for Active; 'I' for Inactive)
REMARK    1  A    between atoms: C_3  and  C_7
REMARK    2  A    between atoms: C_7  and  C_9
REMARK    3  A    between atoms: C_9  and  S_10
REMARK    4  A    between atoms: S_10  and  C_11
REMARK                            x       y       z     vdW  Elec       q    Type
REMARK                         _______ _______ _______ _____ _____    ______ ____
ROOT
ATOM      1  C   UNL     1       1.141   2.066   0.002  0.00  0.00    +0.170 A 
ATOM      2  N   UNL     1      -0.016   1.341   0.009  0.00  0.00    -0.301 N 
ATOM      3  H   UNL     1      -0.988   1.857   0.021  0.00  0.00    +0.171 HD
ATOM      4  C   UNL     1       0.002  -0.004   0.002  0.00  0.00    +0.261 A 
ATOM      5  O   UNL     1      -1.040  -0.636   0.008  0.00  0.00    -0.267 OA
ATOM      6  C   UNL     1       1.262  -0.682  -0.014  0.00  0.00    +0.075 A 
ATOM      7  C   UNL     1       1.516  -2.124  -0.024  0.00  0.00    -0.023 A 
ATOM      8  C   UNL     1       2.805  -2.519  -0.038  0.00  0.00    -0.004 A 
ATOM      9  S   UNL     1       3.746  -1.017  -0.039  0.00  0.00    -0.073 S 
ATOM     10  C   UNL     1       2.401   0.141  -0.021  0.00  0.00    +0.117 A 
ATOM     11  N   UNL     1       2.314   1.466  -0.012  0.00  0.00    -0.216 NA
ATOM     12  C   UNL     1       3.324  -3.925  -0.049  0.00  0.00    +0.043 C 
ATOM     13  C   UNL     1       2.174  -4.868   0.333  0.00  0.00    +0.005 C 
ATOM     14  C   UNL     1       0.938  -4.495  -0.491  0.00  0.00    +0.005 C 
ATOM     15  C   UNL     1       0.386  -3.151  -0.019  0.00  0.00    +0.037 C 
ENDROOT
BRANCH   1  16
ATOM     16  S   UNL     1       1.065   3.826   0.013  0.00  0.00    -0.080 S 
BRANCH  16  17
ATOM     17  C   UNL     1       2.832   4.217  -0.002  0.00  0.00    +0.158 C 
BRANCH  17  18
ATOM     18  C   UNL     1       3.015   5.713   0.004  0.00  0.00    +0.189 C 
ATOM     19  O   UNL     1       2.046   6.443   0.018  0.00  0.00    -0.290 OA
BRANCH  18  22
ATOM     20  C   UNL     1       6.538   6.500  -0.025  0.00  0.00    +0.020 A 
ATOM     21  C   UNL     1       5.507   5.559  -0.015  0.00  0.00    +0.030 A 
ATOM     22  C   UNL     1       4.316   6.265  -0.005  0.00  0.00    +0.083 A 
ATOM     23  N   UNL     1       4.633   7.607  -0.001  0.00  0.00    -0.358 N 
ATOM     24  H   UNL     1       3.833   8.361   0.011  0.00  0.00    +0.165 HD
ATOM     25  C   UNL     1       5.976   7.734  -0.013  0.00  0.00    +0.083 A 
ENDBRANCH  18  22
ENDBRANCH  17  18
ENDBRANCH  16  17
ENDBRANCH   1  16
TORSDOF 4
