REMARK  Name = ZINC14216729
REMARK  3 active torsions:
REMARK  status: ('A' for Active; 'I' for Inactive)
REMARK    1  A    between atoms: C_10  and  O_15
REMARK    2  A    between atoms: O_15  and  C_16
REMARK    3  A    between atoms: C_22  and  C_25
REMARK                            x       y       z     vdW  Elec       q    Type
REMARK                         _______ _______ _______ _____ _____    ______ ____
ROOT
ATOM      1  C   UNL     1       0.882   5.914   0.085  0.00  0.00    +0.001 A 
ATOM      2  C   UNL     1      -0.496   5.967   0.228  0.00  0.00    +0.002 A 
ATOM      3  C   UNL     1      -1.240   4.808   0.295  0.00  0.00    +0.026 A 
ATOM      4  C   UNL     1      -0.608   3.571   0.219  0.00  0.00    +0.047 A 
ATOM      5  C   UNL     1       0.786   3.519   0.074  0.00  0.00    +0.007 A 
ATOM      6  C   UNL     1       1.525   4.697   0.007  0.00  0.00    +0.010 A 
ATOM      7  C   UNL     1       1.149   2.090   0.024  0.00  0.00    +0.008 A 
ATOM      8  C   UNL     1       2.360   1.415  -0.108  0.00  0.00    +0.014 A 
ATOM      9  C   UNL     1       2.380   0.038  -0.122  0.00  0.00    +0.047 A 
ATOM     10  C   UNL     1       1.193  -0.680  -0.006  0.00  0.00    +0.132 A 
ATOM     11  C   UNL     1      -0.015  -0.020   0.126  0.00  0.00    +0.072 A 
ATOM     12  C   UNL     1      -0.050   1.371   0.142  0.00  0.00    +0.051 A 
ATOM     13  N   UNL     1      -1.092   2.274   0.252  0.00  0.00    -0.354 N 
ATOM     14  H   UNL     1      -2.027   2.034   0.343  0.00  0.00    +0.166 HD
ENDROOT
BRANCH  10  15
ATOM     15  O   UNL     1       1.222  -2.038  -0.020  0.00  0.00    -0.437 OA
BRANCH  15  16
ATOM     16  C   UNL     1       0.712  -2.675  -1.104  0.00  0.00    +0.238 A 
ATOM     17  C   UNL     1       0.611  -4.078  -1.102  0.00  0.00    +0.073 A 
ATOM     18  C   UNL     1       0.102  -4.727  -2.183  0.00  0.00    +0.055 A 
ATOM     19  C   UNL     1      -0.322  -3.977  -3.296  0.00  0.00    +0.178 A 
ATOM     20  N   UNL     1      -0.847  -4.293  -4.468  0.00  0.00    -0.128 NA
ATOM     21  N   UNL     1      -1.059  -3.218  -5.143  0.00  0.00    -0.123 NA
ATOM     22  C   UNL     1      -0.687  -2.169  -4.451  0.00  0.00    +0.258 A 
ATOM     23  N   UNL     1      -0.211  -2.608  -3.266  0.00  0.00    -0.186 N 
ATOM     24  N   UNL     1       0.313  -1.973  -2.138  0.00  0.00    -0.125 NA
BRANCH  22  25
ATOM     25  C   UNL     1      -0.774  -0.732  -4.896  0.00  0.00    +0.454 C 
ATOM     26  F   UNL     1      -1.617  -0.640  -6.009  0.00  0.00    -0.163 F 
ATOM     27  F   UNL     1      -1.289   0.048  -3.856  0.00  0.00    -0.163 F 
ATOM     28  F   UNL     1       0.501  -0.272  -5.238  0.00  0.00    -0.163 F 
ENDBRANCH  22  25
ENDBRANCH  15  16
ENDBRANCH  10  15
TORSDOF 3
