REMARK  Name = ZINC11338480
REMARK  9 active torsions:
REMARK  status: ('A' for Active; 'I' for Inactive)
REMARK    1  A    between atoms: C_4  and  C_7
REMARK    2  A    between atoms: C_7  and  N_8
REMARK    3  A    between atoms: C_9  and  N_36
REMARK    4  A    between atoms: C_10  and  N_17
REMARK    5  A    between atoms: N_17  and  C_18
REMARK    6  A    between atoms: N_17  and  C_26
REMARK    7  A    between atoms: C_18  and  C_19
REMARK    8  A    between atoms: C_19  and  C_20
REMARK    9  A    between atoms: C_26  and  C_27
REMARK                            x       y       z     vdW  Elec       q    Type
REMARK                         _______ _______ _______ _____ _____    ______ ____
ROOT
ATOM      1  N   UNL     1       1.599   7.530  -5.772  0.00  0.00    -0.276 N 
ATOM      2  C   UNL     1       0.546   6.960  -5.094  0.00  0.00    +0.127 A 
ATOM      3  C   UNL     1       0.500   5.600  -4.947  0.00  0.00    +0.134 A 
ATOM      4  C   UNL     1       1.528   4.819  -5.504  0.00  0.00    +0.277 A 
ATOM      5  O   UNL     1       1.507   3.605  -5.390  0.00  0.00    -0.266 OA
ATOM      6  N   UNL     1       2.538   5.420  -6.164  0.00  0.00    -0.273 N 
ATOM      7  H   UNL     1       3.270   4.866  -6.561  0.00  0.00    +0.173 HD
ATOM      8  C   UNL     1       2.570   6.758  -6.295  0.00  0.00    +0.331 A 
ATOM      9  O   UNL     1       3.491   7.279  -6.894  0.00  0.00    -0.246 OA
ENDROOT
BRANCH   2  10
ATOM     10  N   UNL     1      -0.449   7.750  -4.564  0.00  0.00    -0.343 N 
ATOM     11  H   UNL     1      -1.187   7.343  -4.084  0.00  0.00    +0.144 HD
ATOM     12  H   UNL     1      -0.411   8.713  -4.671  0.00  0.00    +0.144 HD
ENDBRANCH   2  10
BRANCH   1  13
ATOM     13  C   UNL     1       1.661   8.985  -5.930  0.00  0.00    +0.163 C 
BRANCH  13  17
ATOM     14  C   UNL     1      -0.359  10.114  -9.521  0.00  0.00    +0.000 A 
ATOM     15  C   UNL     1      -1.056  10.041  -8.330  0.00  0.00    +0.000 A 
ATOM     16  C   UNL     1      -0.402   9.675  -7.168  0.00  0.00    +0.005 A 
ATOM     17  C   UNL     1       0.948   9.383  -7.197  0.00  0.00    -0.028 A 
ATOM     18  C   UNL     1       1.647   9.461  -8.388  0.00  0.00    +0.005 A 
ATOM     19  C   UNL     1       0.992   9.821  -9.551  0.00  0.00    +0.000 A 
ENDBRANCH  13  17
ENDBRANCH   1  13
BRANCH   3  20
ATOM     20  N   UNL     1      -0.568   4.989  -4.250  0.00  0.00    -0.314 N 
BRANCH  20  21
ATOM     21  C   UNL     1      -0.076   4.229  -3.093  0.00  0.00    +0.110 C 
BRANCH  21  22
ATOM     22  C   UNL     1       0.310   5.197  -1.973  0.00  0.00    +0.049 C 
BRANCH  22  23
ATOM     23  C   UNL     1       0.697   4.416  -0.745  0.00  0.00    -0.072 C 
ATOM     24  C   UNL     1       1.953   4.165  -0.556  0.00  0.00    -0.028 C 
ATOM     25  C   UNL     1       2.490   3.391   0.612  0.00  0.00    +0.027 C 
ATOM     26  C   UNL     1       1.443   3.315   1.724  0.00  0.00    +0.004 C 
ATOM     27  C   UNL     1       0.111   2.868   1.109  0.00  0.00    +0.005 C 
ATOM     28  C   UNL     1      -0.396   3.976   0.184  0.00  0.00    +0.030 C 
ENDBRANCH  22  23
ENDBRANCH  21  22
ENDBRANCH  20  21
BRANCH  20  29
ATOM     29  C   UNL     1      -1.359   4.133  -5.145  0.00  0.00    +0.201 C 
BRANCH  29  30
ATOM     30  C   UNL     1      -2.722   3.904  -4.545  0.00  0.00    +0.233 C 
ATOM     31  O   UNL     1      -2.979   4.333  -3.440  0.00  0.00    -0.274 OA
ATOM     32  N   UNL     1      -3.657   3.222  -5.237  0.00  0.00    -0.300 N 
ATOM     33  C   UNL     1      -3.321   2.729  -6.554  0.00  0.00    +0.108 C 
ATOM     34  C   UNL     1      -3.652   3.798  -7.616  0.00  0.00    +0.019 C 
ATOM     35  C   UNL     1      -5.109   3.932  -7.769  0.00  0.00    +0.002 C 
ATOM     36  C   UNL     1      -5.832   4.408  -6.513  0.00  0.00    +0.002 C 
ATOM     37  C   UNL     1      -6.128   3.223  -5.628  0.00  0.00    +0.019 C 
ATOM     38  C   UNL     1      -4.982   3.015  -4.621  0.00  0.00    +0.108 C 
ENDBRANCH  29  30
ENDBRANCH  20  29
ENDBRANCH   3  20
TORSDOF 9
