REMARK  Name = ZINC39656798
REMARK  8 active torsions:
REMARK  status: ('A' for Active; 'I' for Inactive)
REMARK    1  A    between atoms: C_1  and  C_2
REMARK    2  A    between atoms: C_2  and  C_4
REMARK    3  A    between atoms: C_2  and  N_11
REMARK    4  A    between atoms: C_12  and  C_14
REMARK    5  A    between atoms: C_25  and  C_27
REMARK    6  A    between atoms: C_32  and  O_33
REMARK    7  A    between atoms: O_33  and  C_34
REMARK    8  A    between atoms: C_34  and  C_36
REMARK                            x       y       z     vdW  Elec       q    Type
REMARK                         _______ _______ _______ _____ _____    ______ ____
ROOT
ATOM      1  C   UNL     1       0.963  -0.945   3.981  0.00  0.00    +0.100 C 
ATOM      2  C   UNL     1       1.322  -2.399   3.600  0.00  0.00    +0.121 C 
ATOM      3  N   UNL     1       1.048  -3.186   4.825  0.00  0.00    -0.296 N 
ATOM      4  C   UNL     1      -0.195  -2.592   5.374  0.00  0.00    +0.115 C 
ATOM      5  C   UNL     1      -0.033  -1.077   5.145  0.00  0.00    -0.004 C 
ATOM      6  C   UNL     1      -1.374  -0.455   4.766  0.00  0.00    -0.010 C 
ATOM      7  C   UNL     1      -2.329  -0.545   5.960  0.00  0.00    -0.082 C 
ATOM      8  N   UNL     1      -1.748   0.159   7.109  0.00  0.00    +0.379 N 
ATOM      9  C   UNL     1      -0.506  -0.503   7.525  0.00  0.00    -0.082 C 
ATOM     10  C   UNL     1       0.527  -0.410   6.398  0.00  0.00    -0.010 C 
ATOM     11  C   UNL     1       1.767  -4.209   5.328  0.00  0.00    +0.250 C 
ATOM     12  O   UNL     1       1.359  -4.820   6.297  0.00  0.00    -0.270 OA
ATOM     13  H   UNL     1      -1.549   1.114   6.851  0.00  0.00    -0.086 HD
ATOM     14  H   UNL     1      -2.405   0.150   7.874  0.00  0.00    -0.086 HD
ENDROOT
BRANCH  11  15
ATOM     15  C   UNL     1       3.048  -4.589   4.701  0.00  0.00    +0.079 A 
ATOM     16  C   UNL     1       3.209  -4.492   3.317  0.00  0.00    +0.017 A 
ATOM     17  C   UNL     1       4.408  -4.847   2.738  0.00  0.00    +0.001 A 
ATOM     18  C   UNL     1       5.455  -5.301   3.523  0.00  0.00    +0.004 A 
ATOM     19  C   UNL     1       5.309  -5.402   4.892  0.00  0.00    +0.047 A 
ATOM     20  C   UNL     1       4.111  -5.043   5.492  0.00  0.00    +0.144 A 
BRANCH  20  21
ATOM     21  O   UNL     1       3.968  -5.137   6.838  0.00  0.00    -0.425 OA
BRANCH  21  22
ATOM     22  C   UNL     1       4.235  -4.049   7.578  0.00  0.00    +0.309 C 
ATOM     23  O   UNL     1       4.503  -3.002   7.038  0.00  0.00    -0.251 OA
ATOM     24  C   UNL     1       4.202  -4.133   9.082  0.00  0.00    +0.136 C 
ENDBRANCH  21  22
ENDBRANCH  20  21
ENDBRANCH  11  15
BRANCH   1  26
ATOM     25  N   UNL     1       0.359   1.104   2.735  0.00  0.00    -0.308 N 
ATOM     26  C   UNL     1       0.318  -0.241   2.816  0.00  0.00    +0.219 C 
ATOM     27  O   UNL     1      -0.237  -0.884   1.950  0.00  0.00    -0.275 OA
ATOM     28  H   UNL     1       0.803   1.619   3.427  0.00  0.00    +0.149 HD
BRANCH  25  30
ATOM     29  C   UNL     1      -1.756   1.998   1.891  0.00  0.00    +0.033 C 
ATOM     30  C   UNL     1      -0.268   1.789   1.601  0.00  0.00    +0.100 C 
BRANCH  30  31
ATOM     31  C   UNL     1       0.395   3.126   1.393  0.00  0.00    -0.027 A 
ATOM     32  C   UNL     1       0.756   3.896   2.483  0.00  0.00    +0.006 A 
ATOM     33  C   UNL     1       1.365   5.122   2.292  0.00  0.00    +0.015 A 
ATOM     34  C   UNL     1       1.613   5.578   1.010  0.00  0.00    +0.018 A 
ATOM     35  C   UNL     1       1.252   4.808  -0.080  0.00  0.00    +0.015 A 
ATOM     36  C   UNL     1       0.647   3.579   0.112  0.00  0.00    +0.006 A 
ATOM     37 BR   UNL     1       2.446   7.256   0.748  0.00  0.00    -0.050 Br
ENDBRANCH  30  31
ENDBRANCH  25  30
ENDBRANCH   1  26
TORSDOF 6
