REMARK  Name = ZINC21225885
REMARK  9 active torsions:
REMARK  status: ('A' for Active; 'I' for Inactive)
REMARK    1  A    between atoms: C_1  and  C_2
REMARK    2  A    between atoms: C_2  and  O_3
REMARK    3  A    between atoms: O_3  and  C_4
REMARK    4  A    between atoms: C_7  and  C_11
REMARK    5  A    between atoms: C_16  and  C_21
REMARK    6  A    between atoms: C_24  and  O_27
REMARK    7  A    between atoms: O_27  and  C_28
REMARK    8  A    between atoms: C_28  and  C_29
REMARK    9  A    between atoms: C_28  and  C_30
REMARK                            x       y       z     vdW  Elec       q    Type
REMARK                         _______ _______ _______ _____ _____    ______ ____
ROOT
ATOM      1  C   UNL     1       1.819  -2.756   1.161  0.00  0.00    +0.136 C 
ATOM      2  C   UNL     1       3.305  -2.629   1.397  0.00  0.00    +0.036 C 
ATOM      3  C   UNL     1       4.121  -1.733   0.818  0.00  0.00    +0.017 C 
ATOM      4  C   UNL     1       5.599  -1.698   1.170  0.00  0.00    +0.059 C 
ATOM      5  C   UNL     1       6.092  -3.108   1.490  0.00  0.00    +0.032 C 
ATOM      6  C   UNL     1       5.274  -3.630   2.678  0.00  0.00    +0.088 C 
ATOM      7  C   UNL     1       3.820  -3.570   2.319  0.00  0.00    +0.163 C 
ATOM      8  O   UNL     1       3.055  -4.359   2.839  0.00  0.00    -0.292 OA
ATOM      9  N   UNL     1       3.736  -0.806  -0.096  0.00  0.00    -0.316 N 
ATOM     10  C   UNL     1       2.620   0.015   0.029  0.00  0.00    +0.052 A 
ATOM     11  C   UNL     1       2.721   1.393   0.112  0.00  0.00    +0.025 A 
ATOM     12  C   UNL     1       1.567   2.156   0.160  0.00  0.00    +0.002 A 
ATOM     13  C   UNL     1       0.326   1.546   0.132  0.00  0.00    +0.002 A 
ATOM     14  C   UNL     1       0.224   0.167   0.075  0.00  0.00    +0.025 A 
ATOM     15  C   UNL     1       1.378  -0.601   0.031  0.00  0.00    +0.049 A 
ATOM     16  N   UNL     1       1.324  -1.993   0.035  0.00  0.00    -0.331 N 
ATOM     17  H   UNL     1       4.323  -0.662  -1.015  0.00  0.00    +0.152 HD
ATOM     18  H   UNL     1       0.897  -2.511  -0.836  0.00  0.00    +0.147 HD
ENDROOT
BRANCH   1  22
ATOM     19  C   UNL     1      -0.220  -1.452   4.684  0.00  0.00    +0.139 A 
ATOM     20  C   UNL     1       0.526  -0.551   3.939  0.00  0.00    +0.047 A 
ATOM     21  C   UNL     1       1.189  -0.976   2.804  0.00  0.00    +0.009 A 
ATOM     22  C   UNL     1       1.100  -2.297   2.403  0.00  0.00    -0.021 A 
ATOM     23  C   UNL     1       0.356  -3.197   3.144  0.00  0.00    +0.029 A 
ATOM     24  C   UNL     1      -0.304  -2.778   4.284  0.00  0.00    +0.083 A 
ATOM     25 CL   UNL     1      -1.237  -3.909   5.213  0.00  0.00    -0.080 Cl
BRANCH  19  26
ATOM     26  O   UNL     1      -0.868  -1.036   5.804  0.00  0.00    -0.491 OA
BRANCH  26  28
ATOM     27  C   UNL     1      -1.529   0.620   7.435  0.00  0.00    +0.048 C 
ATOM     28  C   UNL     1      -0.737   0.342   6.156  0.00  0.00    +0.226 C 
ENDBRANCH  26  28
ENDBRANCH  19  26
ENDBRANCH   1  22
BRANCH   5  29
ATOM     29  C   UNL     1       7.554  -3.068   1.853  0.00  0.00    -0.043 A 
ATOM     30  C   UNL     1       7.977  -2.314   2.932  0.00  0.00    +0.007 A 
ATOM     31  C   UNL     1       9.316  -2.280   3.269  0.00  0.00    +0.046 A 
ATOM     32  C   UNL     1      10.238  -2.996   2.519  0.00  0.00    +0.121 A 
ATOM     33  C   UNL     1       9.811  -3.748   1.434  0.00  0.00    +0.046 A 
ATOM     34  C   UNL     1       8.470  -3.782   1.103  0.00  0.00    +0.007 A 
BRANCH  32  35
ATOM     35  O   UNL     1      11.556  -2.960   2.846  0.00  0.00    -0.489 OA
BRANCH  35  36
ATOM     36  C   UNL     1      12.463  -3.622   1.962  0.00  0.00    +0.167 C 
ATOM     37  C   UNL     1      13.853  -2.997   2.095  0.00  0.00    +0.051 C 
ATOM     38  C   UNL     1      12.534  -5.107   2.322  0.00  0.00    +0.051 C 
ENDBRANCH  35  36
ENDBRANCH  32  35
ENDBRANCH   5  29
TORSDOF 6
