REMARK  Name = ZINC38931470
REMARK  4 active torsions:
REMARK  status: ('A' for Active; 'I' for Inactive)
REMARK    1  A    between atoms: C_12  and  C_17
REMARK    2  A    between atoms: N_19  and  C_20
REMARK    3  A    between atoms: C_20  and  C_21
REMARK    4  A    between atoms: C_21  and  C_22
REMARK                            x       y       z     vdW  Elec       q    Type
REMARK                         _______ _______ _______ _____ _____    ______ ____
ROOT
ATOM      1  C   UNL     1       6.054  -0.743  -1.999  0.00  0.00    +0.227 C 
ATOM      2  O   UNL     1       5.150  -0.216  -2.613  0.00  0.00    -0.275 OA
ATOM      3  N   UNL     1       7.001  -1.439  -2.659  0.00  0.00    -0.314 N 
ATOM      4  H   UNL     1       7.724  -1.860  -2.168  0.00  0.00    +0.149 HD
ENDROOT
BRANCH   1  16
ATOM      5  C   UNL     1      -0.016   1.357   0.009  0.00  0.00    +0.001 A 
ATOM      6  C   UNL     1       1.169   2.091   0.002  0.00  0.00    +0.001 A 
ATOM      7  C   UNL     1       2.379   1.468  -0.011  0.00  0.00    +0.009 A 
ATOM      8  C   UNL     1       2.437   0.063  -0.017  0.00  0.00    -0.011 A 
ATOM      9  C   UNL     1       1.233  -0.682  -0.014  0.00  0.00    -0.017 A 
ATOM     10  C   UNL     1       0.002  -0.004   0.002  0.00  0.00    +0.008 A 
ATOM     11  C   UNL     1       1.294  -2.086  -0.027  0.00  0.00    +0.012 A 
ATOM     12  C   UNL     1       2.502  -2.704  -0.046  0.00  0.00    +0.047 A 
ATOM     13  C   UNL     1       3.699  -1.970  -0.046  0.00  0.00    +0.135 A 
ATOM     14  C   UNL     1       3.676  -0.608  -0.024  0.00  0.00    +0.004 A 
ATOM     15  C   UNL     1       4.937   0.216   0.006  0.00  0.00    +0.063 C 
ATOM     16  C   UNL     1       6.119  -0.617  -0.499  0.00  0.00    +0.188 C 
ATOM     17  C   UNL     1       6.011  -1.988   0.140  0.00  0.00    +0.325 C 
ATOM     18  O   UNL     1       6.906  -2.448   0.809  0.00  0.00    -0.250 OA
ATOM     19  O   UNL     1       4.869  -2.668  -0.077  0.00  0.00    -0.425 OA
ENDBRANCH   1  16
BRANCH   3  20
ATOM     20  C   UNL     1       6.938  -1.561  -4.117  0.00  0.00    +0.109 C 
BRANCH  20  21
ATOM     21  C   UNL     1       8.122  -2.395  -4.611  0.00  0.00    +0.056 C 
BRANCH  21  22
ATOM     22  C   UNL     1       8.057  -2.520  -6.111  0.00  0.00    -0.021 A 
ATOM     23  C   UNL     1       8.576  -1.560  -7.089  0.00  0.00    +0.003 A 
ATOM     24  C   UNL     1       9.236  -0.334  -6.989  0.00  0.00    +0.010 A 
ATOM     25  C   UNL     1       9.599   0.335  -8.124  0.00  0.00    +0.001 A 
ATOM     26  C   UNL     1       9.316  -0.194  -9.376  0.00  0.00    +0.002 A 
ATOM     27  C   UNL     1       8.665  -1.402  -9.497  0.00  0.00    +0.026 A 
ATOM     28  C   UNL     1       8.287  -2.101  -8.356  0.00  0.00    +0.047 A 
ATOM     29  N   UNL     1       7.641  -3.299  -8.148  0.00  0.00    -0.360 N 
ATOM     30  C   UNL     1       7.518  -3.535  -6.805  0.00  0.00    +0.087 A 
ATOM     31  H   UNL     1       7.324  -3.890  -8.848  0.00  0.00    +0.165 HD
ENDBRANCH  21  22
ENDBRANCH  20  21
ENDBRANCH   3  20
TORSDOF 4
