REMARK  Name = ZINC21879081
REMARK  10 active torsions:
REMARK  status: ('A' for Active; 'I' for Inactive)
REMARK    1  A    between atoms: C_1  and  C_2
REMARK    2  A    between atoms: C_2  and  O_3
REMARK    3  A    between atoms: O_3  and  C_4
REMARK    4  A    between atoms: C_4  and  C_6
REMARK    5  A    between atoms: C_12  and  C_24
REMARK    6  A    between atoms: C_12  and  C_25
REMARK    7  A    between atoms: N_13  and  C_16
REMARK    8  A    between atoms: C_18  and  C_23
REMARK    9  A    between atoms: C_20  and  C_22
REMARK   10  A    between atoms: N_27  and  C_28
REMARK                            x       y       z     vdW  Elec       q    Type
REMARK                         _______ _______ _______ _____ _____    ______ ____
ROOT
ATOM      1  C   UNL     1      -5.621   3.028   1.205  0.00  0.00    +0.170 A 
ATOM      2  C   UNL     1      -4.682   4.083   1.271  0.00  0.00    +0.069 A 
ATOM      3  C   UNL     1      -3.473   3.490   1.140  0.00  0.00    +0.125 A 
ATOM      4  N   UNL     1      -3.690   2.134   1.014  0.00  0.00    -0.256 N 
ATOM      5  N   UNL     1      -4.944   1.902   1.046  0.00  0.00    -0.164 NA
ATOM      6  C   UNL     1      -2.569   1.195   0.878  0.00  0.00    +0.179 C 
ATOM      7  C   UNL     1      -1.406   1.894   0.176  0.00  0.00    +0.135 C 
ATOM      8  N   UNL     1      -1.121   3.209   0.738  0.00  0.00    -0.250 N 
ATOM      9  C   UNL     1      -2.114   4.055   1.104  0.00  0.00    +0.270 C 
ATOM     10  O   UNL     1      -1.895   5.217   1.387  0.00  0.00    -0.268 OA
ATOM     11  C   UNL     1      -1.749   2.056  -1.306  0.00  0.00    +0.044 C 
ENDROOT
BRANCH   8  12
ATOM     12  C   UNL     1       0.209   3.607   0.903  0.00  0.00    +0.038 A 
ATOM     13  C   UNL     1       0.691   3.919   2.168  0.00  0.00    +0.027 A 
ATOM     14  C   UNL     1       2.007   4.306   2.329  0.00  0.00    -0.048 A 
ATOM     15  C   UNL     1       2.842   4.394   1.230  0.00  0.00    +0.006 A 
ATOM     16  C   UNL     1       2.364   4.090  -0.031  0.00  0.00    -0.048 A 
ATOM     17  C   UNL     1       1.051   3.697  -0.198  0.00  0.00    +0.027 A 
ATOM     18  C   UNL     1       3.278   4.188  -1.226  0.00  0.00    +0.044 C 
ATOM     19  C   UNL     1       2.531   4.638   3.702  0.00  0.00    +0.044 C 
ENDBRANCH   8  12
BRANCH   7  20
ATOM     20  C   UNL     1      -0.175   1.034   0.299  0.00  0.00    +0.239 C 
ATOM     21  O   UNL     1       0.197   0.369  -0.644  0.00  0.00    -0.273 OA
ATOM     22  N   UNL     1       0.516   1.008   1.456  0.00  0.00    -0.311 N 
ATOM     23  H   UNL     1       0.228   1.674   2.284  0.00  0.00    +0.149 HD
BRANCH  22  24
ATOM     24  C   UNL     1       1.651   0.095   1.612  0.00  0.00    +0.073 C 
ATOM     25  C   UNL     1       1.150  -1.303   2.032  0.00  0.00    +0.022 C 
ATOM     26  C   UNL     1       2.227  -1.809   3.025  0.00  0.00    +0.002 C 
ATOM     27  C   UNL     1       2.603  -0.525   3.806  0.00  0.00    +0.002 C 
ATOM     28  C   UNL     1       2.575   0.589   2.739  0.00  0.00    +0.022 C 
ENDBRANCH  22  24
ENDBRANCH   7  20
BRANCH   1  29
ATOM     29  C   UNL     1      -7.089   3.159   1.295  0.00  0.00    +0.359 C 
ATOM     30  O   UNL     1      -7.593   4.254   1.441  0.00  0.00    -0.243 OA
BRANCH  29  31
ATOM     31  O   UNL     1      -7.869   2.063   1.216  0.00  0.00    -0.460 OA
BRANCH  31  33
ATOM     32  C   UNL     1     -10.018   0.918   1.202  0.00  0.00    +0.048 C 
ATOM     33  C   UNL     1      -9.303   2.267   1.312  0.00  0.00    +0.229 C 
ENDBRANCH  31  33
ENDBRANCH  29  31
ENDBRANCH   1  29
TORSDOF 6
