REMARK  Name = ZINC63531483
REMARK  11 active torsions:
REMARK  status: ('A' for Active; 'I' for Inactive)
REMARK    1  A    between atoms: C_1  and  N_2
REMARK    2  A    between atoms: N_2  and  C_3
REMARK    3  A    between atoms: N_2  and  C_29
REMARK    4  A    between atoms: C_3  and  C_4
REMARK    5  A    between atoms: C_4  and  C_5
REMARK    6  A    between atoms: C_5  and  N_6
REMARK    7  A    between atoms: C_7  and  C_9
REMARK    8  A    between atoms: C_11  and  S_21
REMARK    9  A    between atoms: C_15  and  O_19
REMARK   10  A    between atoms: O_19  and  C_20
REMARK   11  A    between atoms: S_21  and  C_22
REMARK                            x       y       z     vdW  Elec       q    Type
REMARK                         _______ _______ _______ _____ _____    ______ ____
ROOT
ATOM      1  C   UNL     1      -0.424  -0.181  -6.747  0.00  0.00    +0.204 C 
ATOM      2  C   UNL     1      -0.225   1.164  -7.411  0.00  0.00    +0.030 C 
ATOM      3  C   UNL     1       0.261   0.889  -8.682  0.00  0.00    +0.010 A 
ATOM      4  C   UNL     1       0.633   1.725  -9.760  0.00  0.00    +0.014 A 
ATOM      5  C   UNL     1       1.086   1.175 -10.914  0.00  0.00    +0.046 A 
ATOM      6  C   UNL     1       1.196  -0.214 -11.069  0.00  0.00    +0.122 A 
ATOM      7  C   UNL     1       0.855  -1.075 -10.069  0.00  0.00    +0.071 A 
ATOM      8  C   UNL     1       0.374  -0.570  -8.839  0.00  0.00    +0.048 A 
ATOM      9  N   UNL     1      -0.017  -1.185  -7.735  0.00  0.00    -0.369 N 
ATOM     10  H   UNL     1      -0.033  -2.145  -7.600  0.00  0.00    +0.161 HD
ENDROOT
BRANCH   1  12
ATOM     11  N   UNL     1       0.035   0.279  -4.360  0.00  0.00    -0.313 N 
ATOM     12  C   UNL     1       0.440  -0.284  -5.516  0.00  0.00    +0.240 C 
ATOM     13  O   UNL     1       1.498  -0.874  -5.566  0.00  0.00    -0.273 OA
ATOM     14  H   UNL     1      -0.811   0.750  -4.320  0.00  0.00    +0.149 HD
BRANCH  11  15
ATOM     15  C   UNL     1       0.875   0.178  -3.164  0.00  0.00    +0.102 C 
BRANCH  15  16
ATOM     16  C   UNL     1       0.190   0.895  -1.999  0.00  0.00    +0.000 C 
BRANCH  16  17
ATOM     17  C   UNL     1       1.066   0.790  -0.749  0.00  0.00    -0.077 C 
BRANCH  17  19
ATOM     18  C   UNL     1       0.321   2.916   0.076  0.00  0.00    -0.096 C 
ATOM     19  N   UNL     1       0.409   1.479   0.370  0.00  0.00    +0.380 N 
ATOM     20  H   UNL     1      -0.519   1.104   0.496  0.00  0.00    -0.082 HD
BRANCH  19  21
ATOM     21  C   UNL     1       1.191   1.277   1.597  0.00  0.00    -0.069 C 
ATOM     22  C   UNL     1       1.282  -0.220   1.902  0.00  0.00    -0.015 C 
ATOM     23  C   UNL     1       2.096  -0.430   3.180  0.00  0.00    -0.002 C 
ATOM     24  C   UNL     1       1.412   0.287   4.345  0.00  0.00    -0.000 C 
ATOM     25  C   UNL     1       1.320   1.784   4.040  0.00  0.00    -0.002 C 
ATOM     26  C   UNL     1       0.506   1.994   2.762  0.00  0.00    -0.015 C 
ENDBRANCH  19  21
ENDBRANCH  17  19
ENDBRANCH  16  17
ENDBRANCH  15  16
ENDBRANCH  11  15
ENDBRANCH   1  12
BRANCH   6  27
ATOM     27  O   UNL     1       1.655  -0.714 -12.244  0.00  0.00    -0.495 OA
ATOM     28  C   UNL     1       2.000   0.230 -13.260  0.00  0.00    +0.277 C 
ENDBRANCH   6  27
BRANCH   2  29
ATOM     29  S   UNL     1      -0.528   2.659  -6.755  0.00  0.00    -0.091 S 
BRANCH  29  30
ATOM     30  C   UNL     1      -2.281   2.706  -6.592  0.00  0.00    +0.013 A 
ATOM     31  C   UNL     1      -3.056   1.674  -7.106  0.00  0.00    +0.016 A 
ATOM     32  C   UNL     1      -4.431   1.713  -6.976  0.00  0.00    +0.021 A 
ATOM     33  C   UNL     1      -5.036   2.780  -6.335  0.00  0.00    +0.041 A 
ATOM     34  C   UNL     1      -4.267   3.810  -5.822  0.00  0.00    +0.021 A 
ATOM     35  C   UNL     1      -2.892   3.773  -5.943  0.00  0.00    +0.016 A 
ATOM     36 CL   UNL     1      -6.764   2.826  -6.173  0.00  0.00    -0.084 Cl
ENDBRANCH  29  30
ENDBRANCH   2  29
TORSDOF 9
