REMARK  Name = ZINC05711963
REMARK  15 active torsions:
REMARK  status: ('A' for Active; 'I' for Inactive)
REMARK    1  A    between atoms: C_1  and  C_2
REMARK    2  A    between atoms: C_7  and  O_8
REMARK    3  A    between atoms: O_8  and  C_9
REMARK    4  A    between atoms: C_9  and  C_10
REMARK    5  A    between atoms: C_10  and  N_54
REMARK    6  A    between atoms: C_11  and  C_12
REMARK    7  A    between atoms: C_11  and  N_54
REMARK    8  A    between atoms: C_12  and  C_14
REMARK    9  A    between atoms: C_12  and  O_26
REMARK   10  A    between atoms: C_14  and  O_15
REMARK   11  A    between atoms: O_15  and  C_16
REMARK   12  A    between atoms: C_18  and  C_25
REMARK   13  A    between atoms: C_19  and  O_24
REMARK   14  A    between atoms: C_20  and  C_23
REMARK   15  A    between atoms: C_21  and  C_22
REMARK                            x       y       z     vdW  Elec       q    Type
REMARK                         _______ _______ _______ _____ _____    ______ ____
ROOT
ATOM      1  C   UNL     1      -4.170   0.778   2.576  0.00  0.00    +0.135 C 
ENDROOT
BRANCH   1   2
ATOM      2  O   UNL     1      -4.029  -0.636   2.731  0.00  0.00    -0.390 OA
ATOM      3  H   UNL     1      -3.567  -0.899   3.538  0.00  0.00    +0.210 HD
ENDBRANCH   1   2
BRANCH   1   4
ATOM      4  C   UNL     1      -2.785   1.427   2.537  0.00  0.00    -0.047 C 
BRANCH   4   5
ATOM      5  N   UNL     1      -2.070   0.968   1.331  0.00  0.00    +0.383 N 
ATOM      6  H   UNL     1      -1.975  -0.054   1.361  0.00  0.00    -0.086 HD
ATOM      7  H   UNL     1      -2.605   1.238   0.497  0.00  0.00    -0.086 HD
BRANCH   5   8
ATOM      8  C   UNL     1      -0.729   1.579   1.267  0.00  0.00    -0.041 C 
BRANCH   8   9
ATOM      9  C   UNL     1      -0.013   1.086   0.008  0.00  0.00    +0.210 C 
BRANCH   9  10
ATOM     10  O   UNL     1      -0.704   1.559  -1.150  0.00  0.00    -0.494 OA
BRANCH  10  17
ATOM     11  C   UNL     1      -2.055   2.485  -3.451  0.00  0.00    +0.047 C 
ATOM     12  C   UNL     1      -0.815   1.633  -3.525  0.00  0.00    -0.009 A 
ATOM     13  C   UNL     1      -0.294   1.274  -4.753  0.00  0.00    +0.007 A 
ATOM     14  C   UNL     1       0.844   0.492  -4.822  0.00  0.00    +0.000 A 
ATOM     15  C   UNL     1       1.464   0.067  -3.661  0.00  0.00    +0.004 A 
ATOM     16  C   UNL     1       0.951   0.428  -2.431  0.00  0.00    +0.046 A 
ATOM     17  C   UNL     1      -0.194   1.208  -2.359  0.00  0.00    +0.123 A 
ENDBRANCH  10  17
ENDBRANCH   9  10
ENDBRANCH   8   9
ENDBRANCH   5   8
ENDBRANCH   4   5
ENDBRANCH   1   4
BRANCH   1  18
ATOM     18  C   UNL     1      -4.964   1.343   3.756  0.00  0.00    +0.258 C 
BRANCH  18  19
ATOM     19  O   UNL     1      -6.296   0.825   3.724  0.00  0.00    -0.489 OA
BRANCH  19  20
ATOM     20  C   UNL     1      -7.139   1.231   4.711  0.00  0.00    +0.124 A 
ATOM     21  C   UNL     1      -6.691   2.105   5.690  0.00  0.00    +0.052 A 
ATOM     22  C   UNL     1      -7.550   2.522   6.689  0.00  0.00    -0.005 A 
ATOM     23  C   UNL     1      -8.856   2.058   6.718  0.00  0.00    +0.123 A 
ATOM     24  C   UNL     1      -9.303   1.179   5.743  0.00  0.00    -0.002 A 
ATOM     25  C   UNL     1      -8.445   0.766   4.741  0.00  0.00    -0.002 A 
ATOM     26  C   UNL     1      -8.930  -0.189   3.680  0.00  0.00    +0.048 C 
ATOM     27  C   UNL     1     -10.722   0.675   5.775  0.00  0.00    +0.048 C 
ATOM     28  C   UNL     1      -7.065   3.476   7.749  0.00  0.00    +0.047 C 
BRANCH  23  29
ATOM     29  O   UNL     1      -9.700   2.463   7.705  0.00  0.00    -0.506 OA
ATOM     30  H   UNL     1      -9.689   1.897   8.489  0.00  0.00    +0.292 HD
ENDBRANCH  23  29
ENDBRANCH  19  20
ENDBRANCH  18  19
ENDBRANCH   1  18
TORSDOF 11
