REMARK  Name = ZINC08923433
REMARK  9 active torsions:
REMARK  status: ('A' for Active; 'I' for Inactive)
REMARK    1  A    between atoms: C_1  and  C_2
REMARK    2  A    between atoms: C_2  and  C_3
REMARK    3  A    between atoms: C_2  and  N_52
REMARK    4  A    between atoms: C_11  and  O_27
REMARK    5  A    between atoms: C_13  and  C_16
REMARK    6  A    between atoms: C_18  and  O_25
REMARK    7  A    between atoms: C_19  and  O_23
REMARK    8  A    between atoms: O_23  and  C_24
REMARK    9  A    between atoms: O_25  and  C_26
REMARK                            x       y       z     vdW  Elec       q    Type
REMARK                         _______ _______ _______ _____ _____    ______ ____
ROOT
ATOM      1  C   UNL     1       1.737   4.234  -6.529  0.00  0.00    -0.073 C 
ATOM      2  C   UNL     1       2.196   4.623  -5.121  0.00  0.00    +0.018 C 
ATOM      3  C   UNL     1       1.023   4.427  -4.167  0.00  0.00    -0.027 A 
ATOM      4  C   UNL     1      -0.237   4.327  -4.655  0.00  0.00    -0.021 A 
ATOM      5  S   UNL     1      -1.263   4.111  -3.227  0.00  0.00    -0.080 S 
ATOM      6  C   UNL     1      -0.051   4.157  -2.020  0.00  0.00    +0.080 A 
ATOM      7  C   UNL     1       1.147   4.333  -2.725  0.00  0.00    +0.067 A 
ATOM      8  C   UNL     1       2.400   4.402  -1.930  0.00  0.00    +0.220 C 
ATOM      9  N   UNL     1       2.334   4.096  -0.665  0.00  0.00    -0.223 NA
ATOM     10  C   UNL     1       1.143   3.596   0.011  0.00  0.00    +0.224 C 
ATOM     11  N   UNL     1      -0.091   4.060  -0.650  0.00  0.00    -0.313 N 
ATOM     12  C   UNL     1      -0.641   4.392  -6.094  0.00  0.00    -0.035 C 
ATOM     13  H   UNL     1      -0.889   4.283  -0.144  0.00  0.00    +0.149 HD
ATOM     14  N   UNL     1       0.495   4.962  -6.860  0.00  0.00    +0.384 N 
ATOM     15  H   UNL     1       0.608   5.950  -6.604  0.00  0.00    -0.081 HD
ENDROOT
BRANCH  10  16
ATOM     16  C   UNL     1       1.169   2.089   0.002  0.00  0.00    -0.001 A 
ATOM     17  C   UNL     1       2.379   1.421  -0.013  0.00  0.00    +0.056 A 
ATOM     18  C   UNL     1       2.405   0.035  -0.021  0.00  0.00    +0.163 A 
ATOM     19  C   UNL     1       1.212  -0.680  -0.013  0.00  0.00    +0.175 A 
ATOM     20  C   UNL     1       0.002  -0.004   0.002  0.00  0.00    +0.063 A 
ATOM     21  C   UNL     1      -0.017   1.379   0.010  0.00  0.00    +0.026 A 
ATOM     22 BR   UNL     1      -1.622  -0.972   0.013  0.00  0.00    -0.046 Br
BRANCH  19  23
ATOM     23  O   UNL     1       1.232  -2.040  -0.021  0.00  0.00    -0.490 OA
ATOM     24  C   UNL     1       1.230  -2.682  -1.298  0.00  0.00    +0.277 C 
ENDBRANCH  19  23
BRANCH  18  25
ATOM     25  O   UNL     1       3.595  -0.624  -0.035  0.00  0.00    -0.491 OA
ATOM     26  C   UNL     1       4.779   0.176  -0.042  0.00  0.00    +0.277 C 
ENDBRANCH  18  25
ENDBRANCH  10  16
BRANCH  14  28
ATOM     27  C   UNL     1       0.032   3.409  -8.726  0.00  0.00    -0.014 C 
ATOM     28  C   UNL     1       0.224   4.869  -8.311  0.00  0.00    -0.074 C 
ATOM     29  C   UNL     1      -1.044   5.662  -8.632  0.00  0.00    -0.014 C 
ENDBRANCH  14  28
BRANCH   8  30
ATOM     30  O   UNL     1       3.571   4.768  -2.501  0.00  0.00    -0.492 OA
ATOM     31  H   UNL     1       4.321   4.778  -1.890  0.00  0.00    +0.294 HD
ENDBRANCH   8  30
TORSDOF 5
