REMARK  Name = ZINC12402328
REMARK  7 active torsions:
REMARK  status: ('A' for Active; 'I' for Inactive)
REMARK    1  A    between atoms: C_1  and  C_2
REMARK    2  A    between atoms: C_2  and  C_32
REMARK    3  A    between atoms: C_6  and  C_21
REMARK    4  A    between atoms: C_8  and  C_19
REMARK    5  A    between atoms: C_9  and  N_18
REMARK    6  A    between atoms: N_10  and  C_11
REMARK    7  A    between atoms: C_24  and  N_26
REMARK                            x       y       z     vdW  Elec       q    Type
REMARK                         _______ _______ _______ _____ _____    ______ ____
ROOT
ATOM      1  C   UNL     1      -6.097   8.932  -1.422  0.00  0.00    +0.011 C 
ATOM      2  C   UNL     1      -5.191   8.549  -2.594  0.00  0.00    -0.023 C 
ATOM      3  C   UNL     1      -3.771   8.296  -2.085  0.00  0.00    +0.058 C 
ATOM      4  C   UNL     1      -3.781   7.150  -1.103  0.00  0.00    +0.025 C 
ATOM      5  C   UNL     1      -4.671   6.143  -1.219  0.00  0.00    +0.026 C 
ATOM      6  C   UNL     1      -4.667   4.988  -0.251  0.00  0.00    +0.104 C 
ATOM      7  C   UNL     1      -3.916   5.334   1.001  0.00  0.00    +0.077 C 
ATOM      8  C   UNL     1      -3.053   6.382   1.034  0.00  0.00    +0.107 C 
ATOM      9  N   UNL     1      -2.859   7.153  -0.090  0.00  0.00    -0.260 N 
ATOM     10  C   UNL     1      -5.633   6.141  -2.246  0.00  0.00    +0.162 C 
ATOM     11  O   UNL     1      -6.417   5.216  -2.327  0.00  0.00    -0.292 OA
ATOM     12  C   UNL     1      -5.710   7.262  -3.246  0.00  0.00    +0.086 C 
ATOM     13  C   UNL     1      -5.175   9.681  -3.623  0.00  0.00    +0.011 C 
ENDROOT
BRANCH   9  14
ATOM     14  C   UNL     1      -1.710   7.945  -0.198  0.00  0.00    +0.041 A 
ATOM     15  C   UNL     1      -0.578   7.447  -0.830  0.00  0.00    +0.024 A 
ATOM     16  C   UNL     1       0.554   8.231  -0.935  0.00  0.00    +0.003 A 
ATOM     17  C   UNL     1       0.561   9.512  -0.413  0.00  0.00    +0.015 A 
ATOM     18  C   UNL     1      -0.565  10.012   0.216  0.00  0.00    +0.020 A 
ATOM     19  C   UNL     1      -1.702   9.233   0.320  0.00  0.00    +0.039 A 
ATOM     20 BR   UNL     1      -0.550  11.764   0.928  0.00  0.00    -0.050 Br
ENDBRANCH   9  14
BRANCH   6  21
ATOM     21  C   UNL     1      -4.015   3.797  -0.905  0.00  0.00    +0.005 A 
ATOM     22  C   UNL     1      -4.539   2.575  -1.170  0.00  0.00    +0.014 A 
ATOM     23  C   UNL     1      -3.748   1.627  -1.790  0.00  0.00    +0.041 A 
ATOM     24  C   UNL     1      -2.468   1.942  -2.105  0.00  0.00    +0.164 A 
ATOM     25  S   UNL     1      -2.352   3.629  -1.532  0.00  0.00    -0.068 S 
BRANCH  24  26
ATOM     26  N   UNL     1      -1.435   1.107  -2.759  0.00  0.00    +0.063 N 
ATOM     27  O   UNL     1      -1.695  -0.037  -3.087  0.00  0.00    -0.126 OA
ATOM     28  O   UNL     1      -0.328   1.565  -2.975  0.00  0.00    -0.126 OA
ENDBRANCH  24  26
ENDBRANCH   6  21
BRANCH   8  29
ATOM     29  N   UNL     1      -2.371   6.673   2.192  0.00  0.00    -0.345 N 
ATOM     30  H   UNL     1      -2.434   6.077   2.954  0.00  0.00    +0.144 HD
ATOM     31  H   UNL     1      -1.827   7.474   2.246  0.00  0.00    +0.144 HD
ENDBRANCH   8  29
BRANCH   7  32
ATOM     32  C   UNL     1      -4.113   4.546   2.181  0.00  0.00    +0.099 C 
ATOM     33  N   UNL     1      -4.269   3.922   3.117  0.00  0.00    -0.191 NA
ENDBRANCH   7  32
TORSDOF 5
