REMARK  Name = ZINC00709670
REMARK  6 active torsions:
REMARK  status: ('A' for Active; 'I' for Inactive)
REMARK    1  A    between atoms: C_1  and  O_2
REMARK    2  A    between atoms: O_2  and  C_3
REMARK    3  A    between atoms: C_6  and  C_11
REMARK    4  A    between atoms: C_8  and  O_9
REMARK    5  A    between atoms: O_9  and  C_10
REMARK    6  A    between atoms: C_16  and  C_26
REMARK                            x       y       z     vdW  Elec       q    Type
REMARK                         _______ _______ _______ _____ _____    ______ ____
ROOT
ATOM      1  C   UNL     1      -2.375   0.763   0.640  0.00  0.00    +0.032 C 
ATOM      2  C   UNL     1      -2.362  -0.002  -0.681  0.00  0.00    +0.059 C 
ATOM      3  C   UNL     1      -3.691  -0.712  -0.882  0.00  0.00    +0.017 C 
ATOM      4  C   UNL     1      -4.387  -1.168   0.173  0.00  0.00    +0.036 C 
ATOM      5  C   UNL     1      -5.713  -1.887   0.116  0.00  0.00    +0.137 C 
ATOM      6  N   UNL     1      -6.111  -2.310  -1.210  0.00  0.00    -0.331 N 
ATOM      7  C   UNL     1      -6.385  -1.377  -2.210  0.00  0.00    +0.049 A 
ATOM      8  C   UNL     1      -7.668  -1.203  -2.703  0.00  0.00    +0.025 A 
ATOM      9  C   UNL     1      -7.914  -0.190  -3.614  0.00  0.00    +0.002 A 
ATOM     10  C   UNL     1      -6.890   0.642  -4.029  0.00  0.00    +0.002 A 
ATOM     11  C   UNL     1      -5.603   0.456  -3.554  0.00  0.00    +0.025 A 
ATOM     12  C   UNL     1      -5.352  -0.568  -2.658  0.00  0.00    +0.052 A 
ATOM     13  N   UNL     1      -4.077  -0.841  -2.177  0.00  0.00    -0.316 N 
ATOM     14  C   UNL     1      -3.893  -0.982   1.486  0.00  0.00    +0.163 C 
ATOM     15  O   UNL     1      -4.528  -1.429   2.421  0.00  0.00    -0.292 OA
ATOM     16  C   UNL     1      -2.613  -0.252   1.765  0.00  0.00    +0.088 C 
ATOM     17  H   UNL     1      -6.188  -3.256  -1.406  0.00  0.00    +0.147 HD
ATOM     18  H   UNL     1      -3.412  -1.145  -2.815  0.00  0.00    +0.152 HD
ENDROOT
BRANCH   1  22
ATOM     19  C   UNL     1       1.388   2.711   1.216  0.00  0.00    +0.161 A 
ATOM     20  C   UNL     1       1.334   1.336   1.053  0.00  0.00    +0.049 A 
ATOM     21  C   UNL     1       0.116   0.709   0.871  0.00  0.00    +0.008 A 
ATOM     22  C   UNL     1      -1.050   1.451   0.845  0.00  0.00    -0.040 A 
ATOM     23  C   UNL     1      -1.004   2.823   1.012  0.00  0.00    +0.053 A 
ATOM     24  C   UNL     1       0.214   3.458   1.195  0.00  0.00    +0.162 A 
BRANCH  19  26
ATOM     25  C   UNL     1       3.750   2.500   1.404  0.00  0.00    +0.277 C 
ATOM     26  O   UNL     1       2.586   3.329   1.395  0.00  0.00    -0.491 OA
ENDBRANCH  19  26
BRANCH  24  27
ATOM     27  O   UNL     1       0.262   4.807   1.355  0.00  0.00    -0.491 OA
ATOM     28  C   UNL     1      -0.982   5.509   1.323  0.00  0.00    +0.277 C 
ENDBRANCH  24  27
ENDBRANCH   1  22
BRANCH   5  29
ATOM     29  C   UNL     1      -6.777  -0.970   0.664  0.00  0.00    -0.005 A 
ATOM     30  C   UNL     1      -7.077   0.221   0.021  0.00  0.00    +0.009 A 
ATOM     31  C   UNL     1      -8.065   1.030   0.558  0.00  0.00    +0.020 A 
ATOM     32  C   UNL     1      -8.707   0.631   1.716  0.00  0.00    +0.111 A 
ATOM     33  N   UNL     1      -8.393  -0.507   2.303  0.00  0.00    -0.263 NA
ATOM     34  C   UNL     1      -7.461  -1.304   1.817  0.00  0.00    +0.116 A 
ENDBRANCH   5  29
TORSDOF 4
