REMARK  Name = ZINC04237011
REMARK  11 active torsions:
REMARK  status: ('A' for Active; 'I' for Inactive)
REMARK    1  A    between atoms: C_1  and  C_2
REMARK    2  A    between atoms: C_5  and  O_40
REMARK    3  A    between atoms: C_7  and  C_37
REMARK    4  A    between atoms: C_7  and  C_38
REMARK    5  A    between atoms: C_17  and  O_19
REMARK    6  A    between atoms: O_19  and  C_20
REMARK    7  A    between atoms: C_20  and  C_21
REMARK    8  A    between atoms: C_23  and  C_25
REMARK    9  A    between atoms: C_25  and  C_26
REMARK   10  A    between atoms: C_31  and  C_34
REMARK   11  A    between atoms: C_38  and  O_39
REMARK                            x       y       z     vdW  Elec       q    Type
REMARK                         _______ _______ _______ _____ _____    ______ ____
ROOT
ATOM      1  C   UNL     1      -1.629  -2.019  -2.230  0.00  0.00    +0.012 C 
ATOM      2  C   UNL     1      -0.942  -2.626  -1.005  0.00  0.00    -0.019 C 
ATOM      3  C   UNL     1       0.537  -2.223  -0.994  0.00  0.00    +0.010 C 
ATOM      4  C   UNL     1       0.674  -0.707  -0.862  0.00  0.00    +0.032 C 
ATOM      5  C   UNL     1       0.034  -0.267   0.458  0.00  0.00    +0.123 C 
ATOM      6  C   UNL     1      -1.450  -0.625   0.427  0.00  0.00    +0.021 C 
ATOM      7  C   UNL     1      -1.632  -2.130   0.268  0.00  0.00    +0.011 C 
ATOM      8  C   UNL     1      -3.143  -2.409   0.160  0.00  0.00    +0.049 C 
ATOM      9  C   UNL     1      -3.353  -3.795  -0.337  0.00  0.00    +0.015 A 
ATOM     10  C   UNL     1      -2.437  -4.622  -0.903  0.00  0.00    +0.058 A 
ATOM     11  N   UNL     1      -2.880  -5.823  -1.267  0.00  0.00    -0.229 NA
ATOM     12  C   UNL     1      -4.131  -6.192  -1.088  0.00  0.00    +0.167 A 
ATOM     13  S   UNL     1      -4.825  -4.782  -0.346  0.00  0.00    -0.057 S 
ATOM     14  N   UNL     1      -4.741  -7.400  -1.410  0.00  0.00    -0.230 N 
ATOM     15  C   UNL     1      -6.048  -7.587  -1.143  0.00  0.00    +0.406 C 
ATOM     16  O   UNL     1      -6.695  -6.701  -0.622  0.00  0.00    -0.226 OA
ATOM     17  C   UNL     1      -1.000  -4.157  -1.087  0.00  0.00    +0.054 C 
ATOM     18  C   UNL     1      -2.108  -0.168   1.730  0.00  0.00    +0.016 C 
ATOM     19  H   UNL     1      -4.224  -8.107  -1.827  0.00  0.00    +0.160 HD
ENDROOT
BRANCH   5  20
ATOM     20  O   UNL     1       0.183   1.146   0.615  0.00  0.00    -0.391 OA
ATOM     21  H   UNL     1       1.102   1.445   0.631  0.00  0.00    +0.210 HD
ENDBRANCH   5  20
BRANCH  15  22
ATOM     22  O   UNL     1      -6.638  -8.757  -1.455  0.00  0.00    -0.446 OA
BRANCH  22  23
ATOM     23  C   UNL     1      -8.049  -8.888  -1.139  0.00  0.00    +0.261 C 
BRANCH  23  24
ATOM     24  C   UNL     1      -8.533 -10.253  -1.557  0.00  0.00    +0.006 C 
ATOM     25  C   UNL     1      -9.290 -10.955  -0.750  0.00  0.00    +0.007 C 
ENDBRANCH  23  24
ENDBRANCH  22  23
ENDBRANCH  15  22
BRANCH  17  26
ATOM     26  C   UNL     1      -0.489  -4.613  -2.455  0.00  0.00    +0.106 C 
BRANCH  26  27
ATOM     27  C   UNL     1      -0.357  -6.114  -2.467  0.00  0.00    +0.216 C 
ATOM     28  O   UNL     1      -0.644  -6.756  -1.479  0.00  0.00    -0.276 OA
ATOM     29  N   UNL     1       0.079  -6.744  -3.576  0.00  0.00    -0.301 N 
ATOM     30  C   UNL     1       0.425  -5.981  -4.783  0.00  0.00    +0.108 C 
ATOM     31  C   UNL     1      -0.350  -6.549  -5.970  0.00  0.00    +0.032 C 
ATOM     32  C   UNL     1      -0.083  -8.052  -6.078  0.00  0.00    +0.078 C 
ATOM     33  C   UNL     1      -0.565  -8.751  -4.805  0.00  0.00    +0.032 C 
ATOM     34  C   UNL     1       0.213  -8.207  -3.603  0.00  0.00    +0.108 C 
BRANCH  32  35
ATOM     35  C   UNL     1      -0.822  -8.609  -7.267  0.00  0.00    +0.214 C 
ATOM     36  O   UNL     1      -1.653  -9.479  -7.112  0.00  0.00    -0.276 OA
ATOM     37  N   UNL     1      -0.560  -8.141  -8.504  0.00  0.00    -0.329 N 
ATOM     38  H   UNL     1       0.104  -7.445  -8.628  0.00  0.00    +0.145 HD
ATOM     39  H   UNL     1      -1.036  -8.499  -9.269  0.00  0.00    +0.145 HD
ENDBRANCH  32  35
ENDBRANCH  26  27
ENDBRANCH  17  26
BRANCH   6  40
ATOM     40  C   UNL     1      -2.119   0.087  -0.750  0.00  0.00    +0.165 C 
BRANCH  40  41
ATOM     41  O   UNL     1      -2.113   1.497  -0.520  0.00  0.00    -0.394 OA
ATOM     42  H   UNL     1      -2.522   2.013  -1.228  0.00  0.00    +0.209 HD
ENDBRANCH  40  41
ENDBRANCH   6  40
TORSDOF 9
