REMARK  Name = ZINC45626430
REMARK  5 active torsions:
REMARK  status: ('A' for Active; 'I' for Inactive)
REMARK    1  A    between atoms: C_1  and  C_2
REMARK    2  A    between atoms: C_8  and  C_10
REMARK    3  A    between atoms: C_10  and  N_11
REMARK    4  A    between atoms: C_12  and  C_16
REMARK    5  A    between atoms: C_18  and  N_23
REMARK                            x       y       z     vdW  Elec       q    Type
REMARK                         _______ _______ _______ _____ _____    ______ ____
ROOT
ATOM      1  N   UNL     1       0.707  -0.775   3.586  0.00  0.00    -0.225 N 
ATOM      2  C   UNL     1       0.237  -1.903   4.173  0.00  0.00    +0.183 A 
ATOM      3  N   UNL     1       0.871  -2.034   5.319  0.00  0.00    -0.108 NA
ATOM      4  N   UNL     1       1.700  -1.069   5.487  0.00  0.00    -0.023 NA
ATOM      5  N   UNL     1       1.665  -0.266   4.479  0.00  0.00    -0.044 NA
ENDROOT
BRANCH   2   6
ATOM      6  C   UNL     1      -0.794  -2.815   3.628  0.00  0.00    +0.036 A 
ATOM      7  C   UNL     1      -1.995  -2.301   3.142  0.00  0.00    +0.035 A 
ATOM      8  C   UNL     1      -2.957  -3.160   2.632  0.00  0.00    +0.025 A 
ATOM      9  C   UNL     1      -2.722  -4.530   2.609  0.00  0.00    +0.024 A 
ATOM     10  C   UNL     1      -1.532  -5.040   3.091  0.00  0.00    +0.018 A 
ATOM     11  C   UNL     1      -0.565  -4.191   3.595  0.00  0.00    +0.029 A 
ATOM     12 BR   UNL     1       1.065  -4.894   4.247  0.00  0.00    -0.050 Br
BRANCH   8  13
ATOM     13  N   UNL     1      -4.162  -2.650   2.143  0.00  0.00    -0.358 N 
ATOM     14  H   UNL     1      -4.326  -1.694   2.160  0.00  0.00    +0.142 HD
ATOM     15  H   UNL     1      -4.835  -3.251   1.787  0.00  0.00    +0.142 HD
ENDBRANCH   8  13
ENDBRANCH   2   6
BRANCH   1  16
ATOM     16  C   UNL     1       0.305  -0.211   2.294  0.00  0.00    +0.151 C 
BRANCH  16  23
ATOM     17  C   UNL     1       0.780   1.129  -0.268  0.00  0.00    +0.008 C 
ATOM     18  C   UNL     1       0.593  -0.387  -0.181  0.00  0.00    -0.009 C 
ATOM     19  C   UNL     1       1.386  -1.063  -1.302  0.00  0.00    +0.003 C 
ATOM     20  C   UNL     1       2.870  -0.723  -1.153  0.00  0.00    +0.000 C 
ATOM     21  C   UNL     1       3.375  -1.223   0.202  0.00  0.00    +0.000 C 
ATOM     22  C   UNL     1       2.582  -0.547   1.322  0.00  0.00    +0.005 C 
ATOM     23  C   UNL     1       1.098  -0.887   1.174  0.00  0.00    +0.013 C 
ENDBRANCH  16  23
ENDBRANCH   1  16
TORSDOF 4
