REMARK  Name = ZINC39665883
REMARK  9 active torsions:
REMARK  status: ('A' for Active; 'I' for Inactive)
REMARK    1  A    between atoms: C_1  and  C_2
REMARK    2  A    between atoms: C_2  and  C_4
REMARK    3  A    between atoms: C_2  and  O_30
REMARK    4  A    between atoms: C_4  and  N_5
REMARK    5  A    between atoms: C_6  and  C_8
REMARK    6  A    between atoms: C_19  and  C_21
REMARK    7  A    between atoms: O_30  and  C_31
REMARK    8  A    between atoms: C_34  and  O_37
REMARK    9  A    between atoms: O_37  and  C_38
REMARK                            x       y       z     vdW  Elec       q    Type
REMARK                         _______ _______ _______ _____ _____    ______ ____
ROOT
ATOM      1  C   UNL     1      -1.843  -3.728   0.530  0.00  0.00    +0.100 C 
ATOM      2  C   UNL     1      -1.145  -3.971   1.887  0.00  0.00    +0.121 C 
ATOM      3  N   UNL     1      -2.250  -4.276   2.827  0.00  0.00    -0.296 N 
ATOM      4  C   UNL     1      -3.184  -5.114   2.038  0.00  0.00    +0.115 C 
ATOM      5  C   UNL     1      -3.179  -4.483   0.632  0.00  0.00    -0.004 C 
ATOM      6  C   UNL     1      -4.347  -3.512   0.487  0.00  0.00    -0.010 C 
ATOM      7  C   UNL     1      -5.663  -4.293   0.535  0.00  0.00    -0.082 C 
ATOM      8  N   UNL     1      -5.687  -5.283  -0.548  0.00  0.00    +0.379 N 
ATOM      9  C   UNL     1      -4.616  -6.268  -0.350  0.00  0.00    -0.082 C 
ATOM     10  C   UNL     1      -3.256  -5.570  -0.435  0.00  0.00    -0.010 C 
ATOM     11  C   UNL     1      -2.376  -3.879   4.109  0.00  0.00    +0.252 C 
ATOM     12  O   UNL     1      -3.349  -4.215   4.755  0.00  0.00    -0.270 OA
ATOM     13  H   UNL     1      -6.579  -5.754  -0.552  0.00  0.00    -0.086 HD
ATOM     14  H   UNL     1      -5.552  -4.815  -1.432  0.00  0.00    -0.086 HD
ENDROOT
BRANCH  11  15
ATOM     15  C   UNL     1      -1.333  -3.038   4.727  0.00  0.00    +0.108 A 
ATOM     16  C   UNL     1      -1.424  -1.644   4.662  0.00  0.00    +0.138 A 
ATOM     17  C   UNL     1      -0.444  -0.863   5.245  0.00  0.00    +0.041 A 
ATOM     18  C   UNL     1       0.626  -1.456   5.890  0.00  0.00    +0.026 A 
ATOM     19  C   UNL     1       0.724  -2.835   5.959  0.00  0.00    +0.077 A 
ATOM     20  C   UNL     1      -0.252  -3.631   5.387  0.00  0.00    +0.156 A 
ATOM     21  F   UNL     1      -0.158  -4.977   5.460  0.00  0.00    -0.203 F 
ATOM     22 CL   UNL     1       2.072  -3.567   6.772  0.00  0.00    -0.081 Cl
ATOM     23  F   UNL     1      -2.468  -1.062   4.032  0.00  0.00    -0.205 F 
ENDBRANCH  11  15
BRANCH   1  25
ATOM     24  N   UNL     1      -2.138  -1.751  -0.927  0.00  0.00    -0.312 N 
ATOM     25  C   UNL     1      -2.087  -2.256   0.322  0.00  0.00    +0.218 C 
ATOM     26  O   UNL     1      -2.237  -1.524   1.278  0.00  0.00    -0.275 OA
ATOM     27  H   UNL     1      -2.018  -2.335  -1.692  0.00  0.00    +0.149 HD
BRANCH  24  28
ATOM     28  C   UNL     1      -2.375  -0.319  -1.130  0.00  0.00    +0.148 C 
BRANCH  28  30
ATOM     29  C   UNL     1      -2.633   1.484  -2.840  0.00  0.00    +0.053 C 
ATOM     30  C   UNL     1      -2.385  -0.011  -2.628  0.00  0.00    +0.187 C 
BRANCH  30  31
ATOM     31  O   UNL     1      -1.125  -0.370  -3.197  0.00  0.00    -0.488 OA
BRANCH  31  32
ATOM     32  C   UNL     1      -1.108  -0.666  -4.525  0.00  0.00    +0.121 A 
ATOM     33  C   UNL     1       0.056  -1.132  -5.117  0.00  0.00    +0.049 A 
ATOM     34  C   UNL     1       0.072  -1.432  -6.466  0.00  0.00    +0.049 A 
ATOM     35  C   UNL     1      -1.075  -1.267  -7.227  0.00  0.00    +0.120 A 
ATOM     36  C   UNL     1      -2.240  -0.801  -6.634  0.00  0.00    +0.049 A 
ATOM     37  C   UNL     1      -2.257  -0.506  -5.285  0.00  0.00    +0.049 A 
BRANCH  35  38
ATOM     38  O   UNL     1      -1.059  -1.561  -8.554  0.00  0.00    -0.495 OA
ATOM     39  C   UNL     1      -2.276  -1.367  -9.277  0.00  0.00    +0.277 C 
ENDBRANCH  35  38
ENDBRANCH  31  32
ENDBRANCH  30  31
ENDBRANCH  28  30
ENDBRANCH  24  28
ENDBRANCH   1  25
TORSDOF 7
