REMARK  Name = ZINC12541053
REMARK  10 active torsions:
REMARK  status: ('A' for Active; 'I' for Inactive)
REMARK    1  A    between atoms: C_1  and  C_2
REMARK    2  A    between atoms: C_2  and  C_4
REMARK    3  A    between atoms: C_2  and  O_17
REMARK    4  A    between atoms: N_6  and  C_7
REMARK    5  A    between atoms: O_17  and  C_18
REMARK    6  A    between atoms: C_18  and  C_20
REMARK    7  A    between atoms: C_25  and  N_26
REMARK    8  A    between atoms: N_26  and  C_27
REMARK    9  A    between atoms: C_30  and  S_33
REMARK   10  A    between atoms: S_33  and  C_34
REMARK                            x       y       z     vdW  Elec       q    Type
REMARK                         _______ _______ _______ _____ _____    ______ ____
ROOT
ATOM      1  C   UNL     1      -3.752   8.814  -1.950  0.00  0.00    +0.342 C 
ATOM      2  O   UNL     1      -3.778   9.275  -0.825  0.00  0.00    -0.245 OA
ENDROOT
BRANCH   1   3
ATOM      3  C   UNL     1      -4.517   9.462  -3.029  0.00  0.00    +0.080 A 
ATOM      4  C   UNL     1      -4.584   8.873  -4.295  0.00  0.00    +0.017 A 
ATOM      5  C   UNL     1      -5.306   9.482  -5.298  0.00  0.00    +0.001 A 
ATOM      6  C   UNL     1      -5.959  10.682  -5.063  0.00  0.00    +0.002 A 
ATOM      7  C   UNL     1      -5.898  11.278  -3.821  0.00  0.00    +0.024 A 
ATOM      8  C   UNL     1      -5.180  10.678  -2.794  0.00  0.00    +0.045 A 
BRANCH   8   9
ATOM      9  N   UNL     1      -5.117  11.276  -1.542  0.00  0.00    -0.314 N 
ATOM     10  H   UNL     1      -5.851  11.172  -0.918  0.00  0.00    +0.152 HD
BRANCH   9  11
ATOM     11  C   UNL     1      -3.993  12.030  -1.183  0.00  0.00    +0.031 A 
ATOM     12  C   UNL     1      -2.960  12.213  -2.092  0.00  0.00    +0.024 A 
ATOM     13  C   UNL     1      -1.854  12.961  -1.740  0.00  0.00    +0.017 A 
ATOM     14  C   UNL     1      -1.771  13.522  -0.471  0.00  0.00    +0.013 A 
ATOM     15  C   UNL     1      -2.802  13.334   0.440  0.00  0.00    +0.017 A 
ATOM     16  C   UNL     1      -3.910  12.591   0.085  0.00  0.00    +0.024 A 
BRANCH  14  17
ATOM     17  S   UNL     1      -0.356  14.470  -0.019  0.00  0.00    -0.056 S 
BRANCH  17  18
ATOM     18  C   UNL     1       0.689  14.434  -1.501  0.00  0.00    +0.404 C 
ATOM     19  F   UNL     1       1.019  13.110  -1.807  0.00  0.00    -0.197 F 
ATOM     20  F   UNL     1      -0.005  15.002  -2.575  0.00  0.00    -0.197 F 
ENDBRANCH  17  18
ENDBRANCH  14  17
ENDBRANCH   9  11
ENDBRANCH   8   9
ENDBRANCH   1   3
BRANCH   1  21
ATOM     21  O   UNL     1      -3.023   7.711  -2.209  0.00  0.00    -0.449 OA
BRANCH  21  23
ATOM     22  C   UNL     1      -0.898   7.748  -1.020  0.00  0.00    +0.062 C 
ATOM     23  C   UNL     1      -2.294   7.126  -1.098  0.00  0.00    +0.259 C 
BRANCH  23  24
ATOM     24  C   UNL     1      -2.170   5.638  -1.306  0.00  0.00    +0.254 C 
ATOM     25  O   UNL     1      -2.569   5.135  -2.335  0.00  0.00    -0.272 OA
ATOM     26  N   UNL     1      -1.617   4.868  -0.348  0.00  0.00    -0.307 N 
ATOM     27  H   UNL     1      -1.298   5.271   0.474  0.00  0.00    +0.149 HD
BRANCH  26  28
ATOM     28  C   UNL     1      -1.497   3.422  -0.550  0.00  0.00    +0.035 C 
ATOM     29  C   UNL     1      -0.638   3.149  -1.787  0.00  0.00    +0.029 C 
ATOM     30  C   UNL     1      -0.512   1.639  -1.998  0.00  0.00    -0.008 C 
ATOM     31  C   UNL     1       0.145   1.005  -0.770  0.00  0.00    +0.007 C 
ATOM     32  C   UNL     1      -0.715   1.278   0.467  0.00  0.00    -0.008 C 
ATOM     33  C   UNL     1      -0.840   2.788   0.677  0.00  0.00    +0.029 C 
ATOM     34  C   UNL     1      -2.106   0.674   0.264  0.00  0.00    +0.007 C 
ATOM     35  C   UNL     1      -2.763   1.308  -0.964  0.00  0.00    -0.008 C 
ATOM     36  C   UNL     1      -1.904   1.035  -2.200  0.00  0.00    +0.007 C 
ATOM     37  C   UNL     1      -2.888   2.818  -0.753  0.00  0.00    +0.029 C 
ENDBRANCH  26  28
ENDBRANCH  23  24
ENDBRANCH  21  23
ENDBRANCH   1  21
TORSDOF 9
