REMARK  Name = ZINC63749853
REMARK  10 active torsions:
REMARK  status: ('A' for Active; 'I' for Inactive)
REMARK    1  A    between atoms: C_1  and  C_2
REMARK    2  A    between atoms: C_2  and  O_3
REMARK    3  A    between atoms: O_3  and  C_4
REMARK    4  A    between atoms: C_9  and  S_14
REMARK    5  A    between atoms: S_14  and  C_15
REMARK    6  A    between atoms: C_15  and  C_16
REMARK    7  A    between atoms: N_18  and  C_19
REMARK    8  A    between atoms: N_18  and  C_20
REMARK    9  A    between atoms: C_20  and  C_22
REMARK   10  A    between atoms: C_20  and  C_23
REMARK                            x       y       z     vdW  Elec       q    Type
REMARK                         _______ _______ _______ _____ _____    ______ ____
ROOT
ATOM      1  C   UNL     1       4.600  -5.124  -1.868  0.00  0.00    +0.168 C 
ENDROOT
BRANCH   1   2
ATOM      2  C   UNL     1       5.865  -5.887  -1.571  0.00  0.00    +0.226 C 
ATOM      3  O   UNL     1       6.321  -6.650  -2.396  0.00  0.00    -0.275 OA
ATOM      4  N   UNL     1       6.489  -5.722  -0.388  0.00  0.00    -0.298 N 
ATOM      5  C   UNL     1       5.939  -4.801   0.609  0.00  0.00    +0.132 C 
BRANCH   4   6
ATOM      6  C   UNL     1       7.719  -6.464  -0.100  0.00  0.00    +0.103 C 
ATOM      7  C   UNL     1       7.582  -7.175   1.248  0.00  0.00    +0.031 C 
BRANCH   6   8
ATOM      8  C   UNL     1       8.900  -5.492  -0.045  0.00  0.00    +0.154 C 
ATOM      9  N   UNL     1      10.140  -6.187   0.327  0.00  0.00    -0.329 N 
ATOM     10  C   UNL     1      10.766  -5.798   1.510  0.00  0.00    +0.042 A 
ATOM     11  C   UNL     1      11.954  -6.346   2.026  0.00  0.00    +0.024 A 
ATOM     12  C   UNL     1      12.495  -5.892   3.206  0.00  0.00    +0.002 A 
ATOM     13  C   UNL     1      11.888  -4.880   3.927  0.00  0.00    +0.001 A 
ATOM     14  C   UNL     1      10.717  -4.321   3.443  0.00  0.00    +0.016 A 
ATOM     15  C   UNL     1      10.177  -4.776   2.261  0.00  0.00    +0.031 A 
ATOM     16  S   UNL     1       8.720  -4.311   1.351  0.00  0.00    -0.099 S 
ATOM     17  H   UNL     1      10.508  -6.891  -0.229  0.00  0.00    +0.147 HD
ENDBRANCH   6   8
ENDBRANCH   4   6
ENDBRANCH   1   2
BRANCH   1  18
ATOM     18  S   UNL     1       4.006  -5.560  -3.526  0.00  0.00    -0.106 S 
BRANCH  18  24
ATOM     19  C   UNL     1       1.204  -1.185  -0.884  0.00  0.00    +0.123 A 
ATOM     20  C   UNL     1       0.417  -2.275  -0.320  0.00  0.00    +0.048 A 
ATOM     21  C   UNL     1       0.457  -3.520  -0.830  0.00  0.00    +0.031 A 
ATOM     22  C   UNL     1       1.315  -3.806  -1.990  0.00  0.00    +0.061 A 
ATOM     23  N   UNL     1       1.538  -4.896  -2.666  0.00  0.00    -0.355 N 
ATOM     24  C   UNL     1       2.499  -4.571  -3.726  0.00  0.00    +0.236 C 
ATOM     25  N   UNL     1       2.809  -3.143  -3.581  0.00  0.00    -0.355 N 
ATOM     26  C   UNL     1       2.118  -2.695  -2.567  0.00  0.00    +0.064 A 
ATOM     27  C   UNL     1       2.013  -1.369  -1.956  0.00  0.00    +0.073 A 
ATOM     28  H   UNL     1       1.141  -5.766  -2.499  0.00  0.00    +0.162 HD
ATOM     29  H   UNL     1       3.415  -2.628  -4.135  0.00  0.00    +0.162 HD
BRANCH  19  30
ATOM     30  O   UNL     1       1.120   0.047  -0.324  0.00  0.00    -0.492 OA
BRANCH  30  32
ATOM     31  C   UNL     1       0.290   1.639   1.294  0.00  0.00    +0.048 C 
ATOM     32  C   UNL     1       0.254   0.190   0.803  0.00  0.00    +0.225 C 
ENDBRANCH  30  32
ENDBRANCH  19  30
ENDBRANCH  18  24
ENDBRANCH   1  18
TORSDOF 7
