REMARK  Name = ZINC32642520
REMARK  9 active torsions:
REMARK  status: ('A' for Active; 'I' for Inactive)
REMARK    1  A    between atoms: C_1  and  C_2
REMARK    2  A    between atoms: N_8  and  C_9
REMARK    3  A    between atoms: C_9  and  C_10
REMARK    4  A    between atoms: C_10  and  C_11
REMARK    5  A    between atoms: C_11  and  N_12
REMARK    6  A    between atoms: C_13  and  C_15
REMARK    7  A    between atoms: N_25  and  S_26
REMARK    8  A    between atoms: S_26  and  C_29
REMARK    9  A    between atoms: C_32  and  C_35
REMARK                            x       y       z     vdW  Elec       q    Type
REMARK                         _______ _______ _______ _____ _____    ______ ____
ROOT
ATOM      1  C   UNL     1      -0.045  -0.152   7.187  0.00  0.00    +0.170 C 
ATOM      2  C   UNL     1      -0.259   1.360   7.221  0.00  0.00    +0.065 C 
ATOM      3  C   UNL     1      -0.364   1.855   8.640  0.00  0.00    -0.041 A 
ATOM      4  C   UNL     1      -0.970   3.088   8.849  0.00  0.00    +0.004 A 
ATOM      5  C   UNL     1      -1.090   3.604  10.122  0.00  0.00    +0.000 A 
ATOM      6  C   UNL     1      -0.603   2.890  11.202  0.00  0.00    +0.000 A 
ATOM      7  C   UNL     1      -0.004   1.665  10.998  0.00  0.00    +0.005 A 
ATOM      8  C   UNL     1       0.113   1.142   9.717  0.00  0.00    -0.028 A 
ATOM      9  C   UNL     1       0.754  -0.214   9.566  0.00  0.00    +0.145 C 
ATOM     10  N   UNL     1       1.021  -0.481   8.149  0.00  0.00    -0.160 NA
ENDROOT
BRANCH   1  12
ATOM     11  N   UNL     1      -0.165  -1.684   5.248  0.00  0.00    -0.314 N 
ATOM     12  C   UNL     1       0.370  -0.578   5.802  0.00  0.00    +0.232 C 
ATOM     13  O   UNL     1       1.184   0.076   5.186  0.00  0.00    -0.274 OA
ATOM     14  H   UNL     1      -0.904  -2.276   5.808  0.00  0.00    +0.149 HD
BRANCH  11  15
ATOM     15  C   UNL     1       0.237  -2.097   3.902  0.00  0.00    +0.102 C 
BRANCH  15  16
ATOM     16  C   UNL     1      -0.512  -3.373   3.514  0.00  0.00    +0.000 C 
BRANCH  16  17
ATOM     17  C   UNL     1      -0.092  -3.805   2.108  0.00  0.00    -0.077 C 
BRANCH  17  24
ATOM     18  C   UNL     1       1.231  -5.798   0.626  0.00  0.00    -0.013 C 
ATOM     19  C   UNL     1      -0.279  -5.595   0.490  0.00  0.00    -0.072 C 
ATOM     20  C   UNL     1      -0.951  -6.942   0.211  0.00  0.00    -0.016 C 
ATOM     21  C   UNL     1      -2.464  -6.738   0.096  0.00  0.00    -0.003 C 
ATOM     22  C   UNL     1      -2.986  -6.104   1.388  0.00  0.00    -0.019 C 
ATOM     23  C   UNL     1      -2.255  -4.781   1.632  0.00  0.00    -0.078 C 
ATOM     24  N   UNL     1      -0.812  -5.030   1.736  0.00  0.00    +0.381 N 
ATOM     25  H   UNL     1      -0.656  -5.771   2.534  0.00  0.00    -0.081 HD
ENDBRANCH  17  24
ENDBRANCH  16  17
ENDBRANCH  15  16
ENDBRANCH  11  15
ENDBRANCH   1  12
BRANCH  10  26
ATOM     26  S   UNL     1       2.462  -1.126   7.650  0.00  0.00    +0.062 S 
ATOM     27  O   UNL     1       2.946  -1.919   8.725  0.00  0.00    -0.153 OA
ATOM     28  O   UNL     1       2.242  -1.656   6.350  0.00  0.00    -0.153 OA
BRANCH  26  29
ATOM     29  C   UNL     1       3.594   0.212   7.462  0.00  0.00    +0.106 A 
ATOM     30  C   UNL     1       3.703   0.860   6.246  0.00  0.00    +0.029 A 
ATOM     31  C   UNL     1       4.587   1.912   6.100  0.00  0.00    +0.014 A 
ATOM     32  C   UNL     1       5.369   2.311   7.168  0.00  0.00    +0.055 A 
ATOM     33  C   UNL     1       5.264   1.660   8.383  0.00  0.00    +0.014 A 
ATOM     34  C   UNL     1       4.376   0.611   8.530  0.00  0.00    +0.029 A 
BRANCH  32  35
ATOM     35  C   UNL     1       6.337   3.454   7.007  0.00  0.00    +0.417 C 
ATOM     36  F   UNL     1       7.576   2.961   6.584  0.00  0.00    -0.166 F 
ATOM     37  F   UNL     1       5.844   4.353   6.054  0.00  0.00    -0.166 F 
ATOM     38  F   UNL     1       6.490   4.112   8.232  0.00  0.00    -0.166 F 
ENDBRANCH  32  35
ENDBRANCH  26  29
ENDBRANCH  10  26
TORSDOF 8
