REMARK  Name = ZINC39657636
REMARK  7 active torsions:
REMARK  status: ('A' for Active; 'I' for Inactive)
REMARK    1  A    between atoms: C_1  and  C_2
REMARK    2  A    between atoms: C_5  and  C_12
REMARK    3  A    between atoms: N_9  and  C_11
REMARK    4  A    between atoms: C_16  and  C_25
REMARK    5  A    between atoms: N_27  and  C_28
REMARK    6  A    between atoms: C_28  and  C_29
REMARK    7  A    between atoms: C_29  and  C_30
REMARK                            x       y       z     vdW  Elec       q    Type
REMARK                         _______ _______ _______ _____ _____    ______ ____
ROOT
ATOM      1  C   UNL     1      -0.074  -1.608  -4.693  0.00  0.00    +0.250 C 
ATOM      2  O   UNL     1      -0.116  -0.470  -5.119  0.00  0.00    -0.270 OA
ATOM      3  N   UNL     1       0.089  -2.641  -5.543  0.00  0.00    -0.296 N 
ATOM      4  C   UNL     1       0.059  -4.089  -5.230  0.00  0.00    +0.121 C 
ATOM      5  C   UNL     1      -0.686  -4.731  -6.421  0.00  0.00    +0.100 C 
ATOM      6  C   UNL     1      -0.497  -3.740  -7.582  0.00  0.00    -0.004 C 
ATOM      7  C   UNL     1       0.333  -2.585  -7.005  0.00  0.00    +0.115 C 
ATOM      8  C   UNL     1      -1.850  -3.222  -8.060  0.00  0.00    -0.010 C 
ATOM      9  C   UNL     1      -1.640  -2.283  -9.251  0.00  0.00    -0.082 C 
ATOM     10  N   UNL     1      -0.961  -3.006 -10.333  0.00  0.00    +0.379 N 
ATOM     11  C   UNL     1       0.377  -3.421  -9.895  0.00  0.00    -0.082 C 
ATOM     12  C   UNL     1       0.252  -4.408  -8.731  0.00  0.00    -0.010 C 
ATOM     13  H   UNL     1      -1.500  -3.822 -10.581  0.00  0.00    -0.086 HD
ATOM     14  H   UNL     1      -0.878  -2.404 -11.138  0.00  0.00    -0.086 HD
ENDROOT
BRANCH   1  19
ATOM     15  C   UNL     1      -2.808   0.406  -0.050  0.00  0.00    +0.068 C 
ATOM     16  C   UNL     1      -1.860  -0.764   0.023  0.00  0.00    +0.071 A 
ATOM     17  C   UNL     1      -1.122  -1.346  -1.093  0.00  0.00    +0.060 A 
ATOM     18  C   UNL     1      -1.040  -1.062  -2.460  0.00  0.00    +0.067 A 
ATOM     19  C   UNL     1      -0.202  -1.859  -3.244  0.00  0.00    +0.074 A 
ATOM     20  C   UNL     1       0.516  -2.898  -2.637  0.00  0.00    +0.127 A 
ATOM     21  N   UNL     1       0.417  -3.138  -1.351  0.00  0.00    -0.235 NA
ATOM     22  C   UNL     1      -0.366  -2.411  -0.560  0.00  0.00    +0.160 A 
ATOM     23  N   UNL     1      -0.642  -2.451   0.778  0.00  0.00    -0.249 N 
ATOM     24  N   UNL     1      -1.548  -1.435   1.095  0.00  0.00    -0.174 NA
ATOM     25  C   UNL     1      -0.074  -3.407   1.731  0.00  0.00    +0.174 C 
ATOM     26 CL   UNL     1      -1.952   0.238  -3.160  0.00  0.00    -0.082 Cl
ENDBRANCH   1  19
BRANCH   5  27
ATOM     27  C   UNL     1      -0.078  -6.066  -6.764  0.00  0.00    +0.218 C 
ATOM     28  O   UNL     1       1.105  -6.260  -6.576  0.00  0.00    -0.275 OA
ATOM     29  N   UNL     1      -0.847  -7.046  -7.278  0.00  0.00    -0.315 N 
ATOM     30  H   UNL     1      -1.793  -6.891  -7.428  0.00  0.00    +0.149 HD
BRANCH  29  31
ATOM     31  C   UNL     1      -0.256  -8.344  -7.611  0.00  0.00    +0.109 C 
BRANCH  31  32
ATOM     32  C   UNL     1      -1.337  -9.269  -8.173  0.00  0.00    +0.061 C 
BRANCH  32  33
ATOM     33  C   UNL     1      -0.728 -10.604  -8.515  0.00  0.00    -0.009 A 
ATOM     34  C   UNL     1      -0.599 -11.707  -7.739  0.00  0.00    +0.011 A 
ATOM     35  C   UNL     1      -0.000 -12.834  -8.270  0.00  0.00    +0.008 A 
ATOM     36  C   UNL     1       0.439 -12.803  -9.552  0.00  0.00    +0.045 A 
ATOM     37  S   UNL     1       0.003 -11.146 -10.051  0.00  0.00    -0.102 S 
ENDBRANCH  32  33
ENDBRANCH  31  32
ENDBRANCH  29  31
ENDBRANCH   5  27
TORSDOF 5
