REMARK  Name = ZINC39919520
REMARK  5 active torsions:
REMARK  status: ('A' for Active; 'I' for Inactive)
REMARK    1  A    between atoms: C_1  and  C_2
REMARK    2  A    between atoms: N_13  and  N_14
REMARK    3  A    between atoms: C_15  and  C_17
REMARK    4  A    between atoms: C_17  and  O_18
REMARK    5  A    between atoms: O_18  and  C_19
REMARK                            x       y       z     vdW  Elec       q    Type
REMARK                         _______ _______ _______ _____ _____    ______ ____
ROOT
ATOM      1  C   UNL     1      -0.019   1.526   0.010  0.00  0.00    +0.051 C 
ATOM      2  C   UNL     1       0.002  -0.004   0.002  0.00  0.00    +0.177 C 
ATOM      3  N   UNL     1      -1.376  -0.509   0.004  0.00  0.00    -0.324 N 
ATOM      4  C   UNL     1      -2.098  -0.465   1.193  0.00  0.00    +0.041 A 
ATOM      5  C   UNL     1      -3.475  -0.327   1.209  0.00  0.00    +0.025 A 
ATOM      6  C   UNL     1      -4.144  -0.285   2.417  0.00  0.00    +0.022 A 
ATOM      7  C   UNL     1      -3.446  -0.379   3.613  0.00  0.00    +0.042 A 
ATOM      8  C   UNL     1      -2.073  -0.518   3.613  0.00  0.00    +0.035 A 
ATOM      9  C   UNL     1      -1.387  -0.563   2.402  0.00  0.00    +0.061 A 
ATOM     10  C   UNL     1       0.077  -0.719   2.345  0.00  0.00    +0.266 C 
ATOM     11  O   UNL     1       0.699  -1.055   3.334  0.00  0.00    -0.268 OA
ATOM     12  N   UNL     1       0.717  -0.485   1.184  0.00  0.00    -0.196 N 
ATOM     13 CL   UNL     1      -4.307  -0.321   5.119  0.00  0.00    -0.084 Cl
ATOM     14  H   UNL     1      -1.775  -0.865  -0.805  0.00  0.00    +0.148 HD
ENDROOT
BRANCH  12  15
ATOM     15  N   UNL     1       2.098  -0.707   1.109  0.00  0.00    -0.227 N 
ATOM     16  C   UNL     1       2.953   0.163   1.682  0.00  0.00    +0.267 C 
ATOM     17  O   UNL     1       2.526   1.139   2.262  0.00  0.00    -0.271 OA
ATOM     18  H   UNL     1       2.439  -1.488   0.645  0.00  0.00    +0.173 HD
BRANCH  16  19
ATOM     19  C   UNL     1       4.439  -0.076   1.601  0.00  0.00    +0.326 C 
BRANCH  19  20
ATOM     20  O   UNL     1       5.128   0.977   2.278  0.00  0.00    -0.483 OA
BRANCH  20  21
ATOM     21  C   UNL     1       6.485   0.913   2.299  0.00  0.00    +0.121 A 
ATOM     22  C   UNL     1       7.140  -0.139   1.675  0.00  0.00    +0.047 A 
ATOM     23  C   UNL     1       8.520  -0.203   1.698  0.00  0.00    +0.023 A 
ATOM     24  C   UNL     1       9.249   0.781   2.342  0.00  0.00    +0.041 A 
ATOM     25  C   UNL     1       8.597   1.831   2.965  0.00  0.00    +0.023 A 
ATOM     26  C   UNL     1       7.218   1.902   2.939  0.00  0.00    +0.047 A 
ATOM     27 CL   UNL     1      10.983   0.699   2.369  0.00  0.00    -0.084 Cl
ENDBRANCH  20  21
ENDBRANCH  19  20
ENDBRANCH  16  19
ENDBRANCH  12  15
TORSDOF 4
