REMARK  Name = ZINC07674892
REMARK  5 active torsions:
REMARK  status: ('A' for Active; 'I' for Inactive)
REMARK    1  A    between atoms: C_1  and  C_2
REMARK    2  A    between atoms: C_3  and  C_15
REMARK    3  A    between atoms: N_5  and  C_7
REMARK    4  A    between atoms: N_16  and  N_17
REMARK    5  A    between atoms: C_19  and  C_23
REMARK                            x       y       z     vdW  Elec       q    Type
REMARK                         _______ _______ _______ _____ _____    ______ ____
ROOT
ATOM      1  C   UNL     1      -0.005  -0.371  -2.548  0.00  0.00    +0.146 C 
ATOM      2  N   UNL     1       0.003  -1.240  -3.513  0.00  0.00    -0.172 NA
ENDROOT
BRANCH   2   3
ATOM      3  N   UNL     1      -0.010  -0.807  -4.845  0.00  0.00    -0.209 N 
ATOM      4  C   UNL     1      -0.024   0.498  -5.278  0.00  0.00    +0.142 A 
ATOM      5  C   UNL     1      -0.032   0.463  -6.635  0.00  0.00    +0.067 A 
ATOM      6  N   UNL     1      -0.022  -0.838  -7.019  0.00  0.00    -0.326 N 
ATOM      7  C   UNL     1      -0.004  -1.602  -5.954  0.00  0.00    +0.192 A 
ATOM      8  N   UNL     1       0.015  -2.986  -5.953  0.00  0.00    -0.329 N 
ATOM      9  H   UNL     1       0.025  -3.471  -5.113  0.00  0.00    +0.145 HD
ATOM     10  H   UNL     1       0.018  -3.472  -6.793  0.00  0.00    +0.145 HD
ATOM     11  H   UNL     1      -0.026  -1.153  -7.937  0.00  0.00    +0.169 HD
BRANCH   5  12
ATOM     12  C   UNL     1      -0.048   1.639  -7.537  0.00  0.00    -0.000 A 
ATOM     13  C   UNL     1      -0.051   2.928  -7.006  0.00  0.00    +0.010 A 
ATOM     14  C   UNL     1      -0.066   4.019  -7.851  0.00  0.00    +0.001 A 
ATOM     15  C   UNL     1      -0.077   3.836  -9.222  0.00  0.00    +0.000 A 
ATOM     16  C   UNL     1      -0.075   2.559  -9.755  0.00  0.00    +0.001 A 
ATOM     17  C   UNL     1      -0.055   1.461  -8.920  0.00  0.00    +0.010 A 
ENDBRANCH   5  12
ENDBRANCH   2   3
BRANCH   1  20
ATOM     18  C   UNL     1      -0.018   1.503   0.010  0.00  0.00    +0.068 C 
ATOM     19  C   UNL     1       0.002  -0.004   0.002  0.00  0.00    +0.070 A 
ATOM     20  C   UNL     1       0.008  -0.827  -1.147  0.00  0.00    +0.054 A 
ATOM     21  C   UNL     1       0.028  -2.137  -0.711  0.00  0.00    +0.142 A 
ATOM     22  N   UNL     1       0.034  -2.112   0.639  0.00  0.00    -0.221 N 
ATOM     23  N   UNL     1       0.023  -0.776   1.055  0.00  0.00    -0.170 NA
ATOM     24 CL   UNL     1       0.042  -3.554  -1.713  0.00  0.00    -0.061 Cl
BRANCH  22  25
ATOM     25  C   UNL     1       0.053  -3.233   1.480  0.00  0.00    +0.067 A 
ATOM     26  C   UNL     1      -0.617  -4.391   1.110  0.00  0.00    +0.030 A 
ATOM     27  C   UNL     1      -0.597  -5.495   1.940  0.00  0.00    +0.040 A 
ATOM     28  C   UNL     1       0.091  -5.446   3.141  0.00  0.00    +0.124 A 
ATOM     29  C   UNL     1       0.760  -4.292   3.512  0.00  0.00    +0.040 A 
ATOM     30  C   UNL     1       0.748  -3.189   2.682  0.00  0.00    +0.030 A 
ATOM     31  F   UNL     1       0.109  -6.527   3.952  0.00  0.00    -0.205 F 
ENDBRANCH  22  25
ENDBRANCH   1  20
TORSDOF 4
