REMARK  Name = ZINC42007311
REMARK  7 active torsions:
REMARK  status: ('A' for Active; 'I' for Inactive)
REMARK    1  A    between atoms: C_1  and  C_2
REMARK    2  A    between atoms: C_5  and  C_8
REMARK    3  A    between atoms: C_8  and  C_9
REMARK    4  A    between atoms: C_8  and  C_10
REMARK    5  A    between atoms: C_8  and  S_13
REMARK    6  A    between atoms: S_13  and  C_14
REMARK    7  A    between atoms: C_19  and  N_20
REMARK                            x       y       z     vdW  Elec       q    Type
REMARK                         _______ _______ _______ _____ _____    ______ ____
ROOT
ATOM      1  C   UNL     1       0.107  -4.347  -0.016  0.00  0.00    +0.144 C 
ATOM      2  C   UNL     1      -0.012  -5.046   1.340  0.00  0.00    +0.040 C 
ENDROOT
BRANCH   1   7
ATOM      3  C   UNL     1       1.514   1.199   0.792  0.00  0.00    +0.044 C 
ATOM      4  C   UNL     1       1.147  -0.247   0.582  0.00  0.00    -0.050 A 
ATOM      5  C   UNL     1       0.974  -0.737  -0.700  0.00  0.00    +0.004 A 
ATOM      6  C   UNL     1       0.638  -2.064  -0.893  0.00  0.00    +0.006 A 
ATOM      7  C   UNL     1       0.474  -2.901   0.195  0.00  0.00    -0.021 A 
ATOM      8  C   UNL     1       0.648  -2.411   1.476  0.00  0.00    +0.006 A 
ATOM      9  C   UNL     1       0.988  -1.086   1.669  0.00  0.00    +0.004 A 
ENDBRANCH   1   7
BRANCH   1  10
ATOM     10  C   UNL     1      -1.212  -4.429  -0.741  0.00  0.00    +0.376 C 
ATOM     11  O   UNL     1      -1.279  -4.985  -1.824  0.00  0.00    -0.244 OA
ATOM     12  O   UNL     1      -2.212  -3.941  -0.243  0.00  0.00    -0.244 OA
ENDBRANCH   1  10
BRANCH   1  13
ATOM     13  S   UNL     1       1.392  -5.160  -1.005  0.00  0.00    -0.101 S 
BRANCH  13  14
ATOM     14  C   UNL     1       0.833  -6.825  -1.145  0.00  0.00    +0.030 A 
ATOM     15  C   UNL     1      -0.417  -7.182  -0.662  0.00  0.00    +0.016 A 
ATOM     16  C   UNL     1      -0.854  -8.489  -0.773  0.00  0.00    +0.001 A 
ATOM     17  C   UNL     1      -0.047  -9.444  -1.364  0.00  0.00    +0.002 A 
ATOM     18  C   UNL     1       1.201  -9.097  -1.848  0.00  0.00    +0.024 A 
ATOM     19  C   UNL     1       1.645  -7.787  -1.746  0.00  0.00    +0.038 A 
BRANCH  19  20
ATOM     20  N   UNL     1       2.905  -7.433  -2.241  0.00  0.00    -0.357 N 
ATOM     21  H   UNL     1       3.216  -6.517  -2.166  0.00  0.00    +0.142 HD
ATOM     22  H   UNL     1       3.468  -8.103  -2.659  0.00  0.00    +0.142 HD
ENDBRANCH  19  20
ENDBRANCH  13  14
ENDBRANCH   1  13
TORSDOF 5
