REMARK  Name = ZINC63627476
REMARK  6 active torsions:
REMARK  status: ('A' for Active; 'I' for Inactive)
REMARK    1  A    between atoms: C_1  and  O_2
REMARK    2  A    between atoms: O_2  and  C_3
REMARK    3  A    between atoms: C_8  and  S_9
REMARK    4  A    between atoms: S_9  and  N_12
REMARK    5  A    between atoms: N_12  and  C_13
REMARK    6  A    between atoms: C_16  and  C_19
REMARK                            x       y       z     vdW  Elec       q    Type
REMARK                         _______ _______ _______ _____ _____    ______ ____
ROOT
ATOM      1  C   UNL     1       0.839  -1.518   1.885  0.00  0.00    +0.048 A 
ATOM      2  C   UNL     1       0.973  -0.437   1.022  0.00  0.00    +0.025 A 
ATOM      3  C   UNL     1       1.042   0.845   1.530  0.00  0.00    +0.008 A 
ATOM      4  C   UNL     1       0.980   1.054   2.896  0.00  0.00    -0.021 A 
ATOM      5  C   UNL     1       0.848  -0.019   3.757  0.00  0.00    +0.008 A 
ATOM      6  C   UNL     1       0.772  -1.304   3.256  0.00  0.00    +0.025 A 
ENDROOT
BRANCH   4   7
ATOM      7  C   UNL     1       1.058   2.455   3.446  0.00  0.00    +0.133 C 
ATOM      8  C   UNL     1      -0.321   2.937   3.841  0.00  0.00    +0.012 C 
ATOM      9  C   UNL     1      -0.263   3.189   5.168  0.00  0.00    -0.001 A 
ATOM     10  C   UNL     1      -1.258   3.675   6.132  0.00  0.00    +0.048 A 
ATOM     11  C   UNL     1      -0.896   3.832   7.427  0.00  0.00    +0.124 A 
ATOM     12  C   UNL     1       0.404   3.543   7.869  0.00  0.00    +0.040 A 
ATOM     13  C   UNL     1       1.371   3.093   7.043  0.00  0.00    +0.029 A 
ATOM     14  C   UNL     1       1.101   2.892   5.661  0.00  0.00    +0.043 A 
ATOM     15  N   UNL     1       1.859   2.471   4.675  0.00  0.00    -0.374 N 
ATOM     16  F   UNL     1      -1.810   4.279   8.316  0.00  0.00    -0.205 F 
ATOM     17  H   UNL     1       2.791   2.214   4.746  0.00  0.00    +0.161 HD
ENDBRANCH   4   7
BRANCH   1  18
ATOM     18  N   UNL     1       0.768  -2.816   1.375  0.00  0.00    -0.216 N 
ATOM     19  H   UNL     1       1.290  -3.526   1.780  0.00  0.00    +0.174 HD
BRANCH  18  20
ATOM     20  S   UNL     1      -0.207  -3.143   0.077  0.00  0.00    +0.076 S 
ATOM     21  O   UNL     1      -0.119  -4.543  -0.154  0.00  0.00    -0.150 OA
ATOM     22  O   UNL     1       0.111  -2.184  -0.922  0.00  0.00    -0.150 OA
BRANCH  20  28
ATOM     23  C   UNL     1      -2.446  -3.572   1.586  0.00  0.00    +0.147 A 
ATOM     24  C   UNL     1      -3.750  -3.310   1.982  0.00  0.00    +0.049 A 
ATOM     25  C   UNL     1      -4.469  -2.304   1.367  0.00  0.00    +0.024 A 
ATOM     26  C   UNL     1      -3.890  -1.557   0.356  0.00  0.00    +0.043 A 
ATOM     27  C   UNL     1      -2.590  -1.817  -0.041  0.00  0.00    +0.052 A 
ATOM     28  C   UNL     1      -1.865  -2.819   0.577  0.00  0.00    +0.151 A 
ATOM     29 CL   UNL     1      -4.795  -0.293  -0.416  0.00  0.00    -0.083 Cl
BRANCH  23  31
ATOM     30  C   UNL     1      -2.432  -5.369   3.143  0.00  0.00    +0.277 C 
ATOM     31  O   UNL     1      -1.737  -4.562   2.190  0.00  0.00    -0.493 OA
ENDBRANCH  23  31
ENDBRANCH  20  28
ENDBRANCH  18  20
ENDBRANCH   1  18
TORSDOF 5
