REMARK  Name = ZINC39664441
REMARK  11 active torsions:
REMARK  status: ('A' for Active; 'I' for Inactive)
REMARK    1  A    between atoms: C_1  and  C_2
REMARK    2  A    between atoms: C_2  and  C_3
REMARK    3  A    between atoms: C_3  and  C_4
REMARK    4  A    between atoms: C_4  and  C_5
REMARK    5  A    between atoms: C_5  and  C_7
REMARK    6  A    between atoms: C_5  and  C_8
REMARK    7  A    between atoms: C_12  and  C_21
REMARK    8  A    between atoms: N_23  and  C_24
REMARK    9  A    between atoms: C_24  and  C_25
REMARK   10  A    between atoms: C_25  and  C_27
REMARK   11  A    between atoms: C_25  and  N_33
REMARK                            x       y       z     vdW  Elec       q    Type
REMARK                         _______ _______ _______ _____ _____    ______ ____
ROOT
ATOM      1  C   UNL     1       1.324  -3.357  -4.457  0.00  0.00    +0.218 C 
ATOM      2  O   UNL     1       0.490  -3.699  -3.645  0.00  0.00    -0.275 OA
ATOM      3  N   UNL     1       2.072  -4.285  -5.087  0.00  0.00    -0.300 N 
ATOM      4  C   UNL     1       3.202  -4.061  -6.019  0.00  0.00    +0.121 C 
ATOM      5  C   UNL     1       4.232  -5.153  -5.654  0.00  0.00    +0.100 C 
ATOM      6  C   UNL     1       3.405  -6.266  -4.989  0.00  0.00    -0.004 C 
ATOM      7  C   UNL     1       1.955  -5.760  -4.997  0.00  0.00    +0.115 C 
ATOM      8  C   UNL     1       3.519  -7.560  -5.790  0.00  0.00    -0.010 C 
ATOM      9  C   UNL     1       2.735  -8.666  -5.077  0.00  0.00    -0.082 C 
ATOM     10  N   UNL     1       3.273  -8.855  -3.725  0.00  0.00    +0.379 N 
ATOM     11  C   UNL     1       3.075  -7.636  -2.932  0.00  0.00    -0.082 C 
ATOM     12  C   UNL     1       3.873  -6.486  -3.554  0.00  0.00    -0.010 C 
ATOM     13  H   UNL     1       2.796  -9.625  -3.280  0.00  0.00    -0.086 HD
ATOM     14  H   UNL     1       4.259  -9.062  -3.782  0.00  0.00    -0.086 HD
ENDROOT
BRANCH   5  15
ATOM     15  C   UNL     1       5.254  -4.609  -4.690  0.00  0.00    +0.218 C 
ATOM     16  O   UNL     1       4.965  -3.688  -3.955  0.00  0.00    -0.275 OA
ATOM     17  N   UNL     1       6.490  -5.144  -4.645  0.00  0.00    -0.313 N 
ATOM     18  H   UNL     1       6.721  -5.880  -5.233  0.00  0.00    +0.149 HD
BRANCH  17  19
ATOM     19  C   UNL     1       7.484  -4.615  -3.708  0.00  0.00    +0.127 C 
BRANCH  19  20
ATOM     20  C   UNL     1       8.793  -5.394  -3.859  0.00  0.00    +0.104 C 
BRANCH  20  21
ATOM     21  C   UNL     1       9.775  -4.933  -2.813  0.00  0.00    -0.029 A 
ATOM     22  C   UNL     1      11.079  -4.644  -3.170  0.00  0.00    +0.005 A 
ATOM     23  C   UNL     1      11.980  -4.221  -2.210  0.00  0.00    +0.000 A 
ATOM     24  C   UNL     1      11.577  -4.088  -0.894  0.00  0.00    +0.000 A 
ATOM     25  C   UNL     1      10.273  -4.376  -0.538  0.00  0.00    +0.000 A 
ATOM     26  C   UNL     1       9.371  -4.795  -1.499  0.00  0.00    +0.005 A 
ENDBRANCH  20  21
BRANCH  20  27
ATOM     27  N   UNL     1       8.531  -6.829  -3.687  0.00  0.00    -0.290 NA
ATOM     28  C   UNL     1       8.082  -7.122  -2.318  0.00  0.00    +0.113 C 
ATOM     29  C   UNL     1       7.764  -8.615  -2.200  0.00  0.00    +0.175 C 
ATOM     30  O   UNL     1       8.920  -9.374  -2.564  0.00  0.00    -0.377 OA
ATOM     31  C   UNL     1       9.385  -9.114  -3.891  0.00  0.00    +0.175 C 
ATOM     32  C   UNL     1       9.719  -7.626  -4.027  0.00  0.00    +0.113 C 
ENDBRANCH  20  27
ENDBRANCH  19  20
ENDBRANCH  17  19
ENDBRANCH   5  15
BRANCH   1  33
ATOM     33  C   UNL     1       1.524  -1.895  -4.762  0.00  0.00    +0.072 C 
ATOM     34  C   UNL     1       1.286  -1.072  -3.494  0.00  0.00    +0.017 C 
BRANCH  33  35
ATOM     35  C   UNL     1       0.534  -1.460  -5.845  0.00  0.00    +0.012 C 
BRANCH  35  36
ATOM     36  C   UNL     1       0.818  -0.011  -6.244  0.00  0.00    +0.000 C 
BRANCH  36  38
ATOM     37  C   UNL     1       0.113   1.874  -7.725  0.00  0.00    +0.004 C 
ATOM     38  C   UNL     1      -0.172   0.424  -7.326  0.00  0.00    -0.003 C 
ENDBRANCH  36  38
ENDBRANCH  35  36
ENDBRANCH  33  35
ENDBRANCH   1  33
TORSDOF 9
