REMARK  Name = ZINC46585968
REMARK  12 active torsions:
REMARK  status: ('A' for Active; 'I' for Inactive)
REMARK    1  A    between atoms: C_1  and  C_2
REMARK    2  A    between atoms: C_2  and  O_3
REMARK    3  A    between atoms: O_3  and  C_4
REMARK    4  A    between atoms: C_4  and  C_6
REMARK    5  A    between atoms: C_7  and  C_19
REMARK    6  A    between atoms: C_12  and  C_14
REMARK    7  A    between atoms: C_19  and  O_20
REMARK    8  A    between atoms: O_20  and  C_21
REMARK    9  A    between atoms: C_21  and  C_23
REMARK   10  A    between atoms: C_24  and  N_34
REMARK   11  A    between atoms: C_26  and  C_33
REMARK   12  A    between atoms: C_28  and  C_32
REMARK                            x       y       z     vdW  Elec       q    Type
REMARK                         _______ _______ _______ _____ _____    ______ ____
ROOT
ATOM      1  C   UNL     1       3.028  -3.659  -2.994  0.00  0.00    +0.084 C 
ATOM      2  C   UNL     1       3.076  -4.997  -3.177  0.00  0.00    +0.061 C 
ATOM      3  N   UNL     1       3.566  -5.532  -4.334  0.00  0.00    -0.269 N 
ATOM      4  C   UNL     1       4.026  -4.799  -5.356  0.00  0.00    +0.305 C 
ATOM      5  O   UNL     1       4.442  -5.367  -6.346  0.00  0.00    -0.252 OA
ATOM      6  N   UNL     1       4.042  -3.452  -5.321  0.00  0.00    -0.285 N 
ATOM      7  C   UNL     1       3.529  -2.775  -4.118  0.00  0.00    +0.179 C 
ATOM      8  H   UNL     1       3.581  -6.498  -4.420  0.00  0.00    +0.156 HD
ATOM      9  H   UNL     1       4.380  -2.940  -6.073  0.00  0.00    +0.151 HD
ENDROOT
BRANCH   7  10
ATOM     10  C   UNL     1       4.634  -1.910  -3.571  0.00  0.00    +0.130 A 
ATOM     11  C   UNL     1       4.511  -0.628  -3.181  0.00  0.00    +0.047 A 
ATOM     12  C   UNL     1       5.787  -0.209  -2.739  0.00  0.00    +0.041 A 
ATOM     13  C   UNL     1       6.614  -1.260  -2.886  0.00  0.00    +0.195 A 
ATOM     14  O   UNL     1       5.909  -2.289  -3.384  0.00  0.00    -0.466 OA
ENDBRANCH   7  10
BRANCH   1  15
ATOM     15  C   UNL     1       2.521  -3.103  -1.796  0.00  0.00    +0.339 C 
ATOM     16  O   UNL     1       1.339  -2.829  -1.705  0.00  0.00    -0.245 OA
BRANCH  15  17
ATOM     17  O   UNL     1       3.348  -2.877  -0.755  0.00  0.00    -0.462 OA
BRANCH  17  19
ATOM     18  C   UNL     1       3.853  -2.130   1.488  0.00  0.00    +0.048 C 
ATOM     19  C   UNL     1       2.769  -2.313   0.423  0.00  0.00    +0.229 C 
ENDBRANCH  17  19
ENDBRANCH  15  17
ENDBRANCH   1  15
BRANCH   2  20
ATOM     20  C   UNL     1       2.583  -5.912  -2.086  0.00  0.00    +0.284 C 
BRANCH  20  21
ATOM     21  O   UNL     1       1.482  -6.682  -2.572  0.00  0.00    -0.455 OA
BRANCH  21  22
ATOM     22  C   UNL     1       0.920  -7.558  -1.713  0.00  0.00    +0.348 C 
ATOM     23  O   UNL     1       1.355  -7.665  -0.581  0.00  0.00    -0.244 OA
BRANCH  22  24
ATOM     24  C   UNL     1      -0.175  -8.352  -2.127  0.00  0.00    +0.119 A 
ATOM     25  C   UNL     1      -0.877  -9.288  -1.398  0.00  0.00    +0.055 A 
ATOM     26  C   UNL     1      -1.977  -9.985  -2.046  0.00  0.00    +0.030 A 
ATOM     27  C   UNL     1      -2.834 -10.977  -1.510  0.00  0.00    -0.037 A 
ATOM     28  C   UNL     1      -3.820 -11.509  -2.307  0.00  0.00    +0.025 A 
ATOM     29  C   UNL     1      -3.969 -11.080  -3.618  0.00  0.00    +0.014 A 
ATOM     30  N   UNL     1      -3.169 -10.157  -4.114  0.00  0.00    -0.353 N 
ATOM     31  C   UNL     1      -2.212  -9.617  -3.390  0.00  0.00    +0.088 A 
ATOM     32  S   UNL     1      -0.983  -8.377  -3.716  0.00  0.00    -0.062 S 
ATOM     33  C   UNL     1      -5.054 -11.673  -4.480  0.00  0.00    +0.063 C 
ATOM     34  C   UNL     1      -2.669 -11.443  -0.086  0.00  0.00    +0.044 C 
ATOM     35  H   UNL     1      -3.289  -9.870  -5.033  0.00  0.00    +0.166 HD
BRANCH  25  36
ATOM     36  N   UNL     1      -0.542  -9.559  -0.079  0.00  0.00    -0.356 N 
ATOM     37  H   UNL     1       0.327  -9.299   0.264  0.00  0.00    +0.142 HD
ATOM     38  H   UNL     1      -1.178 -10.007   0.500  0.00  0.00    +0.142 HD
ENDBRANCH  25  36
ENDBRANCH  22  24
ENDBRANCH  21  22
ENDBRANCH  20  21
ENDBRANCH   2  20
TORSDOF 9
