REMARK  Name = ZINC64707809
REMARK  7 active torsions:
REMARK  status: ('A' for Active; 'I' for Inactive)
REMARK    1  A    between atoms: C_1  and  C_2
REMARK    2  A    between atoms: C_2  and  C_4
REMARK    3  A    between atoms: C_2  and  N_13
REMARK    4  A    between atoms: C_14  and  C_16
REMARK    5  A    between atoms: C_16  and  N_17
REMARK    6  A    between atoms: C_20  and  C_25
REMARK    7  A    between atoms: C_25  and  C_26
REMARK                            x       y       z     vdW  Elec       q    Type
REMARK                         _______ _______ _______ _____ _____    ______ ____
ROOT
ATOM      1  N   UNL     1      -3.929  -1.240   2.572  0.00  0.00    -0.216 N 
ATOM      2  C   UNL     1      -3.791  -2.314   3.375  0.00  0.00    +0.244 C 
ATOM      3  O   UNL     1      -3.260  -3.369   3.102  0.00  0.00    -0.273 OA
ATOM      4  C   UNL     1      -4.436  -1.927   4.691  0.00  0.00    +0.165 C 
ATOM      5  N   UNL     1      -4.907  -0.551   4.455  0.00  0.00    -0.287 N 
ATOM      6  C   UNL     1      -4.561  -0.238   3.193  0.00  0.00    +0.310 C 
ATOM      7  O   UNL     1      -4.799   0.835   2.674  0.00  0.00    -0.252 OA
ATOM      8  H   UNL     1      -5.373   0.018   5.086  0.00  0.00    +0.151 HD
ENDROOT
BRANCH   1   9
ATOM      9  C   UNL     1      -3.442  -1.177   1.191  0.00  0.00    +0.213 C 
BRANCH   9  11
ATOM     10  N   UNL     1      -1.372  -0.511   0.012  0.00  0.00    -0.307 N 
ATOM     11  C   UNL     1      -2.029  -0.655   1.181  0.00  0.00    +0.231 C 
ATOM     12  O   UNL     1      -1.481  -0.365   2.224  0.00  0.00    -0.274 OA
ATOM     13  H   UNL     1      -1.810  -0.743  -0.822  0.00  0.00    +0.149 HD
BRANCH  10  15
ATOM     14  C   UNL     1      -0.019   1.526   0.010  0.00  0.00    +0.033 C 
ATOM     15  C   UNL     1       0.002  -0.004   0.002  0.00  0.00    +0.100 C 
BRANCH  15  16
ATOM     16  C   UNL     1       0.707  -0.490  -1.238  0.00  0.00    -0.024 A 
ATOM     17  C   UNL     1       0.036  -0.521  -2.446  0.00  0.00    +0.009 A 
ATOM     18  C   UNL     1       0.679  -0.965  -3.586  0.00  0.00    +0.050 A 
ATOM     19  C   UNL     1       1.999  -1.382  -3.520  0.00  0.00    +0.166 A 
ATOM     20  C   UNL     1       2.675  -1.351  -2.303  0.00  0.00    +0.167 A 
ATOM     21  C   UNL     1       2.026  -0.899  -1.166  0.00  0.00    +0.055 A 
ATOM     22  O   UNL     1       3.947  -1.806  -2.499  0.00  0.00    -0.453 OA
ATOM     23  C   UNL     1       3.917  -2.499  -3.761  0.00  0.00    +0.466 C 
ATOM     24  O   UNL     1       2.847  -1.856  -4.479  0.00  0.00    -0.453 OA
ENDBRANCH  15  16
ENDBRANCH  10  15
ENDBRANCH   9  11
ENDBRANCH   1   9
BRANCH   4  25
ATOM     25  C   UNL     1      -3.408  -1.960   5.824  0.00  0.00    +0.065 C 
BRANCH  25  26
ATOM     26  C   UNL     1      -4.099  -1.693   7.136  0.00  0.00    -0.039 C 
ATOM     27  C   UNL     1      -4.556  -2.612   8.017  0.00  0.00    -0.001 A 
ATOM     28  C   UNL     1      -4.549  -4.080   8.016  0.00  0.00    +0.010 A 
ATOM     29  C   UNL     1      -5.095  -4.739   9.063  0.00  0.00    +0.001 A 
ATOM     30  C   UNL     1      -5.668  -4.058  10.145  0.00  0.00    +0.002 A 
ATOM     31  C   UNL     1      -5.712  -2.710  10.218  0.00  0.00    +0.026 A 
ATOM     32  C   UNL     1      -5.166  -1.916   9.172  0.00  0.00    +0.043 A 
ATOM     33  N   UNL     1      -5.089  -0.617   9.012  0.00  0.00    -0.380 N 
ATOM     34  C   UNL     1      -4.415  -0.342   7.739  0.00  0.00    +0.144 C 
ATOM     35  H   UNL     1      -5.419   0.051   9.634  0.00  0.00    +0.160 HD
ENDBRANCH  25  26
ENDBRANCH   4  25
TORSDOF 6
