REMARK  Name = ZINC11965572
REMARK  7 active torsions:
REMARK  status: ('A' for Active; 'I' for Inactive)
REMARK    1  A    between atoms: C_4  and  C_7
REMARK    2  A    between atoms: C_7  and  C_8
REMARK    3  A    between atoms: C_8  and  C_9
REMARK    4  A    between atoms: C_9  and  C_10
REMARK    5  A    between atoms: C_10  and  C_17
REMARK    6  A    between atoms: C_22  and  C_23
REMARK    7  A    between atoms: C_22  and  N_62
REMARK                            x       y       z     vdW  Elec       q    Type
REMARK                         _______ _______ _______ _____ _____    ______ ____
ROOT
ATOM      1  C   UNL     1       0.002  -0.004   0.002  0.00  0.00    +0.115 C 
ATOM      2  C   UNL     1      -0.018   1.512   0.010  0.00  0.00    +0.244 C 
ATOM      3  O   UNL     1      -0.995   2.231   0.019  0.00  0.00    -0.273 OA
ATOM      4  N   UNL     1       1.274   1.894   0.000  0.00  0.00    -0.238 N 
ATOM      5  C   UNL     1       2.099   0.841  -0.013  0.00  0.00    +0.307 C 
ATOM      6  O   UNL     1       3.311   0.933  -0.025  0.00  0.00    -0.252 OA
ATOM      7  N   UNL     1       1.438  -0.331  -0.013  0.00  0.00    -0.285 N 
ATOM      8  H   UNL     1       1.569   2.818   0.002  0.00  0.00    +0.159 HD
ATOM      9  H   UNL     1       1.831  -1.218  -0.022  0.00  0.00    +0.151 HD
ENDROOT
BRANCH   1  10
ATOM     10  C   UNL     1      -0.686  -0.545  -1.253  0.00  0.00    +0.018 C 
ATOM     11  C   UNL     1      -0.634  -2.075  -1.246  0.00  0.00    -0.013 C 
ATOM     12  C   UNL     1      -1.268  -2.608  -2.533  0.00  0.00    -0.078 C 
ATOM     13  C   UNL     1      -0.621  -0.614  -3.748  0.00  0.00    -0.078 C 
ATOM     14  C   UNL     1       0.034  -0.021  -2.498  0.00  0.00    -0.013 C 
ATOM     15  N   UNL     1      -0.514  -2.087  -3.693  0.00  0.00    +0.382 N 
ATOM     16  H   UNL     1       0.475  -2.345  -3.591  0.00  0.00    -0.081 HD
BRANCH  15  17
ATOM     17  C   UNL     1      -1.037  -2.678  -4.942  0.00  0.00    -0.041 C 
BRANCH  17  18
ATOM     18  C   UNL     1      -0.718  -4.151  -4.953  0.00  0.00    -0.036 A 
ATOM     19  C   UNL     1       0.355  -4.612  -5.652  0.00  0.00    +0.004 A 
ATOM     20  C   UNL     1       0.666  -5.970  -5.674  0.00  0.00    +0.002 A 
ATOM     21  C   UNL     1      -0.093  -6.874  -4.996  0.00  0.00    +0.030 A 
ATOM     22  C   UNL     1      -1.209  -6.435  -4.263  0.00  0.00    +0.089 A 
ATOM     23  C   UNL     1      -1.523  -5.053  -4.236  0.00  0.00    +0.091 A 
ATOM     24  N   UNL     1      -2.587  -4.630  -3.545  0.00  0.00    -0.252 NA
ATOM     25  C   UNL     1      -3.324  -5.498  -2.890  0.00  0.00    +0.131 A 
ATOM     26  C   UNL     1      -3.012  -6.860  -2.912  0.00  0.00    +0.131 A 
ATOM     27  N   UNL     1      -1.975  -7.299  -3.587  0.00  0.00    -0.252 NA
ENDBRANCH  17  18
ENDBRANCH  15  17
ENDBRANCH   1  10
BRANCH   1  28
ATOM     28  C   UNL     1      -0.662  -0.558   1.264  0.00  0.00    +0.036 C 
BRANCH  28  29
ATOM     29  C   UNL     1       0.080  -0.045   2.499  0.00  0.00    +0.007 C 
BRANCH  29  30
ATOM     30  C   UNL     1      -0.584  -0.599   3.761  0.00  0.00    +0.035 C 
BRANCH  30  34
ATOM     31  C   UNL     1       1.490   0.834   7.209  0.00  0.00    +0.000 A 
ATOM     32  C   UNL     1       0.431   1.555   6.690  0.00  0.00    +0.000 A 
ATOM     33  C   UNL     1      -0.240   1.092   5.574  0.00  0.00    +0.003 A 
ATOM     34  C   UNL     1       0.147  -0.094   4.977  0.00  0.00    -0.047 A 
ATOM     35  C   UNL     1       1.202  -0.818   5.500  0.00  0.00    +0.003 A 
ATOM     36  C   UNL     1       1.876  -0.352   6.613  0.00  0.00    +0.000 A 
ENDBRANCH  30  34
ENDBRANCH  29  30
ENDBRANCH  28  29
ENDBRANCH   1  28
TORSDOF 7
