REMARK  Name = ZINC36022672
REMARK  9 active torsions:
REMARK  status: ('A' for Active; 'I' for Inactive)
REMARK    1  A    between atoms: C_1  and  N_2
REMARK    2  A    between atoms: N_2  and  C_3
REMARK    3  A    between atoms: N_2  and  C_4
REMARK    4  A    between atoms: C_7  and  C_10
REMARK    5  A    between atoms: C_10  and  C_12
REMARK    6  A    between atoms: C_10  and  N_27
REMARK    7  A    between atoms: C_12  and  N_13
REMARK    8  A    between atoms: C_14  and  C_16
REMARK    9  A    between atoms: C_21  and  C_24
REMARK                            x       y       z     vdW  Elec       q    Type
REMARK                         _______ _______ _______ _____ _____    ______ ____
ROOT
ATOM      1  C   UNL     1       0.016  -2.853  -4.770  0.00  0.00    +0.104 C 
ENDROOT
BRANCH   1   2
ATOM      2  N   UNL     1       0.845  -1.890  -5.508  0.00  0.00    -0.289 NA
ATOM      3  C   UNL     1       2.267  -2.046  -5.163  0.00  0.00    +0.090 C 
ATOM      4  C   UNL     1       3.103  -1.298  -6.202  0.00  0.00    +0.051 C 
ATOM      5  C   UNL     1       2.581   0.105  -6.370  0.00  0.00    -0.042 A 
ATOM      6  C   UNL     1       3.396   1.046  -6.982  0.00  0.00    +0.004 A 
ATOM      7  C   UNL     1       2.954   2.342  -7.158  0.00  0.00    +0.000 A 
ATOM      8  C   UNL     1       1.693   2.704  -6.723  0.00  0.00    +0.000 A 
ATOM      9  C   UNL     1       0.881   1.769  -6.113  0.00  0.00    +0.005 A 
ATOM     10  C   UNL     1       1.325   0.467  -5.932  0.00  0.00    -0.030 A 
ATOM     11  C   UNL     1       0.408  -0.515  -5.250  0.00  0.00    +0.120 C 
ENDBRANCH   1   2
BRANCH   1  15
ATOM     12  C   UNL     1      -0.020  -1.821  -0.623  0.00  0.00    +0.029 A 
ATOM     13  C   UNL     1      -0.791  -1.100  -1.526  0.00  0.00    +0.023 A 
ATOM     14  C   UNL     1      -0.776  -1.436  -2.866  0.00  0.00    +0.007 A 
ATOM     15  C   UNL     1       0.004  -2.489  -3.308  0.00  0.00    -0.029 A 
ATOM     16  C   UNL     1       0.772  -3.208  -2.411  0.00  0.00    +0.007 A 
ATOM     17  C   UNL     1       0.767  -2.874  -1.071  0.00  0.00    +0.023 A 
BRANCH  12  19
ATOM     18  C   UNL     1       0.786  -2.241   1.683  0.00  0.00    +0.129 C 
ATOM     19  N   UNL     1      -0.032  -1.484   0.733  0.00  0.00    -0.336 N 
ATOM     20  C   UNL     1      -0.862  -0.372   1.204  0.00  0.00    +0.129 C 
ENDBRANCH  12  19
ENDBRANCH   1  15
BRANCH   1  21
ATOM     21  C   UNL     1      -1.413  -2.819  -5.316  0.00  0.00    +0.128 C 
BRANCH  21  22
ATOM     22  N   UNL     1      -1.389  -3.056  -6.762  0.00  0.00    -0.306 N 
ATOM     23  C   UNL     1      -2.541  -3.071  -7.461  0.00  0.00    +0.299 C 
ATOM     24  O   UNL     1      -3.598  -2.888  -6.894  0.00  0.00    -0.265 OA
ATOM     25  H   UNL     1      -0.544  -3.202  -7.215  0.00  0.00    +0.149 HD
BRANCH  23  26
ATOM     26  C   UNL     1      -2.516  -3.312  -8.936  0.00  0.00    +0.301 C 
ATOM     27  O   UNL     1      -1.475  -3.604  -9.486  0.00  0.00    -0.265 OA
ATOM     28  N   UNL     1      -3.651  -3.205  -9.655  0.00  0.00    -0.294 N 
ATOM     29  C   UNL     1      -3.642  -3.433 -11.107  0.00  0.00    +0.109 C 
ATOM     30  C   UNL     1      -4.266  -2.219 -11.801  0.00  0.00    +0.032 C 
ATOM     31  C   UNL     1      -5.655  -1.959 -11.214  0.00  0.00    +0.078 C 
ATOM     32  C   UNL     1      -5.531  -1.650  -9.720  0.00  0.00    +0.032 C 
ATOM     33  C   UNL     1      -4.922  -2.864  -9.002  0.00  0.00    +0.109 C 
BRANCH  31  34
ATOM     34  C   UNL     1      -6.286  -0.785 -11.918  0.00  0.00    +0.214 C 
ATOM     35  O   UNL     1      -5.684  -0.213 -12.802  0.00  0.00    -0.276 OA
ATOM     36  N   UNL     1      -7.519  -0.371 -11.566  0.00  0.00    -0.329 N 
ATOM     37  H   UNL     1      -8.001  -0.829 -10.860  0.00  0.00    +0.145 HD
ATOM     38  H   UNL     1      -7.925   0.384 -12.019  0.00  0.00    +0.145 HD
ENDBRANCH  31  34
ENDBRANCH  23  26
ENDBRANCH  21  22
ENDBRANCH   1  21
TORSDOF 7
