REMARK  Name = ZINC33127563
REMARK  7 active torsions:
REMARK  status: ('A' for Active; 'I' for Inactive)
REMARK    1  A    between atoms: C_1  and  C_2
REMARK    2  A    between atoms: C_2  and  C_3
REMARK    3  A    between atoms: C_2  and  C_4
REMARK    4  A    between atoms: C_4  and  C_6
REMARK    5  A    between atoms: C_4  and  N_17
REMARK    6  A    between atoms: N_20  and  C_21
REMARK    7  A    between atoms: C_26  and  C_27
REMARK                            x       y       z     vdW  Elec       q    Type
REMARK                         _______ _______ _______ _____ _____    ______ ____
ROOT
ATOM      1  N   UNL     1      -1.262   5.551   0.348  0.00  0.00    -0.288 N 
ATOM      2  C   UNL     1      -0.687   6.737   0.066  0.00  0.00    +0.304 C 
ATOM      3  O   UNL     1       0.417   6.773  -0.442  0.00  0.00    -0.252 OA
ATOM      4  N   UNL     1      -1.337   7.884   0.348  0.00  0.00    -0.269 N 
ATOM      5  H   UNL     1      -2.260   5.519   0.808  0.00  0.00    +0.151 HD
ATOM      6  H   UNL     1      -2.364   7.853   0.739  0.00  0.00    +0.156 HD
ENDROOT
BRANCH   4   7
ATOM      7  C   UNL     1      -0.703   9.116   0.144  0.00  0.00    +0.046 A 
ATOM      8  C   UNL     1       0.200   9.269  -0.900  0.00  0.00    +0.024 A 
ATOM      9  C   UNL     1       0.821  10.486  -1.101  0.00  0.00    +0.002 A 
ATOM     10  C   UNL     1       0.551  11.549  -0.259  0.00  0.00    +0.001 A 
ATOM     11  C   UNL     1      -0.344  11.398   0.784  0.00  0.00    +0.014 A 
ATOM     12  C   UNL     1      -0.972  10.185   0.988  0.00  0.00    +0.076 A 
BRANCH  12  13
ATOM     13  C   UNL     1      -1.947  10.021   2.125  0.00  0.00    +0.419 C 
ATOM     14  F   UNL     1      -2.050  11.226   2.828  0.00  0.00    -0.166 F 
ATOM     15  F   UNL     1      -3.201   9.668   1.617  0.00  0.00    -0.166 F 
ATOM     16  F   UNL     1      -1.493   9.016   2.987  0.00  0.00    -0.166 F 
ENDBRANCH  12  13
ENDBRANCH   4   7
BRANCH   1  17
ATOM     17  C   UNL     1      -0.556   4.304   0.042  0.00  0.00    +0.163 C 
BRANCH  17  18
ATOM     18  C   UNL     1      -1.557   3.193  -0.143  0.00  0.00    +0.240 C 
ATOM     19  O   UNL     1      -2.697   3.333   0.245  0.00  0.00    -0.273 OA
ATOM     20  N   UNL     1      -1.184   2.043  -0.739  0.00  0.00    -0.269 N 
ATOM     21  C   UNL     1       0.126   1.798  -1.348  0.00  0.00    +0.118 C 
ATOM     22  C   UNL     1       0.059   0.359  -1.885  0.00  0.00    +0.056 C 
ATOM     23  C   UNL     1      -1.329  -0.118  -1.521  0.00  0.00    -0.024 A 
ATOM     24  C   UNL     1      -1.989   0.905  -0.859  0.00  0.00    +0.040 A 
ATOM     25  C   UNL     1      -3.298   0.697  -0.422  0.00  0.00    +0.024 A 
ATOM     26  C   UNL     1      -3.922  -0.511  -0.648  0.00  0.00    +0.002 A 
ATOM     27  C   UNL     1      -3.256  -1.526  -1.309  0.00  0.00    +0.000 A 
ATOM     28  C   UNL     1      -1.959  -1.327  -1.745  0.00  0.00    +0.005 A 
ENDBRANCH  17  18
BRANCH  17  30
ATOM     29  C   UNL     1       1.436   5.059   1.347  0.00  0.00    +0.009 C 
ATOM     30  C   UNL     1       0.387   3.956   1.195  0.00  0.00    +0.012 C 
ATOM     31  C   UNL     1      -0.416   3.833   2.491  0.00  0.00    +0.009 C 
ENDBRANCH  17  30
ENDBRANCH   1  17
TORSDOF 5
