REMARK  Name = ZINC39620524
REMARK  6 active torsions:
REMARK  status: ('A' for Active; 'I' for Inactive)
REMARK    1  A    between atoms: C_1  and  C_2
REMARK    2  A    between atoms: C_5  and  N_9
REMARK    3  A    between atoms: C_6  and  C_8
REMARK    4  A    between atoms: C_13  and  S_14
REMARK    5  A    between atoms: S_14  and  C_15
REMARK    6  A    between atoms: C_15  and  C_16
REMARK                            x       y       z     vdW  Elec       q    Type
REMARK                         _______ _______ _______ _____ _____    ______ ____
ROOT
ATOM      1  C   UNL     1      -3.471  -5.731   1.466  0.00  0.00    +0.173 C 
ENDROOT
BRANCH   1   2
ATOM      2  C   UNL     1      -4.811  -5.642   2.149  0.00  0.00    +0.227 C 
ATOM      3  O   UNL     1      -5.336  -4.561   2.316  0.00  0.00    -0.275 OA
ATOM      4  N   UNL     1      -5.428  -6.763   2.573  0.00  0.00    -0.285 N 
ATOM      5  C   UNL     1      -5.787  -6.880   3.837  0.00  0.00    +0.036 C 
ATOM      6  C   UNL     1      -5.406  -5.846   4.807  0.00  0.00    +0.025 C 
ATOM      7  C   UNL     1      -5.769  -5.959   6.099  0.00  0.00    +0.032 C 
ATOM      8  C   UNL     1      -6.549  -7.118   6.545  0.00  0.00    +0.095 C 
ATOM      9  N   UNL     1      -7.041  -7.504   7.707  0.00  0.00    -0.190 NA
ATOM     10  C   UNL     1      -7.686  -8.671   7.550  0.00  0.00    +0.369 C 
ATOM     11  O   UNL     1      -8.307  -9.340   8.550  0.00  0.00    -0.243 OA
ATOM     12  N   UNL     1      -7.640  -9.082   6.303  0.00  0.00    -0.190 NA
ATOM     13  C   UNL     1      -6.938  -8.164   5.579  0.00  0.00    +0.097 C 
ATOM     14  C   UNL     1      -6.578  -8.050   4.275  0.00  0.00    +0.053 C 
ATOM     15  H   UNL     1      -5.607  -7.483   1.949  0.00  0.00    +0.155 HD
ENDBRANCH   1   2
BRANCH   1  16
ATOM     16  S   UNL     1      -2.908  -4.066   1.018  0.00  0.00    -0.078 S 
BRANCH  16  21
ATOM     17  N   UNL     1      -0.535  -3.371  -0.271  0.00  0.00    -0.294 N 
ATOM     18  C   UNL     1       0.578  -4.011  -0.775  0.00  0.00    +0.113 A 
ATOM     19  C   UNL     1       0.403  -5.326  -0.563  0.00  0.00    +0.131 A 
ATOM     20  N   UNL     1      -0.778  -5.503   0.054  0.00  0.00    -0.230 NA
ATOM     21  C   UNL     1      -1.350  -4.337   0.241  0.00  0.00    +0.174 A 
BRANCH  17  26
ATOM     22  C   UNL     1      -1.522   2.218  -0.297  0.00  0.00    +0.044 C 
ATOM     23  C   UNL     1      -1.260   0.734  -0.290  0.00  0.00    -0.050 A 
ATOM     24  C   UNL     1      -1.192   0.040  -1.484  0.00  0.00    +0.005 A 
ATOM     25  C   UNL     1      -0.952  -1.321  -1.481  0.00  0.00    +0.027 A 
ATOM     26  C   UNL     1      -0.778  -1.990  -0.277  0.00  0.00    +0.051 A 
ATOM     27  C   UNL     1      -0.846  -1.291   0.919  0.00  0.00    -0.026 A 
ATOM     28  C   UNL     1      -1.081   0.071   0.910  0.00  0.00    +0.008 A 
ATOM     29  C   UNL     1      -0.657  -2.014   2.228  0.00  0.00    +0.046 C 
ENDBRANCH  17  26
ENDBRANCH  16  21
ENDBRANCH   1  16
TORSDOF 4
