REMARK  Name = ZINC08682598
REMARK  9 active torsions:
REMARK  status: ('A' for Active; 'I' for Inactive)
REMARK    1  A    between atoms: C_1  and  C_2
REMARK    2  A    between atoms: C_2  and  O_3
REMARK    3  A    between atoms: O_3  and  C_4
REMARK    4  A    between atoms: C_4  and  C_6
REMARK    5  A    between atoms: C_10  and  N_11
REMARK    6  A    between atoms: C_12  and  C_14
REMARK    7  A    between atoms: N_16  and  N_17
REMARK    8  A    between atoms: C_18  and  C_19
REMARK    9  A    between atoms: C_24  and  O_25
REMARK                            x       y       z     vdW  Elec       q    Type
REMARK                         _______ _______ _______ _____ _____    ______ ____
ROOT
ATOM      1  N   UNL     1      -3.031  -2.521   2.496  0.00  0.00    -0.271 N 
ATOM      2  C   UNL     1      -3.805  -2.864   3.545  0.00  0.00    +0.305 C 
ATOM      3  O   UNL     1      -4.908  -3.337   3.357  0.00  0.00    -0.265 OA
ATOM      4  H   UNL     1      -2.151  -2.144   2.646  0.00  0.00    +0.156 HD
ENDROOT
BRANCH   1   9
ATOM      5  C   UNL     1      -2.843  -2.416   0.016  0.00  0.00    +0.091 A 
ATOM      6  C   UNL     1      -3.548  -2.713  -1.223  0.00  0.00    -0.021 A 
ATOM      7  C   UNL     1      -4.779  -3.237  -1.040  0.00  0.00    -0.004 A 
ATOM      8  S   UNL     1      -4.972  -3.335   0.718  0.00  0.00    -0.077 S 
ATOM      9  C   UNL     1      -3.493  -2.708   1.205  0.00  0.00    +0.087 A 
ATOM     10  C   UNL     1      -5.768  -3.635  -2.090  0.00  0.00    +0.043 C 
ATOM     11  C   UNL     1      -5.064  -4.501  -3.143  0.00  0.00    +0.005 C 
ATOM     12  C   UNL     1      -4.498  -3.587  -4.226  0.00  0.00    +0.001 C 
ATOM     13  C   UNL     1      -4.064  -2.255  -3.618  0.00  0.00    +0.005 C 
ATOM     14  C   UNL     1      -2.949  -2.471  -2.600  0.00  0.00    +0.037 C 
BRANCH   5  15
ATOM     15  C   UNL     1      -1.497  -1.838   0.006  0.00  0.00    +0.342 C 
ATOM     16  O   UNL     1      -0.523  -2.566  -0.007  0.00  0.00    -0.245 OA
BRANCH  15  17
ATOM     17  O   UNL     1      -1.339  -0.499   0.012  0.00  0.00    -0.461 OA
BRANCH  17  19
ATOM     18  C   UNL     1      -0.019   1.526   0.010  0.00  0.00    +0.048 C 
ATOM     19  C   UNL     1       0.002  -0.004   0.002  0.00  0.00    +0.229 C 
ENDBRANCH  17  19
ENDBRANCH  15  17
ENDBRANCH   5  15
ENDBRANCH   1   9
BRANCH   2  20
ATOM     20  C   UNL     1      -3.308  -2.663   4.935  0.00  0.00    +0.318 C 
ATOM     21  O   UNL     1      -2.205  -2.191   5.123  0.00  0.00    -0.263 OA
ATOM     22  N   UNL     1      -4.082  -3.006   5.984  0.00  0.00    -0.199 N 
ATOM     23  H   UNL     1      -4.962  -3.384   5.834  0.00  0.00    +0.178 HD
BRANCH  22  24
ATOM     24  N   UNL     1      -3.614  -2.818   7.291  0.00  0.00    -0.187 NA
ATOM     25  C   UNL     1      -4.360  -3.148   8.302  0.00  0.00    +0.142 C 
BRANCH  25  26
ATOM     26  C   UNL     1      -3.868  -2.950   9.676  0.00  0.00    +0.036 A 
ATOM     27  C   UNL     1      -4.665  -3.309  10.766  0.00  0.00    +0.013 A 
ATOM     28  C   UNL     1      -4.199  -3.121  12.050  0.00  0.00    +0.001 A 
ATOM     29  C   UNL     1      -2.943  -2.577  12.264  0.00  0.00    +0.004 A 
ATOM     30  C   UNL     1      -2.146  -2.216  11.194  0.00  0.00    +0.046 A 
ATOM     31  C   UNL     1      -2.596  -2.405   9.898  0.00  0.00    +0.125 A 
BRANCH  31  32
ATOM     32  O   UNL     1      -1.810  -2.057   8.846  0.00  0.00    -0.506 OA
ATOM     33  H   UNL     1      -1.932  -1.145   8.549  0.00  0.00    +0.292 HD
ENDBRANCH  31  32
ENDBRANCH  25  26
ENDBRANCH  22  24
ENDBRANCH   2  20
TORSDOF 8
