REMARK  Name = ZINC36240641
REMARK  15 active torsions:
REMARK  status: ('A' for Active; 'I' for Inactive)
REMARK    1  A    between atoms: C_1  and  C_2
REMARK    2  A    between atoms: C_2  and  N_3
REMARK    3  A    between atoms: N_3  and  C_4
REMARK    4  A    between atoms: N_3  and  C_6
REMARK    5  A    between atoms: C_4  and  C_5
REMARK    6  A    between atoms: C_6  and  C_8
REMARK    7  A    between atoms: C_6  and  C_30
REMARK    8  A    between atoms: C_8  and  N_9
REMARK    9  A    between atoms: C_10  and  C_12
REMARK   10  A    between atoms: C_12  and  S_13
REMARK   11  A    between atoms: S_13  and  C_14
REMARK   12  A    between atoms: N_24  and  C_25
REMARK   13  A    between atoms: C_25  and  C_26
REMARK   14  A    between atoms: C_26  and  O_27
REMARK   15  A    between atoms: O_27  and  C_28
REMARK                            x       y       z     vdW  Elec       q    Type
REMARK                         _______ _______ _______ _____ _____    ______ ____
ROOT
ATOM      1  C   UNL     1       1.250  -0.530   6.011  0.00  0.00    +0.173 C 
ENDROOT
BRANCH   1   3
ATOM      2  N   UNL     1       1.135  -1.365   3.685  0.00  0.00    -0.316 N 
ATOM      3  C   UNL     1       1.829  -1.279   4.838  0.00  0.00    +0.223 C 
ATOM      4  O   UNL     1       2.918  -1.804   4.931  0.00  0.00    -0.275 OA
ATOM      5  H   UNL     1       0.264  -0.945   3.611  0.00  0.00    +0.149 HD
BRANCH   2   6
ATOM      6  C   UNL     1       1.697  -2.093   2.545  0.00  0.00    +0.096 C 
BRANCH   6   7
ATOM      7  C   UNL     1       0.778  -1.931   1.333  0.00  0.00    +0.016 C 
BRANCH   7   8
ATOM      8  C   UNL     1       1.411  -2.583   0.131  0.00  0.00    +0.093 A 
ATOM      9  C   UNL     1       1.000  -3.723  -0.453  0.00  0.00    +0.043 A 
ATOM     10  C   UNL     1       1.874  -3.965  -1.538  0.00  0.00    +0.041 A 
ATOM     11  C   UNL     1       2.766  -2.959  -1.552  0.00  0.00    +0.195 A 
ATOM     12  O   UNL     1       2.478  -2.122  -0.542  0.00  0.00    -0.469 OA
ENDBRANCH   7   8
BRANCH   7  13
ATOM     13  N   UNL     1       0.571  -0.501   1.063  0.00  0.00    +0.387 N 
ATOM     14  H   UNL     1       0.101  -0.075   1.847  0.00  0.00    -0.081 HD
BRANCH  13  16
ATOM     15  C   UNL     1       1.670   1.662   0.733  0.00  0.00    -0.017 C 
ATOM     16  C   UNL     1       1.872   0.151   0.858  0.00  0.00    -0.081 C 
ENDBRANCH  13  16
BRANCH  13  17
ATOM     17  C   UNL     1      -0.251  -0.345  -0.145  0.00  0.00    -0.081 C 
ATOM     18  C   UNL     1      -1.653  -0.896   0.118  0.00  0.00    -0.017 C 
ENDBRANCH  13  17
ENDBRANCH   7  13
ENDBRANCH   6   7
ENDBRANCH   2   6
ENDBRANCH   1   3
BRANCH   1  19
ATOM     19  S   UNL     1       2.413  -0.594   7.402  0.00  0.00    -0.078 S 
BRANCH  19  20
ATOM     20  C   UNL     1       1.603   0.313   8.677  0.00  0.00    +0.173 A 
ATOM     21  N   UNL     1       0.421   0.820   8.428  0.00  0.00    -0.223 NA
ATOM     22  C   UNL     1      -0.257   1.527   9.363  0.00  0.00    +0.080 A 
ATOM     23  C   UNL     1      -1.518   2.068   9.100  0.00  0.00    +0.048 A 
ATOM     24  C   UNL     1      -2.170   2.780  10.082  0.00  0.00    +0.043 A 
ATOM     25  C   UNL     1      -1.588   2.967  11.331  0.00  0.00    +0.021 A 
ATOM     26  C   UNL     1      -0.355   2.448  11.612  0.00  0.00    +0.017 A 
ATOM     27  C   UNL     1       0.327   1.722  10.636  0.00  0.00    +0.065 A 
ATOM     28  C   UNL     1       1.653   1.143  10.886  0.00  0.00    +0.262 A 
ATOM     29  O   UNL     1       2.207   1.277  11.962  0.00  0.00    -0.267 OA
ATOM     30  N   UNL     1       2.235   0.451   9.880  0.00  0.00    -0.285 N 
ATOM     31 CL   UNL     1      -3.737   3.454   9.757  0.00  0.00    -0.083 Cl
BRANCH  30  32
ATOM     32  C   UNL     1       3.555  -0.152  10.080  0.00  0.00    +0.155 C 
BRANCH  32  33
ATOM     33  C   UNL     1       4.639   0.852   9.684  0.00  0.00    +0.181 C 
BRANCH  33  34
ATOM     34  O   UNL     1       4.597   1.973  10.568  0.00  0.00    -0.381 OA
ATOM     35  C   UNL     1       5.575   2.976  10.283  0.00  0.00    +0.194 C 
ENDBRANCH  33  34
ENDBRANCH  32  33
ENDBRANCH  30  32
ENDBRANCH  19  20
ENDBRANCH   1  19
TORSDOF 12
