REMARK  Name = ZINC20764708
REMARK  12 active torsions:
REMARK  status: ('A' for Active; 'I' for Inactive)
REMARK    1  A    between atoms: C_1  and  C_2
REMARK    2  A    between atoms: C_2  and  O_3
REMARK    3  A    between atoms: O_3  and  C_4
REMARK    4  A    between atoms: C_8  and  C_11
REMARK    5  A    between atoms: C_9  and  O_10
REMARK    6  A    between atoms: C_14  and  C_29
REMARK    7  A    between atoms: C_16  and  C_19
REMARK    8  A    between atoms: C_21  and  O_27
REMARK    9  A    between atoms: C_24  and  O_25
REMARK   10  A    between atoms: O_25  and  C_26
REMARK   11  A    between atoms: O_27  and  C_28
REMARK   12  A    between atoms: C_32  and  C_35
REMARK                            x       y       z     vdW  Elec       q    Type
REMARK                         _______ _______ _______ _____ _____    ______ ____
ROOT
ATOM      1  C   UNL     1      -0.798  -1.989  -2.015  0.00  0.00    -0.028 C 
ATOM      2  C   UNL     1      -2.079  -1.510  -2.704  0.00  0.00    +0.044 C 
ATOM      3  C   UNL     1      -2.650  -0.343  -1.946  0.00  0.00    +0.040 C 
ATOM      4  N   UNL     1      -2.293  -0.042  -0.755  0.00  0.00    -0.298 NA
ATOM      5  C   UNL     1      -1.293  -0.775   0.010  0.00  0.00    +0.085 C 
ATOM      6  N   UNL     1      -1.068  -2.104  -0.573  0.00  0.00    +0.401 N 
ATOM      7  H   UNL     1      -1.964  -2.722  -0.415  0.00  0.00    -0.081 HD
ATOM      8  H   UNL     1      -0.206  -2.573  -0.075  0.00  0.00    -0.081 HD
ENDROOT
BRANCH   3   9
ATOM      9  C   UNL     1      -3.669   0.495  -2.609  0.00  0.00    -0.004 A 
ATOM     10  C   UNL     1      -4.080   0.202  -3.911  0.00  0.00    +0.010 A 
ATOM     11  C   UNL     1      -5.036   0.987  -4.522  0.00  0.00    +0.004 A 
ATOM     12  C   UNL     1      -5.580   2.067  -3.851  0.00  0.00    -0.050 A 
ATOM     13  C   UNL     1      -5.174   2.366  -2.563  0.00  0.00    +0.004 A 
ATOM     14  C   UNL     1      -4.222   1.588  -1.938  0.00  0.00    +0.010 A 
ATOM     15  C   UNL     1      -6.620   2.923  -4.527  0.00  0.00    +0.044 C 
ENDBRANCH   3   9
BRANCH   1  20
ATOM     16  C   UNL     1       0.729  -4.652  -4.231  0.00  0.00    +0.162 A 
ATOM     17  C   UNL     1       0.338  -5.808  -3.574  0.00  0.00    +0.049 A 
ATOM     18  C   UNL     1      -0.416  -5.725  -2.419  0.00  0.00    +0.004 A 
ATOM     19  C   UNL     1      -0.783  -4.490  -1.916  0.00  0.00    +0.006 A 
ATOM     20  C   UNL     1      -0.397  -3.333  -2.566  0.00  0.00    -0.016 A 
ATOM     21  C   UNL     1       0.355  -3.409  -3.728  0.00  0.00    +0.160 A 
BRANCH  21  22
ATOM     22  O   UNL     1       0.731  -2.272  -4.372  0.00  0.00    -0.503 OA
ATOM     23  H   UNL     1       0.434  -1.290  -3.974  0.00  0.00    +0.292 HD
ENDBRANCH  21  22
BRANCH  16  24
ATOM     24  O   UNL     1       1.471  -4.731  -5.367  0.00  0.00    -0.489 OA
BRANCH  24  26
ATOM     25  C   UNL     1       2.642  -5.929  -7.109  0.00  0.00    +0.048 C 
ATOM     26  C   UNL     1       1.813  -6.040  -5.829  0.00  0.00    +0.226 C 
ENDBRANCH  24  26
ENDBRANCH  16  24
ENDBRANCH   1  20
BRANCH   5  27
ATOM     27  C   UNL     1       0.002  -0.004   0.002  0.00  0.00    +0.005 A 
ATOM     28  C   UNL     1       1.208  -0.678  -0.013  0.00  0.00    +0.053 A 
ATOM     29  C   UNL     1       2.399   0.031  -0.021  0.00  0.00    +0.121 A 
ATOM     30  C   UNL     1       2.380   1.418  -0.013  0.00  0.00    +0.049 A 
ATOM     31  C   UNL     1       1.175   2.092   0.002  0.00  0.00    +0.049 A 
ATOM     32  C   UNL     1      -0.017   1.383   0.010  0.00  0.00    +0.124 A 
BRANCH  32  33
ATOM     33  O   UNL     1      -1.204   2.046   0.019  0.00  0.00    -0.495 OA
ATOM     34  C   UNL     1      -1.148   3.474   0.026  0.00  0.00    +0.277 C 
ENDBRANCH  32  33
BRANCH  29  35
ATOM     35  O   UNL     1       3.586  -0.633  -0.035  0.00  0.00    -0.495 OA
ATOM     36  C   UNL     1       4.774   0.162  -0.042  0.00  0.00    +0.277 C 
ENDBRANCH  29  35
ENDBRANCH   5  27
TORSDOF 8
