REMARK  Name = ZINC06442724
REMARK  14 active torsions:
REMARK  status: ('A' for Active; 'I' for Inactive)
REMARK    1  A    between atoms: C_1  and  C_2
REMARK    2  A    between atoms: C_6  and  C_8
REMARK    3  A    between atoms: C_8  and  C_9
REMARK    4  A    between atoms: C_9  and  N_10
REMARK    5  A    between atoms: N_10  and  C_11
REMARK    6  A    between atoms: N_10  and  C_27
REMARK    7  A    between atoms: C_11  and  C_12
REMARK    8  A    between atoms: C_27  and  N_29
REMARK    9  A    between atoms: N_29  and  C_30
REMARK   10  A    between atoms: C_30  and  C_31
REMARK   11  A    between atoms: C_31  and  C_32
REMARK   12  A    between atoms: C_32  and  N_66
REMARK   13  A    between atoms: C_33  and  N_66
REMARK   14  A    between atoms: C_34  and  N_66
REMARK                            x       y       z     vdW  Elec       q    Type
REMARK                         _______ _______ _______ _____ _____    ______ ____
ROOT
ATOM      1  N   UNL     1       1.196   4.112   1.393  0.00  0.00    -0.308 N 
ENDROOT
BRANCH   1   2
ATOM      2  C   UNL     1       2.368   4.419   1.985  0.00  0.00    +0.133 C 
ATOM      3  S   UNL     1       3.822   4.369   1.083  0.00  0.00    -0.019 S 
BRANCH   2   4
ATOM      4  N   UNL     1       2.394   4.765   3.288  0.00  0.00    -0.326 N 
ATOM      5  H   UNL     1       1.570   4.793   3.799  0.00  0.00    +0.148 HD
BRANCH   4   6
ATOM      6  C   UNL     1       3.667   5.098   3.931  0.00  0.00    +0.101 C 
BRANCH   6   7
ATOM      7  C   UNL     1       3.419   5.453   5.399  0.00  0.00    +0.000 C 
BRANCH   7   8
ATOM      8  C   UNL     1       4.749   5.801   6.071  0.00  0.00    -0.078 C 
BRANCH   8  11
ATOM      9  C   UNL     1       5.777   6.250   8.216  0.00  0.00    -0.097 C 
ATOM     10  C   UNL     1       3.725   7.377   7.598  0.00  0.00    -0.097 C 
ATOM     11  N   UNL     1       4.496   6.120   7.492  0.00  0.00    +0.376 N 
ATOM     12  H   UNL     1       3.951   5.358   7.912  0.00  0.00    -0.083 HD
ENDBRANCH   8  11
ENDBRANCH   7   8
ENDBRANCH   6   7
ENDBRANCH   4   6
ENDBRANCH   2   4
ENDBRANCH   1   2
BRANCH   1  13
ATOM     13  C   UNL     1      -0.059   4.263   2.132  0.00  0.00    +0.112 C 
BRANCH  13  14
ATOM     14  C   UNL     1      -0.381   2.959   2.864  0.00  0.00    +0.054 C 
BRANCH  14  20
ATOM     15  C   UNL     1      -5.369   2.599   3.051  0.00  0.00    +0.044 C 
ATOM     16  C   UNL     1      -4.059   2.942   3.713  0.00  0.00    -0.050 A 
ATOM     17  C   UNL     1      -4.043   3.399   5.018  0.00  0.00    +0.003 A 
ATOM     18  C   UNL     1      -2.842   3.713   5.625  0.00  0.00    +0.001 A 
ATOM     19  C   UNL     1      -1.657   3.566   4.930  0.00  0.00    +0.004 A 
ATOM     20  C   UNL     1      -1.673   3.114   3.624  0.00  0.00    -0.046 A 
ATOM     21  C   UNL     1      -2.874   2.799   3.016  0.00  0.00    +0.007 A 
ENDBRANCH  14  20
ENDBRANCH  13  14
ENDBRANCH   1  13
BRANCH   1  22
ATOM     22  C   UNL     1       1.179   3.627   0.011  0.00  0.00    +0.147 C 
BRANCH  22  23
ATOM     23  C   UNL     1       1.146   2.120   0.007  0.00  0.00    +0.035 A 
ATOM     24  C   UNL     1       2.305   1.419  -0.070  0.00  0.00    +0.020 A 
ATOM     25  C   UNL     1       2.240  -0.042  -0.071  0.00  0.00    +0.003 A 
ATOM     26  C   UNL     1       3.404  -0.818  -0.148  0.00  0.00    +0.059 A 
ATOM     27  C   UNL     1       3.311  -2.192  -0.146  0.00  0.00    +0.167 A 
ATOM     28  C   UNL     1       2.058  -2.814  -0.067  0.00  0.00    +0.168 A 
ATOM     29  C   UNL     1       0.904  -2.056   0.009  0.00  0.00    +0.075 A 
ATOM     30  C   UNL     1       0.981  -0.669   0.008  0.00  0.00    +0.053 A 
ATOM     31  N   UNL     1      -0.160   0.103   0.085  0.00  0.00    -0.322 N 
ATOM     32  H   UNL     1      -1.027  -0.330   0.139  0.00  0.00    +0.169 HD
ATOM     33  C   UNL     1      -0.089   1.445   0.085  0.00  0.00    +0.254 A 
ATOM     34  O   UNL     1      -1.118   2.095   0.155  0.00  0.00    -0.268 OA
ATOM     35  O   UNL     1       2.245  -4.165  -0.084  0.00  0.00    -0.453 OA
ATOM     36  C   UNL     1       3.632  -4.367   0.242  0.00  0.00    +0.466 C 
ATOM     37  O   UNL     1       4.272  -3.160  -0.210  0.00  0.00    -0.453 OA
ENDBRANCH  22  23
ENDBRANCH   1  22
TORSDOF 11
