REMARK  Name = ZINC39684459
REMARK  11 active torsions:
REMARK  status: ('A' for Active; 'I' for Inactive)
REMARK    1  A    between atoms: C_1  and  C_2
REMARK    2  A    between atoms: C_2  and  C_4
REMARK    3  A    between atoms: C_2  and  O_27
REMARK    4  A    between atoms: C_8  and  C_17
REMARK    5  A    between atoms: N_19  and  C_20
REMARK    6  A    between atoms: C_20  and  C_22
REMARK    7  A    between atoms: C_20  and  C_23
REMARK    8  A    between atoms: C_23  and  C_24
REMARK    9  A    between atoms: C_23  and  C_25
REMARK   10  A    between atoms: C_23  and  C_26
REMARK   11  A    between atoms: O_27  and  C_28
REMARK                            x       y       z     vdW  Elec       q    Type
REMARK                         _______ _______ _______ _____ _____    ______ ____
ROOT
ATOM      1  C   UNL     1       0.452  -0.462   1.110  0.00  0.00    +0.256 C 
ATOM      2  O   UNL     1      -0.243  -0.901   2.002  0.00  0.00    -0.272 OA
ATOM      3  N   UNL     1       1.793  -0.463   1.239  0.00  0.00    -0.297 N 
ATOM      4  C   UNL     1       2.802  -0.045   0.237  0.00  0.00    +0.121 C 
ATOM      5  C   UNL     1       3.883   0.695   1.057  0.00  0.00    +0.100 C 
ATOM      6  C   UNL     1       3.742   0.139   2.484  0.00  0.00    -0.004 C 
ATOM      7  C   UNL     1       2.593  -0.877   2.416  0.00  0.00    +0.115 C 
ATOM      8  C   UNL     1       3.389   1.261   3.456  0.00  0.00    -0.010 C 
ATOM      9  C   UNL     1       3.311   0.694   4.876  0.00  0.00    -0.082 C 
ATOM     10  N   UNL     1       4.601   0.094   5.237  0.00  0.00    +0.379 N 
ATOM     11  C   UNL     1       4.889  -1.043   4.355  0.00  0.00    -0.082 C 
ATOM     12  C   UNL     1       5.034  -0.550   2.913  0.00  0.00    -0.010 C 
ATOM     13  H   UNL     1       5.330   0.785   5.141  0.00  0.00    -0.086 HD
ATOM     14  H   UNL     1       4.566  -0.224   6.194  0.00  0.00    -0.086 HD
ENDROOT
BRANCH   5  15
ATOM     15  C   UNL     1       5.254   0.396   0.508  0.00  0.00    +0.218 C 
ATOM     16  O   UNL     1       5.477  -0.674  -0.017  0.00  0.00    -0.275 OA
ATOM     17  N   UNL     1       6.232   1.319   0.599  0.00  0.00    -0.312 N 
ATOM     18  H   UNL     1       6.054   2.175   1.019  0.00  0.00    +0.149 HD
BRANCH  17  19
ATOM     19  C   UNL     1       7.565   1.028   0.066  0.00  0.00    +0.075 C 
ATOM     20  C   UNL     1       7.599   1.355  -1.429  0.00  0.00    +0.028 C 
BRANCH  19  21
ATOM     21  C   UNL     1       8.604   1.880   0.797  0.00  0.00    -0.020 C 
ATOM     22  C   UNL     1       8.571   1.554   2.291  0.00  0.00    +0.012 C 
ATOM     23  C   UNL     1       9.997   1.577   0.240  0.00  0.00    +0.012 C 
ATOM     24  C   UNL     1       8.285   3.362   0.592  0.00  0.00    +0.012 C 
ENDBRANCH  19  21
ENDBRANCH  17  19
ENDBRANCH   5  15
BRANCH   1  26
ATOM     25  C   UNL     1       0.033   1.599  -0.204  0.00  0.00    +0.062 C 
ATOM     26  C   UNL     1      -0.185   0.085  -0.141  0.00  0.00    +0.256 C 
BRANCH  26  27
ATOM     27  O   UNL     1      -1.586  -0.194  -0.124  0.00  0.00    -0.480 OA
BRANCH  27  28
ATOM     28  C   UNL     1      -2.217  -0.261  -1.326  0.00  0.00    +0.122 A 
ATOM     29  C   UNL     1      -1.524   0.035  -2.491  0.00  0.00    +0.045 A 
ATOM     30  C   UNL     1      -2.167  -0.034  -3.712  0.00  0.00    +0.004 A 
ATOM     31  C   UNL     1      -3.500  -0.399  -3.773  0.00  0.00    +0.000 A 
ATOM     32  C   UNL     1      -4.192  -0.695  -2.613  0.00  0.00    +0.004 A 
ATOM     33  C   UNL     1      -3.552  -0.633  -1.391  0.00  0.00    +0.045 A 
ENDBRANCH  27  28
ENDBRANCH  26  27
ENDBRANCH   1  26
TORSDOF 6
