REMARK  Name = ZINC59167013
REMARK  10 active torsions:
REMARK  status: ('A' for Active; 'I' for Inactive)
REMARK    1  A    between atoms: C_1  and  C_2
REMARK    2  A    between atoms: C_7  and  C_8
REMARK    3  A    between atoms: N_13  and  N_14
REMARK    4  A    between atoms: C_15  and  C_17
REMARK    5  A    between atoms: C_17  and  C_19
REMARK    6  A    between atoms: C_17  and  C_20
REMARK    7  A    between atoms: C_23  and  C_26
REMARK    8  A    between atoms: C_26  and  C_27
REMARK    9  A    between atoms: C_27  and  C_28
REMARK   10  A    between atoms: C_27  and  C_29
REMARK                            x       y       z     vdW  Elec       q    Type
REMARK                         _______ _______ _______ _____ _____    ______ ____
ROOT
ATOM      1  N   UNL     1       0.093  -6.535  -0.046  0.00  0.00    -0.206 N 
ATOM      2  C   UNL     1       0.103  -7.572  -0.907  0.00  0.00    +0.239 C 
ATOM      3  O   UNL     1       0.094  -7.367  -2.102  0.00  0.00    -0.273 OA
ATOM      4  H   UNL     1       0.100  -6.698   0.910  0.00  0.00    +0.177 HD
ENDROOT
BRANCH   1  17
ATOM      5  C   UNL     1      -0.018   1.503   0.010  0.00  0.00    +0.044 C 
ATOM      6  C   UNL     1       0.002  -0.004   0.002  0.00  0.00    -0.046 A 
ATOM      7  C   UNL     1       0.006  -0.683  -1.205  0.00  0.00    +0.004 A 
ATOM      8  C   UNL     1       0.025  -2.064  -1.221  0.00  0.00    +0.012 A 
ATOM      9  C   UNL     1       0.040  -2.768  -0.022  0.00  0.00    +0.028 A 
ATOM     10  C   UNL     1       0.037  -2.085   1.200  0.00  0.00    +0.046 A 
ATOM     11  C   UNL     1       0.023  -0.694   1.197  0.00  0.00    -0.026 A 
ATOM     12  C   UNL     1       0.024   0.061   2.501  0.00  0.00    +0.046 C 
ATOM     13  N   UNL     1       0.055  -3.006   2.242  0.00  0.00    -0.279 N 
ATOM     14  C   UNL     1       0.070  -4.268   1.781  0.00  0.00    +0.269 C 
ATOM     15  O   UNL     1       0.087  -5.278   2.460  0.00  0.00    -0.268 OA
ATOM     16  C   UNL     1       0.062  -4.212   0.305  0.00  0.00    +0.153 C 
ATOM     17  N   UNL     1       0.072  -5.221  -0.532  0.00  0.00    -0.175 NA
ATOM     18  H   UNL     1       0.056  -2.767   3.182  0.00  0.00    +0.155 HD
ENDBRANCH   1  17
BRANCH   2  19
ATOM     19  C   UNL     1       0.125  -8.985  -0.384  0.00  0.00    +0.103 C 
ATOM     20  C   UNL     1       1.382  -9.195   0.464  0.00  0.00    +0.022 C 
BRANCH  19  21
ATOM     21  C   UNL     1       0.133  -9.949  -1.542  0.00  0.00    -0.036 A 
ATOM     22  C   UNL     1       1.168  -9.921  -2.458  0.00  0.00    +0.004 A 
ATOM     23  C   UNL     1       1.175 -10.805  -3.520  0.00  0.00    +0.004 A 
ATOM     24  C   UNL     1       0.147 -11.718  -3.666  0.00  0.00    -0.047 A 
ATOM     25  C   UNL     1      -0.887 -11.747  -2.750  0.00  0.00    +0.004 A 
ATOM     26  C   UNL     1      -0.892 -10.866  -1.685  0.00  0.00    +0.004 A 
BRANCH  24  27
ATOM     27  C   UNL     1       0.155 -12.681  -4.825  0.00  0.00    +0.038 C 
BRANCH  27  28
ATOM     28  C   UNL     1       0.891 -13.960  -4.420  0.00  0.00    -0.013 C 
ATOM     29  C   UNL     1       0.111 -14.668  -3.311  0.00  0.00    +0.007 C 
ATOM     30  C   UNL     1       1.007 -14.887  -5.632  0.00  0.00    +0.007 C 
ENDBRANCH  27  28
ENDBRANCH  24  27
ENDBRANCH  19  21
ENDBRANCH   2  19
TORSDOF 5
