REMARK  Name = ZINC06198124
REMARK  13 active torsions:
REMARK  status: ('A' for Active; 'I' for Inactive)
REMARK    1  A    between atoms: C_1  and  C_2
REMARK    2  A    between atoms: C_2  and  C_3
REMARK    3  A    between atoms: C_10  and  C_15
REMARK    4  A    between atoms: C_15  and  C_17
REMARK    5  A    between atoms: C_15  and  N_69
REMARK    6  A    between atoms: N_21  and  C_22
REMARK    7  A    between atoms: C_22  and  C_23
REMARK    8  A    between atoms: C_22  and  C_24
REMARK    9  A    between atoms: C_22  and  C_25
REMARK   10  A    between atoms: C_26  and  C_27
REMARK   11  A    between atoms: C_26  and  N_69
REMARK   12  A    between atoms: C_34  and  C_35
REMARK   13  A    between atoms: C_34  and  N_69
REMARK                            x       y       z     vdW  Elec       q    Type
REMARK                         _______ _______ _______ _____ _____    ______ ____
ROOT
ATOM      1  C   UNL     1       3.348   0.853  -0.789  0.00  0.00    +0.040 C 
ENDROOT
BRANCH   1   9
ATOM      2  C   UNL     1       6.217   2.095  -6.129  0.00  0.00    -0.047 A 
ATOM      3  C   UNL     1       5.519   3.261  -6.413  0.00  0.00    +0.005 A 
ATOM      4  C   UNL     1       4.545   3.724  -5.555  0.00  0.00    +0.026 A 
ATOM      5  C   UNL     1       4.258   3.019  -4.391  0.00  0.00    +0.049 A 
ATOM      6  C   UNL     1       4.967   1.837  -4.107  0.00  0.00    -0.001 A 
ATOM      7  C   UNL     1       5.951   1.385  -4.992  0.00  0.00    +0.013 A 
ATOM      8  C   UNL     1       4.657   1.101  -2.880  0.00  0.00    +0.017 A 
ATOM      9  C   UNL     1       3.692   1.586  -2.059  0.00  0.00    +0.011 A 
ATOM     10  C   UNL     1       3.006   2.773  -2.394  0.00  0.00    +0.251 A 
ATOM     11  O   UNL     1       2.139   3.190  -1.645  0.00  0.00    -0.268 OA
ATOM     12  N   UNL     1       3.288   3.459  -3.516  0.00  0.00    -0.322 N 
ATOM     13  H   UNL     1       2.787   4.301  -3.718  0.00  0.00    +0.169 HD
BRANCH   2  15
ATOM     14  C   UNL     1       6.644   0.675  -8.117  0.00  0.00    +0.009 C 
ATOM     15  C   UNL     1       7.278   1.608  -7.082  0.00  0.00    +0.032 C 
ENDBRANCH   2  15
ENDBRANCH   1   9
BRANCH   1  16
ATOM     16  C   UNL     1       1.912   0.400  -0.844  0.00  0.00    +0.143 A 
ATOM     17  N   UNL     1       0.849   1.142  -0.647  0.00  0.00    -0.115 NA
ATOM     18  N   UNL     1      -0.190   0.392  -0.779  0.00  0.00    -0.023 NA
ATOM     19  N   UNL     1       0.182  -0.809  -1.055  0.00  0.00    -0.043 NA
ATOM     20  N   UNL     1       1.471  -0.845  -1.103  0.00  0.00    -0.225 N 
BRANCH  20  21
ATOM     21  C   UNL     1       2.299  -2.019  -1.387  0.00  0.00    +0.059 C 
ATOM     22  C   UNL     1       1.399  -3.204  -1.743  0.00  0.00    +0.036 C 
ATOM     23  C   UNL     1       3.230  -1.715  -2.563  0.00  0.00    +0.036 C 
ATOM     24  C   UNL     1       3.134  -2.366  -0.152  0.00  0.00    +0.036 C 
ENDBRANCH  20  21
ENDBRANCH   1  16
BRANCH   1  25
ATOM     25  N   UNL     1       3.514   1.768   0.360  0.00  0.00    +0.397 N 
ATOM     26  H   UNL     1       2.744   2.447   0.360  0.00  0.00    -0.079 HD
BRANCH  25  27
ATOM     27  C   UNL     1       4.795   2.496   0.245  0.00  0.00    -0.041 C 
BRANCH  27  28
ATOM     28  C   UNL     1       4.866   3.532   1.337  0.00  0.00    -0.064 A 
ATOM     29  C   UNL     1       4.260   4.763   1.163  0.00  0.00    +0.003 A 
ATOM     30  C   UNL     1       4.320   5.711   2.166  0.00  0.00    +0.020 A 
ATOM     31  C   UNL     1       4.997   5.434   3.340  0.00  0.00    +0.041 A 
ATOM     32  C   UNL     1       5.608   4.204   3.512  0.00  0.00    +0.020 A 
ATOM     33  C   UNL     1       5.543   3.254   2.510  0.00  0.00    +0.003 A 
ATOM     34 CL   UNL     1       5.078   6.627   4.598  0.00  0.00    -0.084 Cl
ENDBRANCH  27  28
ENDBRANCH  25  27
BRANCH  25  35
ATOM     35  C   UNL     1       3.479   1.003   1.624  0.00  0.00    -0.001 C 
BRANCH  35  36
ATOM     36  C   UNL     1       2.041   0.747   1.993  0.00  0.00    +0.089 A 
ATOM     37  C   UNL     1       1.353  -0.382   1.741  0.00  0.00    +0.042 A 
ATOM     38  C   UNL     1       0.050  -0.191   2.255  0.00  0.00    +0.041 A 
ATOM     39  C   UNL     1       0.019   1.043   2.790  0.00  0.00    +0.195 A 
ATOM     40  O   UNL     1       1.229   1.604   2.634  0.00  0.00    -0.470 OA
ENDBRANCH  35  36
ENDBRANCH  25  35
ENDBRANCH   1  25
TORSDOF 9
