REMARK  Name = ZINC39455065
REMARK  13 active torsions:
REMARK  status: ('A' for Active; 'I' for Inactive)
REMARK    1  A    between atoms: C_1  and  O_2
REMARK    2  A    between atoms: O_2  and  C_3
REMARK    3  A    between atoms: C_3  and  C_5
REMARK    4  A    between atoms: N_8  and  C_11
REMARK    5  A    between atoms: C_11  and  C_12
REMARK    6  A    between atoms: C_12  and  C_14
REMARK    7  A    between atoms: C_12  and  O_34
REMARK    8  A    between atoms: C_14  and  O_15
REMARK    9  A    between atoms: O_15  and  C_16
REMARK   10  A    between atoms: C_19  and  C_22
REMARK   11  A    between atoms: C_22  and  N_23
REMARK   12  A    between atoms: N_23  and  C_24
REMARK   13  A    between atoms: C_24  and  C_25
REMARK                            x       y       z     vdW  Elec       q    Type
REMARK                         _______ _______ _______ _____ _____    ______ ____
ROOT
ATOM      1  C   UNL     1       1.638  -9.545   5.625  0.00  0.00    +0.121 A 
ATOM      2  C   UNL     1       1.169 -10.502   4.737  0.00  0.00    +0.046 A 
ATOM      3  C   UNL     1       1.357 -11.844   5.007  0.00  0.00    +0.005 A 
ATOM      4  C   UNL     1       2.011 -12.233   6.161  0.00  0.00    -0.064 A 
ATOM      5  C   UNL     1       2.479 -11.281   7.048  0.00  0.00    +0.005 A 
ATOM      6  C   UNL     1       2.299  -9.938   6.779  0.00  0.00    +0.046 A 
ENDROOT
BRANCH   1   7
ATOM      7  O   UNL     1       1.455  -8.224   5.362  0.00  0.00    -0.489 OA
BRANCH   7   8
ATOM      8  C   UNL     1       0.765  -7.893   4.154  0.00  0.00    +0.258 C 
BRANCH   8   9
ATOM      9  C   UNL     1       0.656  -6.372   4.031  0.00  0.00    +0.135 C 
BRANCH   9  10
ATOM     10  O   UNL     1      -0.165  -5.866   5.086  0.00  0.00    -0.390 OA
ATOM     11  H   UNL     1      -1.066  -6.218   5.087  0.00  0.00    +0.210 HD
ENDBRANCH   9  10
BRANCH   9  12
ATOM     12  C   UNL     1       0.030  -6.014   2.681  0.00  0.00    -0.044 C 
BRANCH  12  16
ATOM     13  C   UNL     1       0.679  -2.115   1.088  0.00  0.00    +0.094 C 
ATOM     14  C   UNL     1      -0.743  -2.684   1.133  0.00  0.00    -0.004 C 
ATOM     15  C   UNL     1      -0.673  -4.206   1.274  0.00  0.00    -0.078 C 
ATOM     16  N   UNL     1       0.034  -4.555   2.511  0.00  0.00    +0.381 N 
ATOM     17  C   UNL     1       1.419  -4.075   2.446  0.00  0.00    -0.078 C 
ATOM     18  C   UNL     1       1.431  -2.548   2.350  0.00  0.00    -0.004 C 
ATOM     19  H   UNL     1      -0.433  -4.126   3.296  0.00  0.00    -0.082 HD
BRANCH  13  20
ATOM     20  C   UNL     1       0.618  -0.611   1.029  0.00  0.00    +0.310 C 
ATOM     21  O   UNL     1       1.124   0.049   1.905  0.00  0.00    -0.251 OA
BRANCH  20  23
ATOM     22  C   UNL     1      -0.017   1.425   0.010  0.00  0.00    +0.280 C 
ATOM     23  O   UNL     1       0.002  -0.004   0.002  0.00  0.00    -0.468 OA
ENDBRANCH  20  23
ENDBRANCH  13  20
ENDBRANCH  12  16
ENDBRANCH   9  12
ENDBRANCH   8   9
ENDBRANCH   7   8
ENDBRANCH   1   7
BRANCH   4  24
ATOM     24  C   UNL     1       2.215 -13.698   6.453  0.00  0.00    -0.047 C 
BRANCH  24  25
ATOM     25  N   UNL     1       3.490 -14.140   5.873  0.00  0.00    +0.383 N 
ATOM     26  H   UNL     1       3.474 -13.995   4.875  0.00  0.00    -0.085 HD
ATOM     27  H   UNL     1       4.246 -13.608   6.278  0.00  0.00    -0.085 HD
BRANCH  25  28
ATOM     28  C   UNL     1       3.688 -15.568   6.158  0.00  0.00    -0.049 C 
BRANCH  28  29
ATOM     29  C   UNL     1       5.016 -16.028   5.554  0.00  0.00    +0.139 C 
ATOM     30  C   UNL     1       5.165 -17.532   5.669  0.00  0.00    -0.023 C 
ATOM     31  C   UNL     1       5.240 -17.962   4.411  0.00  0.00    +0.064 C 
ATOM     32  C   UNL     1       5.391 -19.473   4.393  0.00  0.00    +0.057 C 
ATOM     33  C   UNL     1       5.829 -19.851   5.825  0.00  0.00    +0.011 C 
ATOM     34  C   UNL     1       5.258 -18.674   6.647  0.00  0.00    +0.035 C 
ATOM     35  N   UNL     1       5.156 -16.908   3.555  0.00  0.00    -0.159 NA
ATOM     36  N   UNL     1       5.033 -15.805   4.098  0.00  0.00    -0.181 NA
ENDBRANCH  28  29
ENDBRANCH  25  28
ENDBRANCH  24  25
ENDBRANCH   4  24
TORSDOF 12
