REMARK  Name = ZINC13041470
REMARK  12 active torsions:
REMARK  status: ('A' for Active; 'I' for Inactive)
REMARK    1  A    between atoms: C_1  and  C_2
REMARK    2  A    between atoms: C_2  and  O_3
REMARK    3  A    between atoms: O_3  and  C_4
REMARK    4  A    between atoms: C_4  and  C_6
REMARK    5  A    between atoms: C_7  and  C_32
REMARK    6  A    between atoms: C_11  and  C_12
REMARK    7  A    between atoms: N_13  and  C_14
REMARK    8  A    between atoms: C_16  and  C_22
REMARK    9  A    between atoms: C_16  and  C_23
REMARK   10  A    between atoms: C_18  and  C_20
REMARK   11  A    between atoms: C_18  and  C_21
REMARK   12  A    between atoms: C_24  and  O_25
REMARK                            x       y       z     vdW  Elec       q    Type
REMARK                         _______ _______ _______ _____ _____    ______ ____
ROOT
ATOM      1  C   UNL     1       0.539  -2.984  -1.283  0.00  0.00    +0.108 A 
ATOM      2  C   UNL     1       1.816  -3.457  -1.203  0.00  0.00    +0.117 A 
ATOM      3  O   UNL     1       2.114  -4.129  -2.319  0.00  0.00    -0.458 OA
ATOM      4  C   UNL     1       1.074  -4.137  -3.178  0.00  0.00    +0.144 A 
ATOM      5  C   UNL     1       0.030  -3.433  -2.590  0.00  0.00    +0.047 A 
ATOM      6  C   UNL     1      -1.241  -3.276  -3.289  0.00  0.00    +0.044 A 
ATOM      7  C   UNL     1      -1.403  -3.840  -4.550  0.00  0.00    +0.134 A 
ATOM      8  C   UNL     1      -0.339  -4.556  -5.140  0.00  0.00    +0.028 A 
ATOM      9  C   UNL     1       0.894  -4.701  -4.462  0.00  0.00    +0.029 A 
ATOM     10  C   UNL     1       1.934  -5.421  -5.072  0.00  0.00    +0.012 A 
ATOM     11  C   UNL     1       1.750  -5.961  -6.310  0.00  0.00    +0.001 A 
ATOM     12  C   UNL     1       0.541  -5.809  -6.982  0.00  0.00    +0.001 A 
ATOM     13  C   UNL     1      -0.494  -5.129  -6.415  0.00  0.00    +0.012 A 
ATOM     14  C   UNL     1       2.748  -3.253  -0.036  0.00  0.00    +0.087 C 
ENDROOT
BRANCH   6  15
ATOM     15  C   UNL     1      -2.341  -2.529  -2.665  0.00  0.00    +0.090 C 
ATOM     16  N   UNL     1      -3.426  -2.293  -3.335  0.00  0.00    -0.387 N 
ATOM     17  H   UNL     1      -3.478  -2.531  -4.274  0.00  0.00    +0.159 HD
BRANCH  16  18
ATOM     18  C   UNL     1      -4.577  -1.667  -2.672  0.00  0.00    +0.076 C 
ATOM     19  C   UNL     1      -5.791  -2.591  -2.792  0.00  0.00    +0.011 C 
ATOM     20  C   UNL     1      -7.001  -1.946  -2.116  0.00  0.00    -0.071 C 
ATOM     21  N   UNL     1      -7.265  -0.609  -2.626  0.00  0.00    +0.386 N 
ATOM     22  C   UNL     1      -6.138   0.301  -2.752  0.00  0.00    -0.071 C 
ATOM     23  C   UNL     1      -4.907  -0.349  -3.373  0.00  0.00    +0.011 C 
ATOM     24  C   UNL     1      -5.771   0.937  -1.409  0.00  0.00    -0.010 C 
ATOM     25  C   UNL     1      -6.573   1.451  -3.692  0.00  0.00    -0.010 C 
ATOM     26  C   UNL     1      -6.829  -1.960  -0.598  0.00  0.00    -0.010 C 
ATOM     27  C   UNL     1      -8.231  -2.824  -2.446  0.00  0.00    -0.010 C 
ATOM     28  H   UNL     1      -7.712  -0.698  -3.542  0.00  0.00    -0.084 HD
ATOM     29  H   UNL     1      -7.969  -0.170  -2.027  0.00  0.00    -0.084 HD
ENDBRANCH  16  18
ENDBRANCH   6  15
BRANCH   1  30
ATOM     30  C   UNL     1      -0.181  -2.195  -0.272  0.00  0.00    +0.343 C 
ATOM     31  O   UNL     1      -0.830  -2.758   0.588  0.00  0.00    -0.245 OA
BRANCH  30  32
ATOM     32  O   UNL     1      -0.121  -0.849  -0.299  0.00  0.00    -0.461 OA
BRANCH  32  34
ATOM     33  C   UNL     1      -0.659   1.360   0.521  0.00  0.00    +0.048 C 
ATOM     34  C   UNL     1      -0.845  -0.147   0.713  0.00  0.00    +0.229 C 
ENDBRANCH  32  34
ENDBRANCH  30  32
ENDBRANCH   1  30
BRANCH   7  35
ATOM     35  O   UNL     1      -2.579  -3.701  -5.210  0.00  0.00    -0.505 OA
ATOM     36  H   UNL     1      -2.624  -2.916  -5.773  0.00  0.00    +0.292 HD
ENDBRANCH   7  35
TORSDOF 6
