REMARK  Name = ZINC02856682
REMARK  10 active torsions:
REMARK  status: ('A' for Active; 'I' for Inactive)
REMARK    1  A    between atoms: C_1  and  C_2
REMARK    2  A    between atoms: C_2  and  O_3
REMARK    3  A    between atoms: O_3  and  C_4
REMARK    4  A    between atoms: C_4  and  C_6
REMARK    5  A    between atoms: C_10  and  N_11
REMARK    6  A    between atoms: N_11  and  C_12
REMARK    7  A    between atoms: C_12  and  N_14
REMARK    8  A    between atoms: N_14  and  N_15
REMARK    9  A    between atoms: C_16  and  C_18
REMARK   10  A    between atoms: C_21  and  N_24
REMARK                            x       y       z     vdW  Elec       q    Type
REMARK                         _______ _______ _______ _____ _____    ______ ____
ROOT
ATOM      1  C   UNL     1       3.524   1.907  -0.021  0.00  0.00    +0.151 C 
ATOM      2  S   UNL     1       5.018   1.071  -0.040  0.00  0.00    -0.017 S 
ENDROOT
BRANCH   1   3
ATOM      3  N   UNL     1       3.506   3.255  -0.014  0.00  0.00    -0.290 N 
ATOM      4  H   UNL     1       2.659   3.728  -0.003  0.00  0.00    +0.154 HD
BRANCH   3   9
ATOM      5  C   UNL     1       4.882   5.334  -0.021  0.00  0.00    +0.091 A 
ATOM      6  C   UNL     1       6.258   5.848  -0.008  0.00  0.00    -0.021 A 
ATOM      7  C   UNL     1       7.199   4.891  -0.044  0.00  0.00    -0.004 A 
ATOM      8  S   UNL     1       6.314   3.352  -0.041  0.00  0.00    -0.077 S 
ATOM      9  C   UNL     1       4.696   3.963  -0.021  0.00  0.00    +0.086 A 
ATOM     10  C   UNL     1       8.691   5.043  -0.137  0.00  0.00    +0.043 C 
ATOM     11  C   UNL     1       9.019   5.307  -1.617  0.00  0.00    +0.005 C 
ATOM     12  C   UNL     1       8.174   6.497  -2.091  0.00  0.00    +0.000 C 
ATOM     13  C   UNL     1       8.618   7.668  -1.241  0.00  0.00    +0.000 C 
ATOM     14  C   UNL     1       7.948   7.734   0.121  0.00  0.00    +0.005 C 
ATOM     15  C   UNL     1       6.472   7.361   0.065  0.00  0.00    +0.037 C 
BRANCH   5  16
ATOM     16  C   UNL     1       3.739   6.248  -0.030  0.00  0.00    +0.342 C 
ATOM     17  O   UNL     1       3.256   6.629   1.019  0.00  0.00    -0.245 OA
BRANCH  16  18
ATOM     18  O   UNL     1       3.220   6.667  -1.203  0.00  0.00    -0.461 OA
BRANCH  18  20
ATOM     19  C   UNL     1       1.639   7.935  -2.553  0.00  0.00    +0.048 C 
ATOM     20  C   UNL     1       2.086   7.572  -1.136  0.00  0.00    +0.229 C 
ENDBRANCH  18  20
ENDBRANCH  16  18
ENDBRANCH   5  16
ENDBRANCH   3   9
ENDBRANCH   1   3
BRANCH   1  21
ATOM     21  N   UNL     1       2.366   1.217  -0.014  0.00  0.00    -0.245 N 
ATOM     22  H   UNL     1       2.379   0.247  -0.019  0.00  0.00    +0.172 HD
BRANCH  21  23
ATOM     23  N   UNL     1       1.143   1.901   0.001  0.00  0.00    -0.231 N 
ATOM     24  C   UNL     1      -0.014   1.212   0.009  0.00  0.00    +0.260 C 
ATOM     25  O   UNL     1       0.002  -0.004   0.002  0.00  0.00    -0.269 OA
ATOM     26  H   UNL     1       1.130   2.871   0.007  0.00  0.00    +0.173 HD
BRANCH  24  27
ATOM     27  C   UNL     1      -1.303   1.932   0.019  0.00  0.00    +0.038 A 
ATOM     28  C   UNL     1      -1.324   3.329   0.032  0.00  0.00    +0.015 A 
ATOM     29  C   UNL     1      -2.527   3.998   0.036  0.00  0.00    +0.027 A 
ATOM     30  C   UNL     1      -3.721   3.285   0.037  0.00  0.00    +0.046 A 
ATOM     31  C   UNL     1      -3.704   1.895   0.030  0.00  0.00    +0.027 A 
ATOM     32  C   UNL     1      -2.504   1.219   0.021  0.00  0.00    +0.015 A 
BRANCH  30  33
ATOM     33  N   UNL     1      -4.941   3.968   0.046  0.00  0.00    -0.323 N 
ATOM     34  C   UNL     1      -6.179   3.388   0.043  0.00  0.00    +0.091 A 
ATOM     35  C   UNL     1      -7.103   4.369   0.057  0.00  0.00    +0.019 A 
ATOM     36  C   UNL     1      -6.415   5.599   0.061  0.00  0.00    +0.019 A 
ATOM     37  C   UNL     1      -5.095   5.325   0.054  0.00  0.00    +0.091 A 
ENDBRANCH  30  33
ENDBRANCH  24  27
ENDBRANCH  21  23
ENDBRANCH   1  21
TORSDOF 9
