REMARK  Name = ZINC39657716
REMARK  8 active torsions:
REMARK  status: ('A' for Active; 'I' for Inactive)
REMARK    1  A    between atoms: C_4  and  S_28
REMARK    2  A    between atoms: C_5  and  C_7
REMARK    3  A    between atoms: C_7  and  N_8
REMARK    4  A    between atoms: C_9  and  C_11
REMARK    5  A    between atoms: C_22  and  C_24
REMARK    6  A    between atoms: S_28  and  C_29
REMARK    7  A    between atoms: C_34  and  C_35
REMARK    8  A    between atoms: C_35  and  O_36
REMARK                            x       y       z     vdW  Elec       q    Type
REMARK                         _______ _______ _______ _____ _____    ______ ____
ROOT
ATOM      1  N   UNL     1       2.459  -3.707   0.797  0.00  0.00    -0.311 N 
ATOM      2  C   UNL     1       1.347  -4.016   1.492  0.00  0.00    +0.218 C 
ATOM      3  O   UNL     1       0.253  -3.831   1.000  0.00  0.00    -0.275 OA
ATOM      4  H   UNL     1       3.333  -3.855   1.190  0.00  0.00    +0.149 HD
ENDROOT
BRANCH   2   5
ATOM      5  C   UNL     1       1.461  -4.592   2.879  0.00  0.00    +0.100 C 
ATOM      6  C   UNL     1       0.205  -4.246   3.711  0.00  0.00    +0.121 C 
ATOM      7  N   UNL     1      -0.678  -5.427   3.563  0.00  0.00    -0.300 N 
ATOM      8  C   UNL     1       0.244  -6.587   3.613  0.00  0.00    +0.115 C 
ATOM      9  C   UNL     1       1.485  -6.129   2.821  0.00  0.00    -0.004 C 
ATOM     10  C   UNL     1       2.756  -6.663   3.475  0.00  0.00    -0.010 C 
ATOM     11  C   UNL     1       2.785  -8.189   3.352  0.00  0.00    -0.082 C 
ATOM     12  N   UNL     1       2.743  -8.569   1.935  0.00  0.00    +0.379 N 
ATOM     13  C   UNL     1       1.476  -8.133   1.337  0.00  0.00    -0.082 C 
ATOM     14  C   UNL     1       1.391  -6.604   1.374  0.00  0.00    -0.010 C 
ATOM     15  C   UNL     1      -2.018  -5.443   3.416  0.00  0.00    +0.219 C 
ATOM     16  O   UNL     1      -2.604  -6.499   3.307  0.00  0.00    -0.275 OA
ATOM     17  H   UNL     1       3.511  -8.132   1.448  0.00  0.00    -0.086 HD
ATOM     18  H   UNL     1       2.824  -9.572   1.855  0.00  0.00    -0.086 HD
BRANCH  15  19
ATOM     19  C   UNL     1      -2.789  -4.148   3.389  0.00  0.00    +0.075 C 
ATOM     20  C   UNL     1      -3.098  -3.585   4.786  0.00  0.00    +0.013 C 
ATOM     21  C   UNL     1      -4.484  -3.203   4.240  0.00  0.00    +0.001 C 
ATOM     22  C   UNL     1      -4.305  -4.337   3.216  0.00  0.00    +0.013 C 
ENDBRANCH  15  19
ENDBRANCH   2   5
BRANCH   1  23
ATOM     23  C   UNL     1       2.348  -3.147  -0.552  0.00  0.00    +0.140 C 
BRANCH  23  28
ATOM     24  C   UNL     1       5.520  -1.381  -1.591  0.00  0.00    +0.000 A 
ATOM     25  C   UNL     1       6.260  -2.422  -2.123  0.00  0.00    +0.001 A 
ATOM     26  C   UNL     1       5.737  -3.699  -2.149  0.00  0.00    +0.015 A 
ATOM     27  C   UNL     1       4.467  -3.939  -1.639  0.00  0.00    +0.017 A 
ATOM     28  C   UNL     1       3.727  -2.891  -1.105  0.00  0.00    -0.017 A 
ATOM     29  C   UNL     1       4.255  -1.616  -1.083  0.00  0.00    +0.006 A 
BRANCH  27  30
ATOM     30  S   UNL     1       3.796  -5.568  -1.671  0.00  0.00    -0.089 S 
BRANCH  30  31
ATOM     31  C   UNL     1       4.974  -6.497  -2.594  0.00  0.00    +0.018 A 
ATOM     32  C   UNL     1       5.857  -7.348  -1.940  0.00  0.00    +0.015 A 
ATOM     33  C   UNL     1       6.779  -8.075  -2.667  0.00  0.00    +0.001 A 
ATOM     34  C   UNL     1       6.825  -7.956  -4.044  0.00  0.00    +0.000 A 
ATOM     35  C   UNL     1       5.949  -7.110  -4.698  0.00  0.00    +0.007 A 
ATOM     36  C   UNL     1       5.020  -6.384  -3.978  0.00  0.00    -0.008 A 
BRANCH  36  37
ATOM     37  C   UNL     1       4.061  -5.467  -4.693  0.00  0.00    +0.192 C 
BRANCH  37  38
ATOM     38  O   UNL     1       4.305  -5.525  -6.100  0.00  0.00    -0.390 OA
ATOM     39  H   UNL     1       3.723  -4.958  -6.624  0.00  0.00    +0.210 HD
ENDBRANCH  37  38
ENDBRANCH  36  37
ENDBRANCH  30  31
ENDBRANCH  27  30
ENDBRANCH  23  28
ENDBRANCH   1  23
TORSDOF 8
