REMARK  Name = ZINC57309993
REMARK  8 active torsions:
REMARK  status: ('A' for Active; 'I' for Inactive)
REMARK    1  A    between atoms: C_7  and  C_11
REMARK    2  A    between atoms: C_11  and  C_12
REMARK    3  A    between atoms: C_12  and  N_13
REMARK    4  A    between atoms: C_14  and  C_16
REMARK    5  A    between atoms: C_19  and  C_21
REMARK    6  A    between atoms: C_21  and  S_22
REMARK    7  A    between atoms: S_22  and  C_23
REMARK    8  A    between atoms: C_25  and  C_28
REMARK                            x       y       z     vdW  Elec       q    Type
REMARK                         _______ _______ _______ _____ _____    ______ ____
ROOT
ATOM      1  C   UNL     1      -2.098  -6.343  -2.609  0.00  0.00    +0.189 A 
ATOM      2  C   UNL     1      -2.679  -6.909  -3.707  0.00  0.00    +0.055 A 
ATOM      3  C   UNL     1      -3.468  -7.973  -3.243  0.00  0.00    +0.046 A 
ATOM      4  C   UNL     1      -3.335  -8.010  -1.898  0.00  0.00    +0.116 A 
ATOM      5  O   UNL     1      -2.505  -7.029  -1.521  0.00  0.00    -0.454 OA
ENDROOT
BRANCH   1   7
ATOM      6  N   UNL     1      -0.675  -4.736  -1.452  0.00  0.00    -0.309 N 
ATOM      7  C   UNL     1      -1.186  -5.195  -2.612  0.00  0.00    +0.279 C 
ATOM      8  O   UNL     1      -0.890  -4.656  -3.662  0.00  0.00    -0.267 OA
ATOM      9  H   UNL     1      -0.911  -5.166  -0.615  0.00  0.00    +0.149 HD
BRANCH   6  10
ATOM     10  C   UNL     1       0.236  -3.589  -1.455  0.00  0.00    +0.109 C 
BRANCH  10  11
ATOM     11  C   UNL     1       0.666  -3.275  -0.021  0.00  0.00    +0.056 C 
BRANCH  11  18
ATOM     12  C   UNL     1      -0.017   1.362   0.009  0.00  0.00    +0.001 A 
ATOM     13  C   UNL     1       1.170   2.083   0.002  0.00  0.00    +0.002 A 
ATOM     14  C   UNL     1       2.386   1.436  -0.013  0.00  0.00    +0.026 A 
ATOM     15  C   UNL     1       2.428   0.046  -0.021  0.00  0.00    +0.047 A 
ATOM     16  C   UNL     1       1.223  -0.681  -0.013  0.00  0.00    +0.003 A 
ATOM     17  C   UNL     1       0.002  -0.004   0.002  0.00  0.00    +0.010 A 
ATOM     18  C   UNL     1       1.604  -2.095  -0.025  0.00  0.00    -0.021 A 
ATOM     19  C   UNL     1       2.945  -2.141  -0.038  0.00  0.00    +0.087 A 
ATOM     20  N   UNL     1       3.455  -0.871  -0.036  0.00  0.00    -0.360 N 
ATOM     21  H   UNL     1       4.399  -0.650  -0.044  0.00  0.00    +0.165 HD
ENDBRANCH  11  18
ENDBRANCH  10  11
ENDBRANCH   6  10
ENDBRANCH   1   7
BRANCH   4  22
ATOM     22  C   UNL     1      -4.007  -8.995  -0.976  0.00  0.00    +0.150 C 
BRANCH  22  23
ATOM     23  S   UNL     1      -2.943 -10.449  -0.767  0.00  0.00    -0.091 S 
BRANCH  23  24
ATOM     24  C   UNL     1      -3.856 -11.492   0.322  0.00  0.00    +0.136 A 
ATOM     25  N   UNL     1      -3.535 -12.678   0.807  0.00  0.00    -0.233 NA
ATOM     26  C   UNL     1      -4.356 -13.330   1.627  0.00  0.00    +0.080 A 
ATOM     27  C   UNL     1      -5.548 -12.760   1.972  0.00  0.00    +0.076 A 
ATOM     28  S   UNL     1      -5.456 -11.220   1.069  0.00  0.00    -0.069 S 
BRANCH  26  29
ATOM     29  C   UNL     1      -3.980 -14.662   2.161  0.00  0.00    +0.005 A 
ATOM     30  C   UNL     1      -4.846 -15.342   3.015  0.00  0.00    +0.014 A 
ATOM     31  C   UNL     1      -4.495 -16.581   3.510  0.00  0.00    +0.050 A 
ATOM     32  C   UNL     1      -3.281 -17.154   3.161  0.00  0.00    +0.166 A 
ATOM     33  C   UNL     1      -2.411 -16.478   2.308  0.00  0.00    +0.167 A 
ATOM     34  C   UNL     1      -2.761 -15.238   1.805  0.00  0.00    +0.059 A 
ATOM     35  O   UNL     1      -1.298 -17.246   2.123  0.00  0.00    -0.453 OA
ATOM     36  C   UNL     1      -1.314 -18.211   3.191  0.00  0.00    +0.466 C 
ATOM     37  O   UNL     1      -2.712 -18.345   3.510  0.00  0.00    -0.453 OA
ENDBRANCH  26  29
ENDBRANCH  23  24
ENDBRANCH  22  23
ENDBRANCH   4  22
TORSDOF 8
