REMARK  Name = ZINC35000159
REMARK  12 active torsions:
REMARK  status: ('A' for Active; 'I' for Inactive)
REMARK    1  A    between atoms: C_1  and  C_2
REMARK    2  A    between atoms: C_2  and  C_3
REMARK    3  A    between atoms: C_3  and  C_4
REMARK    4  A    between atoms: C_4  and  N_5
REMARK    5  A    between atoms: C_13  and  C_15
REMARK    6  A    between atoms: C_16  and  C_18
REMARK    7  A    between atoms: C_18  and  C_20
REMARK    8  A    between atoms: C_18  and  N_31
REMARK    9  A    between atoms: C_20  and  C_21
REMARK   10  A    between atoms: C_32  and  C_34
REMARK   11  A    between atoms: C_34  and  O_35
REMARK   12  A    between atoms: O_35  and  C_36
REMARK                            x       y       z     vdW  Elec       q    Type
REMARK                         _______ _______ _______ _____ _____    ______ ____
ROOT
ATOM      1  C   UNL     1       5.106  -4.574   7.387  0.00  0.00    +0.163 C 
ENDROOT
BRANCH   1  12
ATOM      2  N   UNL     1       4.136  -5.192   0.356  0.00  0.00    -0.299 N 
ATOM      3  C   UNL     1       4.641  -4.297   1.228  0.00  0.00    +0.303 C 
ATOM      4  O   UNL     1       4.809  -3.143   0.886  0.00  0.00    -0.253 OA
ATOM      5  N   UNL     1       4.960  -4.682   2.480  0.00  0.00    -0.280 N 
ATOM      6  C   UNL     1       4.872  -6.095   2.873  0.00  0.00    +0.128 C 
ATOM      7  C   UNL     1       3.968  -6.206   4.107  0.00  0.00    +0.127 C 
ATOM      8  N   UNL     1       4.410  -5.220   5.103  0.00  0.00    -0.297 N 
ATOM      9  C   UNL     1       4.497  -3.806   4.710  0.00  0.00    +0.130 C 
ATOM     10  C   UNL     1       5.407  -3.696   3.475  0.00  0.00    +0.092 C 
ATOM     11  C   UNL     1       6.855  -3.988   3.872  0.00  0.00    +0.030 C 
ATOM     12  C   UNL     1       4.729  -5.605   6.355  0.00  0.00    +0.236 C 
ATOM     13  O   UNL     1       4.712  -6.781   6.650  0.00  0.00    -0.274 OA
ATOM     14  H   UNL     1       4.070  -6.127   0.605  0.00  0.00    +0.150 HD
BRANCH   2  15
ATOM     15  C   UNL     1       3.686  -4.752  -0.967  0.00  0.00    +0.106 C 
BRANCH  15  16
ATOM     16  C   UNL     1       3.161  -5.955  -1.753  0.00  0.00    +0.018 C 
BRANCH  16  18
ATOM     17  C   UNL     1       2.166  -6.698  -3.921  0.00  0.00    +0.004 C 
ATOM     18  C   UNL     1       2.691  -5.495  -3.135  0.00  0.00    -0.002 C 
ENDBRANCH  16  18
ENDBRANCH  15  16
ENDBRANCH   2  15
ENDBRANCH   1  12
BRANCH   1  19
ATOM     19  N   UNL     1       5.636  -5.245   8.577  0.00  0.00    -0.301 N 
ATOM     20  C   UNL     1       6.480  -4.591   9.399  0.00  0.00    +0.251 C 
ATOM     21  O   UNL     1       6.801  -3.448   9.155  0.00  0.00    -0.272 OA
ATOM     22  H   UNL     1       5.378  -6.159   8.772  0.00  0.00    +0.150 HD
BRANCH  20  23
ATOM     23  C   UNL     1       7.024  -5.282  10.623  0.00  0.00    +0.324 C 
BRANCH  23  24
ATOM     24  O   UNL     1       7.890  -4.389  11.328  0.00  0.00    -0.483 OA
BRANCH  24  25
ATOM     25  C   UNL     1       8.469  -4.860  12.464  0.00  0.00    +0.121 A 
ATOM     26  C   UNL     1       8.213  -6.155  12.889  0.00  0.00    +0.045 A 
ATOM     27  C   UNL     1       8.803  -6.631  14.043  0.00  0.00    +0.004 A 
ATOM     28  C   UNL     1       9.647  -5.817  14.776  0.00  0.00    +0.000 A 
ATOM     29  C   UNL     1       9.903  -4.526  14.355  0.00  0.00    +0.004 A 
ATOM     30  C   UNL     1       9.320  -4.047  13.198  0.00  0.00    +0.045 A 
ENDBRANCH  24  25
ENDBRANCH  23  24
ENDBRANCH  20  23
ENDBRANCH   1  19
BRANCH   1  31
ATOM     31  C   UNL     1       3.869  -3.758   7.769  0.00  0.00    +0.069 C 
BRANCH  31  32
ATOM     32  C   UNL     1       4.275  -2.626   8.677  0.00  0.00    -0.020 A 
ATOM     33  C   UNL     1       4.254  -2.632  10.020  0.00  0.00    +0.087 A 
ATOM     34  N   UNL     1       4.692  -1.428  10.498  0.00  0.00    -0.360 N 
ATOM     35  H   UNL     1       4.765  -1.194  11.437  0.00  0.00    +0.165 HD
ATOM     36  C   UNL     1       5.014  -0.596   9.450  0.00  0.00    +0.047 A 
ATOM     37  C   UNL     1       4.773  -1.312   8.263  0.00  0.00    +0.003 A 
ATOM     38  C   UNL     1       5.019  -0.714   7.026  0.00  0.00    +0.010 A 
ATOM     39  C   UNL     1       5.497   0.565   6.974  0.00  0.00    +0.001 A 
ATOM     40  C   UNL     1       5.741   1.275   8.142  0.00  0.00    +0.002 A 
ATOM     41  C   UNL     1       5.496   0.707   9.373  0.00  0.00    +0.026 A 
ENDBRANCH  31  32
ENDBRANCH   1  31
TORSDOF 10
