REMARK  Name = ZINC40083909
REMARK  9 active torsions:
REMARK  status: ('A' for Active; 'I' for Inactive)
REMARK    1  A    between atoms: C_1  and  O_2
REMARK    2  A    between atoms: O_2  and  C_3
REMARK    3  A    between atoms: C_6  and  N_11
REMARK    4  A    between atoms: C_8  and  O_9
REMARK    5  A    between atoms: O_9  and  C_10
REMARK    6  A    between atoms: N_11  and  C_12
REMARK    7  A    between atoms: C_12  and  N_14
REMARK    8  A    between atoms: N_14  and  N_15
REMARK    9  A    between atoms: C_16  and  C_17
REMARK                            x       y       z     vdW  Elec       q    Type
REMARK                         _______ _______ _______ _____ _____    ______ ____
ROOT
ATOM      1  N   UNL     1       3.894  -2.373   6.135  0.00  0.00    -0.218 N 
ATOM      2  H   UNL     1       4.359  -1.842   6.801  0.00  0.00    +0.176 HD
ENDROOT
BRANCH   1   3
ATOM      3  C   UNL     1       3.189  -1.764   5.160  0.00  0.00    +0.154 C 
ATOM      4  S   UNL     1       3.115  -0.055   5.097  0.00  0.00    -0.017 S 
BRANCH   3   5
ATOM      5  N   UNL     1       2.543  -2.501   4.235  0.00  0.00    -0.296 N 
ATOM      6  H   UNL     1       2.534  -3.469   4.306  0.00  0.00    +0.154 HD
BRANCH   5  10
ATOM      7  C   UNL     1       0.583  -0.617   1.071  0.00  0.00    +0.162 A 
ATOM      8  C   UNL     1       0.430  -0.141   2.364  0.00  0.00    +0.051 A 
ATOM      9  C   UNL     1       1.079  -0.765   3.412  0.00  0.00    +0.027 A 
ATOM     10  C   UNL     1       1.885  -1.871   3.172  0.00  0.00    +0.036 A 
ATOM     11  C   UNL     1       2.039  -2.350   1.878  0.00  0.00    +0.072 A 
ATOM     12  C   UNL     1       1.385  -1.728   0.828  0.00  0.00    +0.163 A 
BRANCH   7  14
ATOM     13  C   UNL     1      -0.864   1.133   0.362  0.00  0.00    +0.277 C 
ATOM     14  O   UNL     1      -0.057  -0.001   0.040  0.00  0.00    -0.491 OA
ENDBRANCH   7  14
BRANCH  12  15
ATOM     15  O   UNL     1       1.530  -2.198  -0.439  0.00  0.00    -0.491 OA
ATOM     16  C   UNL     1       2.369  -3.342  -0.614  0.00  0.00    +0.277 C 
ENDBRANCH  12  15
ENDBRANCH   5  10
ENDBRANCH   3   5
ENDBRANCH   1   3
BRANCH   1  17
ATOM     17  N   UNL     1       3.954  -3.772   6.187  0.00  0.00    -0.189 NA
ATOM     18  C   UNL     1       4.639  -4.363   7.134  0.00  0.00    +0.136 C 
BRANCH  18  19
ATOM     19  C   UNL     1       4.699  -5.761   7.186  0.00  0.00    +0.000 C 
ATOM     20  C   UNL     1       5.374  -6.542   8.124  0.00  0.00    +0.005 A 
ATOM     21  C   UNL     1       6.161  -6.213   9.249  0.00  0.00    +0.025 A 
ATOM     22  C   UNL     1       6.708  -7.203  10.001  0.00  0.00    +0.019 A 
ATOM     23  C   UNL     1       6.511  -8.552   9.690  0.00  0.00    +0.017 A 
ATOM     24  C   UNL     1       5.767  -8.940   8.626  0.00  0.00    +0.027 A 
ATOM     25  C   UNL     1       5.163  -7.961   7.792  0.00  0.00    +0.043 A 
ATOM     26  N   UNL     1       4.409  -8.077   6.719  0.00  0.00    -0.380 N 
ATOM     27  C   UNL     1       4.042  -6.741   6.239  0.00  0.00    +0.150 C 
ATOM     28 BR   UNL     1       7.760  -6.747  11.504  0.00  0.00    -0.050 Br
ATOM     29  H   UNL     1       4.136  -8.914   6.312  0.00  0.00    +0.160 HD
ENDBRANCH  18  19
ENDBRANCH   1  17
TORSDOF 7
