REMARK  Name = ZINC01322172
REMARK  12 active torsions:
REMARK  status: ('A' for Active; 'I' for Inactive)
REMARK    1  A    between atoms: C_1  and  C_2
REMARK    2  A    between atoms: C_4  and  O_12
REMARK    3  A    between atoms: C_5  and  C_9
REMARK    4  A    between atoms: C_9  and  C_10
REMARK    5  A    between atoms: C_9  and  C_11
REMARK    6  A    between atoms: O_12  and  C_13
REMARK    7  A    between atoms: C_13  and  C_14
REMARK    8  A    between atoms: C_16  and  C_22
REMARK    9  A    between atoms: C_19  and  O_20
REMARK   10  A    between atoms: O_20  and  C_21
REMARK   11  A    between atoms: C_28  and  O_34
REMARK   12  A    between atoms: O_34  and  C_35
REMARK                            x       y       z     vdW  Elec       q    Type
REMARK                         _______ _______ _______ _____ _____    ______ ____
ROOT
ATOM      1  C   UNL     1      -2.683   1.569   2.470  0.00  0.00    +0.031 A 
ATOM      2  C   UNL     1      -3.999   1.182   2.632  0.00  0.00    +0.013 A 
ATOM      3  C   UNL     1      -4.607   0.382   1.683  0.00  0.00    -0.055 A 
ATOM      4  C   UNL     1      -3.902  -0.029   0.567  0.00  0.00    +0.006 A 
ATOM      5  C   UNL     1      -2.588   0.359   0.398  0.00  0.00    +0.046 A 
ATOM      6  C   UNL     1      -1.975   1.163   1.348  0.00  0.00    +0.126 A 
ENDROOT
BRANCH   3   7
ATOM      7  C   UNL     1      -6.042  -0.044   1.866  0.00  0.00    +0.007 C 
ATOM      8  C   UNL     1      -6.941   0.823   1.017  0.00  0.00    +0.010 A 
ATOM      9  C   UNL     1      -7.960   0.322   0.277  0.00  0.00    -0.022 A 
ATOM     10  C   UNL     1      -8.583   1.436  -0.401  0.00  0.00    +0.006 A 
ATOM     11  C   UNL     1      -9.665   1.527  -1.282  0.00  0.00    +0.056 A 
ATOM     12  C   UNL     1      -9.989   2.794  -1.746  0.00  0.00    +0.121 A 
ATOM     13  C   UNL     1      -9.277   3.921  -1.355  0.00  0.00    +0.047 A 
ATOM     14  C   UNL     1      -8.204   3.850  -0.484  0.00  0.00    +0.030 A 
ATOM     15  C   UNL     1      -7.858   2.589  -0.004  0.00  0.00    +0.047 A 
ATOM     16  N   UNL     1      -6.873   2.177   0.852  0.00  0.00    -0.359 N 
ATOM     17  H   UNL     1      -6.225   2.758   1.279  0.00  0.00    +0.166 HD
ATOM     18  C   UNL     1      -8.313  -1.144   0.230  0.00  0.00    +0.018 C 
ATOM     19  C   UNL     1      -7.615  -1.838   1.409  0.00  0.00    -0.076 C 
ATOM     20  N   UNL     1      -6.189  -1.452   1.437  0.00  0.00    +0.387 N 
ATOM     21  H   UNL     1      -5.688  -2.060   2.096  0.00  0.00    -0.084 HD
ATOM     22  H   UNL     1      -5.790  -1.563   0.498  0.00  0.00    -0.084 HD
BRANCH  12  23
ATOM     23  O   UNL     1     -11.033   2.937  -2.605  0.00  0.00    -0.495 OA
ATOM     24  C   UNL     1     -11.328   4.261  -3.054  0.00  0.00    +0.277 C 
ENDBRANCH  12  23
ENDBRANCH   3   7
BRANCH   6  25
ATOM     25  O   UNL     1      -0.682   1.547   1.184  0.00  0.00    -0.495 OA
ATOM     26  C   UNL     1      -0.013   1.086   0.008  0.00  0.00    +0.277 C 
ENDBRANCH   6  25
BRANCH   1  27
ATOM     27  C   UNL     1      -2.018   2.437   3.507  0.00  0.00    +0.268 C 
BRANCH  27  28
ATOM     28  O   UNL     1      -2.946   2.719   4.557  0.00  0.00    -0.487 OA
BRANCH  28  32
ATOM     29  C   UNL     1       0.661   5.289   6.608  0.00  0.00    +0.045 C 
ATOM     30  C   UNL     1      -0.752   4.767   6.615  0.00  0.00    -0.029 A 
ATOM     31  C   UNL     1      -1.201   3.977   5.574  0.00  0.00    +0.050 A 
ATOM     32  C   UNL     1      -2.502   3.496   5.581  0.00  0.00    +0.125 A 
ATOM     33  C   UNL     1      -3.352   3.814   6.630  0.00  0.00    -0.002 A 
ATOM     34  C   UNL     1      -2.898   4.599   7.672  0.00  0.00    +0.027 A 
ATOM     35  C   UNL     1      -1.599   5.078   7.663  0.00  0.00    +0.044 A 
ATOM     36 CL   UNL     1      -1.033   6.070   8.970  0.00  0.00    -0.083 Cl
BRANCH  33  37
ATOM     37  C   UNL     1      -4.768   3.298   6.637  0.00  0.00    +0.016 C 
ATOM     38  C   UNL     1      -4.990   2.435   7.881  0.00  0.00    +0.012 C 
ATOM     39  C   UNL     1      -5.741   4.479   6.655  0.00  0.00    +0.012 C 
ENDBRANCH  33  37
ENDBRANCH  28  32
ENDBRANCH  27  28
ENDBRANCH   1  27
TORSDOF 7
