REMARK  Name = ZINC20693646
REMARK  9 active torsions:
REMARK  status: ('A' for Active; 'I' for Inactive)
REMARK    1  A    between atoms: C_1  and  C_2
REMARK    2  A    between atoms: C_2  and  C_3
REMARK    3  A    between atoms: C_3  and  C_5
REMARK    4  A    between atoms: C_3  and  N_6
REMARK    5  A    between atoms: C_7  and  C_9
REMARK    6  A    between atoms: C_22  and  C_25
REMARK    7  A    between atoms: C_28  and  O_33
REMARK    8  A    between atoms: C_29  and  O_31
REMARK    9  A    between atoms: O_31  and  C_32
REMARK                            x       y       z     vdW  Elec       q    Type
REMARK                         _______ _______ _______ _____ _____    ______ ____
ROOT
ATOM      1  C   UNL     1       4.988   3.619  -5.059  0.00  0.00    +0.037 A 
ATOM      2  C   UNL     1       5.761   2.494  -4.754  0.00  0.00    +0.015 A 
ATOM      3  C   UNL     1       6.065   2.216  -3.442  0.00  0.00    +0.024 A 
ATOM      4  C   UNL     1       5.606   3.047  -2.423  0.00  0.00    +0.031 A 
ATOM      5  C   UNL     1       4.837   4.168  -2.715  0.00  0.00    -0.019 A 
ATOM      6  C   UNL     1       4.531   4.449  -4.035  0.00  0.00    +0.019 A 
ATOM      7  C   UNL     1       4.326   5.087  -1.651  0.00  0.00    +0.049 C 
ATOM      8  C   UNL     1       2.832   4.888  -1.378  0.00  0.00    -0.023 C 
ATOM      9  C   UNL     1       2.575   5.033  -0.101  0.00  0.00    -0.030 C 
ATOM     10  C   UNL     1       3.846   5.355   0.662  0.00  0.00    +0.033 C 
ATOM     11  C   UNL     1       4.973   4.832  -0.276  0.00  0.00    +0.029 C 
ATOM     12  C   UNL     1       5.106   3.326  -0.034  0.00  0.00    +0.105 C 
ATOM     13  N   UNL     1       5.907   2.740  -1.113  0.00  0.00    -0.336 N 
ATOM     14  H   UNL     1       6.740   2.061  -0.874  0.00  0.00    +0.147 HD
ENDROOT
BRANCH  12  15
ATOM     15  C   UNL     1       3.738   2.693  -0.020  0.00  0.00    -0.023 A 
ATOM     16  C   UNL     1       3.098   2.410  -1.212  0.00  0.00    +0.009 A 
ATOM     17  C   UNL     1       1.843   1.830  -1.205  0.00  0.00    +0.049 A 
ATOM     18  C   UNL     1       1.224   1.533  -0.001  0.00  0.00    +0.158 A 
ATOM     19  C   UNL     1       1.866   1.824   1.198  0.00  0.00    +0.162 A 
ATOM     20  C   UNL     1       3.126   2.399   1.184  0.00  0.00    +0.054 A 
BRANCH  19  21
ATOM     21  O   UNL     1       1.260   1.539   2.382  0.00  0.00    -0.491 OA
ATOM     22  C   UNL     1       1.978   1.865   3.574  0.00  0.00    +0.277 C 
ENDBRANCH  19  21
BRANCH  18  23
ATOM     23  O   UNL     1      -0.011   0.963   0.007  0.00  0.00    -0.503 OA
ATOM     24  H   UNL     1      -0.501   0.727   0.963  0.00  0.00    +0.292 HD
ENDBRANCH  18  23
ENDBRANCH  12  15
BRANCH   1  26
ATOM     25  N   UNL     1       5.097   3.125  -7.451  0.00  0.00    -0.309 N 
ATOM     26  C   UNL     1       4.655   3.927  -6.462  0.00  0.00    +0.244 C 
ATOM     27  O   UNL     1       3.983   4.905  -6.727  0.00  0.00    -0.270 OA
ATOM     28  H   UNL     1       5.705   2.240  -7.212  0.00  0.00    +0.149 HD
BRANCH  25  29
ATOM     29  C   UNL     1       4.766   3.431  -8.845  0.00  0.00    +0.070 C 
ATOM     30  C   UNL     1       3.393   2.848  -9.184  0.00  0.00    +0.028 C 
BRANCH  29  32
ATOM     31  C   UNL     1       7.173   3.490  -9.513  0.00  0.00    +0.005 C 
ATOM     32  C   UNL     1       5.823   2.817  -9.767  0.00  0.00    +0.018 C 
ENDBRANCH  29  32
ENDBRANCH  25  29
ENDBRANCH   1  26
TORSDOF 6
