REMARK  Name = ZINC12166434
REMARK  10 active torsions:
REMARK  status: ('A' for Active; 'I' for Inactive)
REMARK    1  A    between atoms: C_1  and  C_2
REMARK    2  A    between atoms: C_2  and  C_3
REMARK    3  A    between atoms: C_2  and  N_4
REMARK    4  A    between atoms: C_5  and  C_7
REMARK    5  A    between atoms: C_10  and  S_23
REMARK    6  A    between atoms: C_13  and  C_14
REMARK    7  A    between atoms: C_13  and  N_61
REMARK    8  A    between atoms: C_14  and  C_22
REMARK    9  A    between atoms: C_15  and  C_16
REMARK   10  A    between atoms: S_23  and  C_24
REMARK                            x       y       z     vdW  Elec       q    Type
REMARK                         _______ _______ _______ _____ _____    ______ ____
ROOT
ATOM      1  C   UNL     1       1.292   1.334  -0.605  0.00  0.00    +0.021 C 
ATOM      2  C   UNL     1       1.468   1.845  -2.047  0.00  0.00    +0.006 C 
ATOM      3  C   UNL     1       2.844   1.295  -2.501  0.00  0.00    +0.037 C 
ATOM      4  C   UNL     1       3.571   1.029  -1.159  0.00  0.00    -0.063 C 
ATOM      5  N   UNL     1       2.484   0.533  -0.306  0.00  0.00    +0.390 N 
ATOM      6  H   UNL     1       2.301  -0.455  -0.518  0.00  0.00    -0.080 HD
ENDROOT
BRANCH   1   8
ATOM      7  N   UNL     1      -1.155   1.019  -0.780  0.00  0.00    -0.314 N 
ATOM      8  C   UNL     1       0.052   0.484  -0.509  0.00  0.00    +0.200 C 
ATOM      9  O   UNL     1       0.140  -0.684  -0.193  0.00  0.00    -0.278 OA
ATOM     10  H   UNL     1      -1.226   1.953  -1.033  0.00  0.00    +0.149 HD
BRANCH   7  12
ATOM     11  C   UNL     1      -3.574   1.082  -0.424  0.00  0.00    +0.027 C 
ATOM     12  C   UNL     1      -2.360   0.190  -0.693  0.00  0.00    +0.067 C 
ATOM     13  C   UNL     1      -2.560  -0.560  -2.011  0.00  0.00    +0.027 C 
ENDBRANCH   7  12
ENDBRANCH   1   8
BRANCH   5  14
ATOM     14  C   UNL     1       2.847   0.665   1.137  0.00  0.00    -0.047 C 
BRANCH  14  15
ATOM     15  C   UNL     1       4.193   0.032   1.378  0.00  0.00    -0.089 C 
ATOM     16  C   UNL     1       5.290   0.776   1.351  0.00  0.00    +0.005 C 
ATOM     17  C   UNL     1       4.292  -1.447   1.650  0.00  0.00    +0.037 C 
BRANCH  16  18
ATOM     18  C   UNL     1       6.620   0.135   1.424  0.00  0.00    -0.025 A 
ATOM     19  C   UNL     1       7.631   0.706   2.198  0.00  0.00    +0.008 A 
ATOM     20  C   UNL     1       8.869   0.099   2.267  0.00  0.00    +0.001 A 
ATOM     21  C   UNL     1       9.111  -1.066   1.563  0.00  0.00    +0.000 A 
ATOM     22  C   UNL     1       8.114  -1.635   0.789  0.00  0.00    +0.001 A 
ATOM     23  C   UNL     1       6.871  -1.041   0.716  0.00  0.00    +0.008 A 
ENDBRANCH  16  18
ENDBRANCH  14  15
ENDBRANCH   5  14
BRANCH   3  24
ATOM     24  S   UNL     1       3.735   2.532  -3.477  0.00  0.00    -0.086 S 
BRANCH  24  25
ATOM     25  C   UNL     1       5.212   1.638  -3.830  0.00  0.00    +0.167 A 
ATOM     26  N   UNL     1       6.261   2.113  -4.565  0.00  0.00    -0.333 N 
ATOM     27  H   UNL     1       6.325   3.015  -4.992  0.00  0.00    +0.168 HD
ATOM     28  C   UNL     1       7.219   1.113  -4.608  0.00  0.00    +0.067 A 
ATOM     29  C   UNL     1       8.473   1.008  -5.189  0.00  0.00    +0.028 A 
ATOM     30  C   UNL     1       9.198  -0.158  -5.051  0.00  0.00    +0.002 A 
ATOM     31  C   UNL     1       8.681  -1.226  -4.334  0.00  0.00    +0.002 A 
ATOM     32  C   UNL     1       7.437  -1.139  -3.750  0.00  0.00    +0.030 A 
ATOM     33  C   UNL     1       6.690   0.034  -3.881  0.00  0.00    +0.090 A 
ATOM     34  N   UNL     1       5.465   0.415  -3.432  0.00  0.00    -0.222 NA
ENDBRANCH  24  25
ENDBRANCH   3  24
TORSDOF 7
