REMARK  Name = ZINC64541231
REMARK  8 active torsions:
REMARK  status: ('A' for Active; 'I' for Inactive)
REMARK    1  A    between atoms: C_1  and  C_2
REMARK    2  A    between atoms: N_8  and  C_9
REMARK    3  A    between atoms: C_9  and  C_10
REMARK    4  A    between atoms: C_10  and  N_11
REMARK    5  A    between atoms: C_12  and  C_14
REMARK    6  A    between atoms: C_14  and  C_16
REMARK    7  A    between atoms: C_14  and  C_17
REMARK    8  A    between atoms: C_23  and  C_25
REMARK                            x       y       z     vdW  Elec       q    Type
REMARK                         _______ _______ _______ _____ _____    ______ ____
ROOT
ATOM      1  C   UNL     1       0.927   0.106   8.517  0.00  0.00    +0.004 C 
ATOM      2  C   UNL     1       0.255   0.667   9.773  0.00  0.00    +0.023 C 
ATOM      3  C   UNL     1       1.050   0.233  11.009  0.00  0.00    +0.108 C 
ATOM      4  N   UNL     1       2.450   0.643  10.839  0.00  0.00    -0.300 N 
ATOM      5  C   UNL     1       3.163   0.234   9.622  0.00  0.00    +0.108 C 
ATOM      6  C   UNL     1       2.346   0.668   8.401  0.00  0.00    +0.023 C 
ATOM      7  C   UNL     1       3.068   1.381  11.782  0.00  0.00    +0.242 C 
ATOM      8  O   UNL     1       2.469   1.713  12.782  0.00  0.00    -0.273 OA
ENDROOT
BRANCH   7   9
ATOM      9  C   UNL     1       4.505   1.794  11.593  0.00  0.00    +0.190 C 
ATOM     10  C   UNL     1       5.394   0.573  11.525  0.00  0.00    +0.016 C 
ATOM     11  C   UNL     1       6.258   0.679  12.561  0.00  0.00    -0.002 A 
ATOM     12  C   UNL     1       7.354  -0.174  13.034  0.00  0.00    +0.029 A 
ATOM     13  C   UNL     1       8.057   0.205  14.126  0.00  0.00    +0.042 A 
ATOM     14  C   UNL     1       7.764   1.391  14.816  0.00  0.00    +0.022 A 
ATOM     15  C   UNL     1       6.773   2.226  14.442  0.00  0.00    +0.027 A 
ATOM     16  C   UNL     1       5.969   1.925  13.307  0.00  0.00    +0.043 A 
ATOM     17  N   UNL     1       4.966   2.566  12.753  0.00  0.00    -0.370 N 
ATOM     18 CL   UNL     1       9.354  -0.803  14.688  0.00  0.00    -0.084 Cl
ATOM     19  H   UNL     1       4.592   3.407  13.059  0.00  0.00    +0.161 HD
ENDBRANCH   7   9
BRANCH   1  20
ATOM     20  C   UNL     1       0.117   0.509   7.283  0.00  0.00    +0.075 C 
ATOM     21  C   UNL     1      -1.302  -0.053   7.399  0.00  0.00    +0.017 C 
BRANCH  20  23
ATOM     22  N   UNL     1       0.236   0.185   4.834  0.00  0.00    -0.317 N 
ATOM     23  C   UNL     1       0.777  -0.045   6.046  0.00  0.00    +0.216 C 
ATOM     24  O   UNL     1       1.795  -0.697   6.143  0.00  0.00    -0.276 OA
ATOM     25  H   UNL     1      -0.578   0.707   4.757  0.00  0.00    +0.149 HD
BRANCH  22  26
ATOM     26  C   UNL     1       0.877  -0.353   3.631  0.00  0.00    +0.085 C 
BRANCH  26  27
ATOM     27  C   UNL     1       0.067   0.050   2.397  0.00  0.00    -0.059 C 
BRANCH  27  34
ATOM     28  C   UNL     1      -0.019   1.526   0.010  0.00  0.00    -0.013 C 
ATOM     29  C   UNL     1       0.002  -0.004   0.002  0.00  0.00    -0.072 C 
ATOM     30  C   UNL     1       0.717  -0.497  -1.258  0.00  0.00    -0.016 C 
ATOM     31  C   UNL     1       0.735  -2.028  -1.262  0.00  0.00    -0.003 C 
ATOM     32  C   UNL     1       1.410  -2.524   0.020  0.00  0.00    -0.019 C 
ATOM     33  C   UNL     1       0.669  -1.956   1.232  0.00  0.00    -0.078 C 
ATOM     34  N   UNL     1       0.711  -0.490   1.192  0.00  0.00    +0.382 N 
ATOM     35  H   UNL     1       1.671  -0.182   1.159  0.00  0.00    -0.081 HD
ENDBRANCH  27  34
ENDBRANCH  26  27
ENDBRANCH  22  26
ENDBRANCH  20  23
ENDBRANCH   1  20
TORSDOF 6
