REMARK  Name = ZINC63506580
REMARK  6 active torsions:
REMARK  status: ('A' for Active; 'I' for Inactive)
REMARK    1  A    between atoms: C_1  and  C_2
REMARK    2  A    between atoms: C_5  and  C_8
REMARK    3  A    between atoms: C_8  and  N_9
REMARK    4  A    between atoms: C_24  and  C_25
REMARK    5  A    between atoms: C_24  and  C_26
REMARK    6  A    between atoms: N_28  and  C_29
REMARK                            x       y       z     vdW  Elec       q    Type
REMARK                         _______ _______ _______ _____ _____    ______ ____
ROOT
ATOM      1  N   UNL     1       1.419  -4.531   0.129  0.00  0.00    -0.280 N 
ATOM      2  C   UNL     1       1.901  -4.618  -1.077  0.00  0.00    +0.244 C 
ATOM      3  O   UNL     1       1.220  -4.123  -1.950  0.00  0.00    -0.273 OA
ATOM      4  C   UNL     1       3.184  -5.247  -1.530  0.00  0.00    +0.204 C 
ATOM      5  C   UNL     1       3.343  -6.611  -0.891  0.00  0.00    +0.026 C 
ATOM      6  C   UNL     1       3.227  -7.538  -1.916  0.00  0.00    +0.010 A 
ATOM      7  C   UNL     1       3.230  -8.950  -1.935  0.00  0.00    +0.011 A 
ATOM      8  C   UNL     1       3.104  -9.608  -3.116  0.00  0.00    +0.001 A 
ATOM      9  C   UNL     1       2.969  -8.923  -4.324  0.00  0.00    +0.002 A 
ATOM     10  C   UNL     1       2.954  -7.568  -4.379  0.00  0.00    +0.026 A 
ATOM     11  C   UNL     1       3.076  -6.811  -3.186  0.00  0.00    +0.044 A 
ATOM     12  N   UNL     1       3.084  -5.493  -2.979  0.00  0.00    -0.369 N 
ATOM     13  S   UNL     1       3.646  -6.894   0.704  0.00  0.00    -0.124 S 
ATOM     14  C   UNL     1       3.328  -5.313   1.519  0.00  0.00    +0.109 C 
ATOM     15  C   UNL     1       1.861  -4.941   1.431  0.00  0.00    +0.120 C 
ATOM     16  C   UNL     1       1.620  -3.787   2.407  0.00  0.00    +0.042 C 
ATOM     17  H   UNL     1       3.030  -4.806  -3.662  0.00  0.00    +0.161 HD
ENDROOT
BRANCH  15  18
ATOM     18  C   UNL     1       1.020  -6.111   1.872  0.00  0.00    +0.237 C 
ATOM     19  O   UNL     1       0.631  -6.180   3.019  0.00  0.00    -0.273 OA
ATOM     20  N   UNL     1       0.700  -7.080   0.992  0.00  0.00    -0.311 N 
ATOM     21  H   UNL     1       1.066  -7.060   0.094  0.00  0.00    +0.149 HD
BRANCH  20  22
ATOM     22  C   UNL     1      -0.200  -8.164   1.392  0.00  0.00    +0.073 C 
ATOM     23  C   UNL     1       0.607  -9.313   2.032  0.00  0.00    +0.022 C 
ATOM     24  C   UNL     1      -0.107 -10.597   1.542  0.00  0.00    +0.002 C 
ATOM     25  C   UNL     1      -0.491 -10.240   0.084  0.00  0.00    +0.002 C 
ATOM     26  C   UNL     1      -0.898  -8.754   0.154  0.00  0.00    +0.022 C 
ENDBRANCH  20  22
ENDBRANCH  15  18
BRANCH   1  27
ATOM     27  C   UNL     1       0.122  -3.851   0.167  0.00  0.00    +0.144 C 
BRANCH  27  32
ATOM     28  C   UNL     1      -4.091  -7.673  -0.848  0.00  0.00    +0.044 C 
ATOM     29  C   UNL     1      -2.992  -6.677  -0.583  0.00  0.00    -0.050 A 
ATOM     30  C   UNL     1      -2.656  -6.347   0.717  0.00  0.00    +0.003 A 
ATOM     31  C   UNL     1      -1.648  -5.433   0.959  0.00  0.00    +0.005 A 
ATOM     32  C   UNL     1      -0.976  -4.849  -0.098  0.00  0.00    -0.030 A 
ATOM     33  C   UNL     1      -1.311  -5.179  -1.398  0.00  0.00    +0.005 A 
ATOM     34  C   UNL     1      -2.316  -6.097  -1.640  0.00  0.00    +0.003 A 
ENDBRANCH  27  32
ENDBRANCH   1  27
TORSDOF 4
