REMARK  Name = ZINC15900706
REMARK  7 active torsions:
REMARK  status: ('A' for Active; 'I' for Inactive)
REMARK    1  A    between atoms: C_1  and  C_2
REMARK    2  A    between atoms: C_5  and  C_35
REMARK    3  A    between atoms: N_8  and  S_10
REMARK    4  A    between atoms: S_10  and  C_13
REMARK    5  A    between atoms: C_17  and  C_19
REMARK    6  A    between atoms: N_21  and  N_22
REMARK    7  A    between atoms: C_23  and  C_25
REMARK                            x       y       z     vdW  Elec       q    Type
REMARK                         _______ _______ _______ _____ _____    ______ ____
ROOT
ATOM      1  C   UNL     1      -2.522   3.870   0.045  0.00  0.00    +0.260 C 
ATOM      2  O   UNL     1      -2.534   5.085   0.050  0.00  0.00    -0.269 OA
ATOM      3  N   UNL     1      -3.683   3.185   0.052  0.00  0.00    -0.230 N 
ATOM      4  H   UNL     1      -3.673   2.215   0.048  0.00  0.00    +0.173 HD
ENDROOT
BRANCH   1   9
ATOM      5  C   UNL     1       1.167   3.166   0.007  0.00  0.00    +0.106 A 
ATOM      6  C   UNL     1       1.177   1.782   0.000  0.00  0.00    +0.028 A 
ATOM      7  C   UNL     1      -0.013   1.076   0.008  0.00  0.00    +0.003 A 
ATOM      8  C   UNL     1      -1.218   1.748   0.017  0.00  0.00    +0.013 A 
ATOM      9  C   UNL     1      -1.235   3.143   0.029  0.00  0.00    +0.040 A 
ATOM     10  C   UNL     1      -0.031   3.850   0.021  0.00  0.00    +0.041 A 
BRANCH   5  11
ATOM     11  S   UNL     1       2.688   4.056  -0.003  0.00  0.00    +0.061 S 
ATOM     12  O   UNL     1       2.414   5.333   0.556  0.00  0.00    -0.153 OA
ATOM     13  O   UNL     1       3.672   3.184   0.534  0.00  0.00    -0.153 OA
BRANCH  11  19
ATOM     14  C   UNL     1       4.090   2.027  -4.439  0.00  0.00    +0.009 C 
ATOM     15  C   UNL     1       3.190   2.938  -3.603  0.00  0.00    +0.002 C 
ATOM     16  C   UNL     1       2.854   4.199  -4.404  0.00  0.00    +0.009 C 
ATOM     17  C   UNL     1       1.926   5.096  -3.581  0.00  0.00    +0.002 C 
ATOM     18  C   UNL     1       2.641   5.517  -2.293  0.00  0.00    +0.112 C 
ATOM     19  N   UNL     1       3.095   4.311  -1.588  0.00  0.00    -0.176 NA
ATOM     20  C   UNL     1       3.923   3.338  -2.314  0.00  0.00    +0.112 C 
ATOM     21  C   UNL     1       0.651   4.326  -3.230  0.00  0.00    +0.009 C 
ENDBRANCH  11  19
ENDBRANCH   5  11
ENDBRANCH   1   9
BRANCH   3  22
ATOM     22  N   UNL     1      -4.903   3.873   0.067  0.00  0.00    -0.234 N 
ATOM     23  C   UNL     1      -6.063   3.188   0.075  0.00  0.00    +0.235 C 
ATOM     24  O   UNL     1      -6.051   1.975   0.069  0.00  0.00    -0.274 OA
ATOM     25  H   UNL     1      -4.912   4.843   0.071  0.00  0.00    +0.173 HD
BRANCH  23  26
ATOM     26  C   UNL     1      -7.375   3.929   0.090  0.00  0.00    +0.049 C 
ATOM     27  C   UNL     1      -7.453   4.802   1.344  0.00  0.00    +0.019 C 
ATOM     28  C   UNL     1      -8.786   5.554   1.360  0.00  0.00    -0.009 C 
ATOM     29  C   UNL     1      -9.939   4.548   1.366  0.00  0.00    +0.007 C 
ATOM     30  C   UNL     1      -9.861   3.675   0.112  0.00  0.00    -0.009 C 
ATOM     31  C   UNL     1      -8.529   2.923   0.097  0.00  0.00    +0.019 C 
ATOM     32  C   UNL     1      -9.962   4.559  -1.132  0.00  0.00    +0.007 C 
ATOM     33  C   UNL     1      -8.809   5.565  -1.138  0.00  0.00    -0.009 C 
ATOM     34  C   UNL     1      -8.887   6.438   0.115  0.00  0.00    +0.007 C 
ATOM     35  C   UNL     1      -7.477   4.813  -1.154  0.00  0.00    +0.019 C 
ENDBRANCH  23  26
ENDBRANCH   3  22
TORSDOF 5
