REMARK  Name = ZINC39698749
REMARK  8 active torsions:
REMARK  status: ('A' for Active; 'I' for Inactive)
REMARK    1  A    between atoms: C_1  and  C_2
REMARK    2  A    between atoms: C_2  and  N_3
REMARK    3  A    between atoms: C_4  and  C_25
REMARK    4  A    between atoms: C_8  and  S_9
REMARK    5  A    between atoms: S_9  and  C_10
REMARK    6  A    between atoms: C_10  and  C_11
REMARK    7  A    between atoms: N_13  and  N_14
REMARK    8  A    between atoms: C_15  and  C_16
REMARK                            x       y       z     vdW  Elec       q    Type
REMARK                         _______ _______ _______ _____ _____    ______ ____
ROOT
ATOM      1  C   UNL     1      -3.219  -1.401  -3.473  0.00  0.00    +0.174 C 
ENDROOT
BRANCH   1   2
ATOM      2  C   UNL     1      -2.966  -1.389  -4.958  0.00  0.00    +0.242 C 
ATOM      3  O   UNL     1      -1.895  -1.016  -5.388  0.00  0.00    -0.273 OA
ATOM      4  N   UNL     1      -3.930  -1.791  -5.809  0.00  0.00    -0.206 N 
ATOM      5  H   UNL     1      -4.787  -2.089  -5.465  0.00  0.00    +0.177 HD
BRANCH   4   6
ATOM      6  N   UNL     1      -3.695  -1.780  -7.190  0.00  0.00    -0.188 NA
ATOM      7  C   UNL     1      -4.632  -2.171  -8.017  0.00  0.00    +0.136 C 
BRANCH   7   8
ATOM      8  C   UNL     1      -4.397  -2.159  -9.399  0.00  0.00    +0.000 C 
ATOM      9  C   UNL     1      -5.282  -2.535 -10.407  0.00  0.00    +0.004 A 
ATOM     10  C   UNL     1      -6.609  -3.016 -10.381  0.00  0.00    +0.010 A 
ATOM     11  C   UNL     1      -7.242  -3.309 -11.545  0.00  0.00    +0.001 A 
ATOM     12  C   UNL     1      -6.612  -3.146 -12.783  0.00  0.00    +0.002 A 
ATOM     13  C   UNL     1      -5.341  -2.689 -12.884  0.00  0.00    +0.026 A 
ATOM     14  C   UNL     1      -4.613  -2.361 -11.709  0.00  0.00    +0.043 A 
ATOM     15  N   UNL     1      -3.389  -1.907 -11.540  0.00  0.00    -0.380 N 
ATOM     16  C   UNL     1      -3.131  -1.730 -10.108  0.00  0.00    +0.150 C 
ATOM     17  H   UNL     1      -2.758  -1.716 -12.252  0.00  0.00    +0.160 HD
ENDBRANCH   7   8
ENDBRANCH   4   6
ENDBRANCH   1   2
BRANCH   1  18
ATOM     18  S   UNL     1      -1.741  -0.808  -2.603  0.00  0.00    -0.080 S 
BRANCH  18  23
ATOM     19  N   UNL     1      -1.351  -0.514   0.141  0.00  0.00    -0.285 N 
ATOM     20  C   UNL     1      -2.112  -0.720   1.385  0.00  0.00    +0.208 C 
ATOM     21  N   UNL     1      -3.415  -1.229   0.924  0.00  0.00    -0.242 N 
ATOM     22  N   UNL     1      -3.339  -1.286  -0.473  0.00  0.00    -0.162 NA
ATOM     23  C   UNL     1      -2.191  -0.881  -0.900  0.00  0.00    +0.176 C 
ATOM     24  H   UNL     1      -4.173  -1.475   1.477  0.00  0.00    +0.170 HD
BRANCH  20  25
ATOM     25  C   UNL     1      -2.281   0.584   2.123  0.00  0.00    -0.008 A 
ATOM     26  C   UNL     1      -1.674   0.767   3.351  0.00  0.00    +0.007 A 
ATOM     27  C   UNL     1      -1.829   1.962   4.027  0.00  0.00    +0.000 A 
ATOM     28  C   UNL     1      -2.591   2.975   3.475  0.00  0.00    +0.000 A 
ATOM     29  C   UNL     1      -3.197   2.792   2.246  0.00  0.00    +0.000 A 
ATOM     30  C   UNL     1      -3.039   1.598   1.568  0.00  0.00    +0.007 A 
ENDBRANCH  20  25
BRANCH  19  32
ATOM     31  C   UNL     1      -0.004   1.499  -0.193  0.00  0.00    +0.024 C 
ATOM     32  C   UNL     1       0.021  -0.015   0.025  0.00  0.00    +0.106 C 
ENDBRANCH  19  32
ENDBRANCH  18  23
ENDBRANCH   1  18
TORSDOF 7
