REMARK  Name = ZINC28057165
REMARK  3 active torsions:
REMARK  status: ('A' for Active; 'I' for Inactive)
REMARK    1  A    between atoms: C_1  and  C_2
REMARK    2  A    between atoms: C_6  and  C_8
REMARK    3  A    between atoms: C_25  and  C_27
REMARK                            x       y       z     vdW  Elec       q    Type
REMARK                         _______ _______ _______ _____ _____    ______ ____
ROOT
ATOM      1  C   UNL     1      -0.013   1.086   0.008  0.00  0.00    +0.234 C 
ATOM      2  C   UNL     1      -0.590   1.804  -1.190  0.00  0.00    +0.026 C 
ATOM      3  C   UNL     1      -0.060   2.970  -1.567  0.00  0.00    +0.050 C 
ATOM      4  C   UNL     1       1.084   3.508  -0.794  0.00  0.00    +0.038 A 
ATOM      5  C   UNL     1       1.465   4.841  -0.890  0.00  0.00    +0.013 A 
ATOM      6  C   UNL     1       2.541   5.296  -0.152  0.00  0.00    +0.001 A 
ATOM      7  C   UNL     1       3.235   4.433   0.678  0.00  0.00    +0.004 A 
ATOM      8  C   UNL     1       2.861   3.104   0.780  0.00  0.00    +0.046 A 
ATOM      9  C   UNL     1       1.787   2.635   0.048  0.00  0.00    +0.131 A 
ATOM     10  O   UNL     1       1.387   1.341   0.121  0.00  0.00    -0.479 OA
ATOM     11  N   UNL     1      -0.544   3.691  -2.666  0.00  0.00    -0.282 N 
ATOM     12  C   UNL     1      -1.407   3.034  -3.527  0.00  0.00    +0.240 A 
ATOM     13  N   UNL     1      -1.829   3.340  -4.719  0.00  0.00    -0.092 NA
ATOM     14  N   UNL     1      -2.621   2.424  -5.162  0.00  0.00    -0.021 NA
ATOM     15  N   UNL     1      -2.755   1.482  -4.285  0.00  0.00    -0.042 NA
ATOM     16  N   UNL     1      -1.974   1.846  -3.188  0.00  0.00    -0.201 N 
ATOM     17  C   UNL     1      -1.753   1.174  -1.916  0.00  0.00    +0.177 C 
ATOM     18  H   UNL     1      -0.236   4.736  -2.816  0.00  0.00    +0.155 HD
ENDROOT
BRANCH   1  24
ATOM     19  C   UNL     1      -0.734   4.617   3.480  0.00  0.00    +0.044 C 
ATOM     20  C   UNL     1      -1.052   3.256   2.917  0.00  0.00    -0.050 A 
ATOM     21  C   UNL     1      -1.982   2.448   3.546  0.00  0.00    +0.003 A 
ATOM     22  C   UNL     1      -2.274   1.200   3.029  0.00  0.00    +0.001 A 
ATOM     23  C   UNL     1      -1.640   0.761   1.882  0.00  0.00    +0.007 A 
ATOM     24  C   UNL     1      -0.707   1.566   1.256  0.00  0.00    -0.003 A 
ATOM     25  C   UNL     1      -0.415   2.815   1.772  0.00  0.00    +0.011 A 
ENDBRANCH   1  24
BRANCH  17  26
ATOM     26  C   UNL     1      -2.993   1.290  -1.067  0.00  0.00    +0.017 A 
ATOM     27  C   UNL     1      -3.464   2.535  -0.697  0.00  0.00    +0.009 A 
ATOM     28  C   UNL     1      -4.601   2.642   0.081  0.00  0.00    +0.001 A 
ATOM     29  C   UNL     1      -5.270   1.502   0.489  0.00  0.00    +0.003 A 
ATOM     30  C   UNL     1      -4.801   0.256   0.121  0.00  0.00    +0.039 A 
ATOM     31  C   UNL     1      -3.664   0.148  -0.663  0.00  0.00    +0.129 A 
ATOM     32  F   UNL     1      -3.208  -1.070  -1.028  0.00  0.00    -0.205 F 
ENDBRANCH  17  26
TORSDOF 2
