REMARK  Name = ZINC12568109
REMARK  4 active torsions:
REMARK  status: ('A' for Active; 'I' for Inactive)
REMARK    1  A    between atoms: N_13  and  C_17
REMARK    2  A    between atoms: C_17  and  C_18
REMARK    3  A    between atoms: C_21  and  C_31
REMARK    4  A    between atoms: C_24  and  C_26
REMARK                            x       y       z     vdW  Elec       q    Type
REMARK                         _______ _______ _______ _____ _____    ______ ____
ROOT
ATOM      1  C   UNL     1      -0.917  -2.300  -0.002  0.00  0.00    +0.215 C 
ENDROOT
BRANCH   1  14
ATOM      2  C   UNL     1      -3.265  -7.417  -1.526  0.00  0.00    +0.001 A 
ATOM      3  C   UNL     1      -4.473  -7.939  -1.950  0.00  0.00    +0.004 A 
ATOM      4  C   UNL     1      -5.604  -7.148  -1.946  0.00  0.00    +0.046 A 
ATOM      5  C   UNL     1      -5.533  -5.827  -1.518  0.00  0.00    +0.126 A 
ATOM      6  C   UNL     1      -4.322  -5.309  -1.089  0.00  0.00    +0.027 A 
ATOM      7  C   UNL     1      -3.191  -6.107  -1.097  0.00  0.00    +0.010 A 
ATOM      8  C   UNL     1      -4.213  -3.888  -0.611  0.00  0.00    +0.144 C 
ATOM      9  C   UNL     1      -5.416  -3.070  -1.073  0.00  0.00    +0.081 C 
ATOM     10  C   UNL     1      -6.689  -3.873  -0.768  0.00  0.00    +0.232 C 
ATOM     11  O   UNL     1      -6.663  -5.073  -1.542  0.00  0.00    -0.492 OA
ATOM     12  C   UNL     1      -2.929  -3.262  -1.105  0.00  0.00    +0.252 C 
ATOM     13  O   UNL     1      -2.593  -3.088  -2.256  0.00  0.00    -0.272 OA
ATOM     14  N   UNL     1      -2.236  -2.938   0.007  0.00  0.00    -0.215 N 
ATOM     15  C   UNL     1      -2.901  -3.277   1.118  0.00  0.00    +0.310 C 
ATOM     16  O   UNL     1      -2.478  -3.089   2.242  0.00  0.00    -0.252 OA
ATOM     17  N   UNL     1      -4.093  -3.844   0.852  0.00  0.00    -0.281 N 
ATOM     18  H   UNL     1      -4.742  -4.165   1.498  0.00  0.00    +0.152 HD
ENDBRANCH   1  14
BRANCH   1  19
ATOM     19  C   UNL     1      -1.084  -0.803   0.008  0.00  0.00    +0.253 C 
ATOM     20  O   UNL     1      -2.195  -0.316   0.021  0.00  0.00    -0.272 OA
ATOM     21  N   UNL     1       0.002  -0.004   0.002  0.00  0.00    -0.183 N 
ATOM     22  C   UNL     1      -0.018   1.467   0.010  0.00  0.00    +0.143 C 
ATOM     23  C   UNL     1       1.475   1.850  -0.002  0.00  0.00    +0.088 C 
ATOM     24  C   UNL     1       2.193   0.520  -0.016  0.00  0.00    +0.075 C 
ATOM     25  N   UNL     1       1.326  -0.437  -0.013  0.00  0.00    -0.180 NA
BRANCH  24  26
ATOM     26  C   UNL     1       3.649   0.344  -0.031  0.00  0.00    +0.035 A 
ATOM     27  C   UNL     1       4.386  -0.828  -0.038  0.00  0.00    +0.017 A 
ATOM     28  C   UNL     1       5.758  -0.737  -0.057  0.00  0.00    +0.008 A 
ATOM     29  C   UNL     1       6.343   0.490  -0.056  0.00  0.00    +0.046 A 
ATOM     30  S   UNL     1       4.933   1.584  -0.036  0.00  0.00    -0.095 S 
ENDBRANCH  24  26
BRANCH  22  31
ATOM     31  C   UNL     1      -0.687   1.981   1.259  0.00  0.00    +0.013 A 
ATOM     32  C   UNL     1      -1.520   3.041   1.406  0.00  0.00    +0.013 A 
ATOM     33  C   UNL     1      -2.021   3.329   2.662  0.00  0.00    +0.008 A 
ATOM     34  C   UNL     1      -1.665   2.545   3.708  0.00  0.00    +0.045 A 
ATOM     35  S   UNL     1      -0.595   1.349   2.926  0.00  0.00    -0.100 S 
ENDBRANCH  22  31
ENDBRANCH   1  19
TORSDOF 4
