REMARK  Name = ZINC15800466
REMARK  6 active torsions:
REMARK  status: ('A' for Active; 'I' for Inactive)
REMARK    1  A    between atoms: C_1  and  O_2
REMARK    2  A    between atoms: O_2  and  C_3
REMARK    3  A    between atoms: C_3  and  C_5
REMARK    4  A    between atoms: C_10  and  C_11
REMARK    5  A    between atoms: C_14  and  C_16
REMARK    6  A    between atoms: C_26  and  C_28
REMARK                            x       y       z     vdW  Elec       q    Type
REMARK                         _______ _______ _______ _____ _____    ______ ____
ROOT
ATOM      1  C   UNL     1       1.391   4.391   0.012  0.00  0.00    +0.063 C 
ATOM      2  C   UNL     1       0.778   5.630  -0.080  0.00  0.00    +0.084 C 
ATOM      3  C   UNL     1       1.566   6.887  -0.188  0.00  0.00    +0.153 C 
ATOM      4  N   UNL     1       2.720   6.961  -0.801  0.00  0.00    -0.283 NA
ATOM      5  N   UNL     1       0.952   7.994   0.429  0.00  0.00    -0.152 N 
ATOM      6  C   UNL     1      -0.413   7.942   0.620  0.00  0.00    +0.181 C 
ATOM      7  N   UNL     1      -1.216   6.941   0.362  0.00  0.00    -0.152 NA
ATOM      8  C   UNL     1      -0.696   5.774  -0.071  0.00  0.00    +0.273 C 
ATOM      9  O   UNL     1      -1.419   4.864  -0.444  0.00  0.00    -0.268 OA
ATOM     10  S   UNL     1      -0.764   9.557   1.262  0.00  0.00    -0.033 S 
ATOM     11  C   UNL     1       0.916  10.163   1.312  0.00  0.00    +0.130 C 
ATOM     12  N   UNL     1       1.593   9.146   0.835  0.00  0.00    -0.164 NA
ATOM     13  H   UNL     1       3.193   7.806  -0.843  0.00  0.00    +0.188 HD
ENDROOT
BRANCH  11  14
ATOM     14  C   UNL     1       1.417  11.476   1.773  0.00  0.00    +0.009 A 
ATOM     15  C   UNL     1       2.783  11.757   1.737  0.00  0.00    +0.010 A 
ATOM     16  C   UNL     1       3.244  12.986   2.164  0.00  0.00    +0.001 A 
ATOM     17  C   UNL     1       2.355  13.934   2.638  0.00  0.00    +0.000 A 
ATOM     18  C   UNL     1       0.999  13.660   2.681  0.00  0.00    +0.001 A 
ATOM     19  C   UNL     1       0.526  12.437   2.252  0.00  0.00    +0.010 A 
ENDBRANCH  11  14
BRANCH   1  23
ATOM     20  C   UNL     1      -0.894   2.108   1.506  0.00  0.00    +0.136 A 
ATOM     21  C   UNL     1       0.121   1.232   1.182  0.00  0.00    +0.050 A 
ATOM     22  C   UNL     1       1.125   1.980   0.568  0.00  0.00    +0.050 A 
ATOM     23  C   UNL     1       0.686   3.296   0.544  0.00  0.00    +0.129 A 
ATOM     24  O   UNL     1      -0.534   3.344   1.120  0.00  0.00    -0.455 OA
BRANCH  20  30
ATOM     25  C   UNL     1      -2.600   2.470   3.299  0.00  0.00    +0.070 A 
ATOM     26  C   UNL     1      -3.804   2.121   3.911  0.00  0.00    +0.016 A 
ATOM     27  C   UNL     1      -4.550   1.071   3.418  0.00  0.00    +0.001 A 
ATOM     28  C   UNL     1      -4.115   0.358   2.311  0.00  0.00    +0.001 A 
ATOM     29  C   UNL     1      -2.931   0.690   1.687  0.00  0.00    +0.012 A 
ATOM     30  C   UNL     1      -2.160   1.749   2.169  0.00  0.00    +0.031 A 
BRANCH  25  31
ATOM     31  C   UNL     1      -1.795   3.588   3.826  0.00  0.00    +0.340 C 
ATOM     32  O   UNL     1      -0.749   3.891   3.286  0.00  0.00    -0.245 OA
BRANCH  31  34
ATOM     33  C   UNL     1      -1.377   5.361   5.369  0.00  0.00    +0.280 C 
ATOM     34  O   UNL     1      -2.219   4.274   4.905  0.00  0.00    -0.464 OA
ENDBRANCH  31  34
ENDBRANCH  25  31
ENDBRANCH  20  30
ENDBRANCH   1  23
TORSDOF 5
