REMARK  Name = ZINC39527866
REMARK  6 active torsions:
REMARK  status: ('A' for Active; 'I' for Inactive)
REMARK    1  A    between atoms: C_1  and  C_2
REMARK    2  A    between atoms: C_2  and  C_3
REMARK    3  A    between atoms: C_2  and  S_4
REMARK    4  A    between atoms: S_4  and  N_7
REMARK    5  A    between atoms: C_17  and  C_20
REMARK    6  A    between atoms: C_25  and  O_26
REMARK                            x       y       z     vdW  Elec       q    Type
REMARK                         _______ _______ _______ _____ _____    ______ ____
ROOT
ATOM      1  N   UNL     1       2.309  -0.126  -1.470  0.00  0.00    -0.157 NA
ATOM      2  C   UNL     1       2.693   1.234  -1.876  0.00  0.00    +0.171 C 
ATOM      3  C   UNL     1       3.451   1.897  -0.722  0.00  0.00    +0.037 C 
ATOM      4  C   UNL     1       4.627   1.008  -0.310  0.00  0.00    +0.005 C 
ATOM      5  C   UNL     1       4.102  -0.346   0.172  0.00  0.00    +0.024 C 
ATOM      6  C   UNL     1       3.348  -1.031  -0.965  0.00  0.00    +0.045 C 
ATOM      7  C   UNL     1       2.699  -2.315  -0.448  0.00  0.00    +0.024 C 
ATOM      8  C   UNL     1       1.944  -3.000  -1.589  0.00  0.00    +0.002 C 
ATOM      9  C   UNL     1       2.922  -3.338  -2.717  0.00  0.00    +0.008 C 
ATOM     10  C   UNL     1       3.569  -2.051  -3.234  0.00  0.00    +0.024 C 
ATOM     11  C   UNL     1       4.324  -1.366  -2.093  0.00  0.00    +0.032 C 
ATOM     12 CL   UNL     1       1.214   2.190  -2.262  0.00  0.00    -0.103 Cl
ENDROOT
BRANCH  10  13
ATOM     13  C   UNL     1       4.531  -2.385  -4.345  0.00  0.00    -0.003 A 
ATOM     14  C   UNL     1       5.599  -3.228  -4.105  0.00  0.00    +0.007 A 
ATOM     15  C   UNL     1       6.483  -3.533  -5.124  0.00  0.00    +0.001 A 
ATOM     16  C   UNL     1       6.299  -2.996  -6.385  0.00  0.00    +0.004 A 
ATOM     17  C   UNL     1       5.233  -2.154  -6.630  0.00  0.00    +0.046 A 
ATOM     18  C   UNL     1       4.342  -1.849  -5.611  0.00  0.00    +0.120 A 
BRANCH  18  19
ATOM     19  O   UNL     1       3.289  -1.025  -5.851  0.00  0.00    -0.506 OA
ATOM     20  H   UNL     1       3.479  -0.089  -5.699  0.00  0.00    +0.292 HD
ENDBRANCH  18  19
ENDBRANCH  10  13
BRANCH   1  21
ATOM     21  S   UNL     1       0.733  -0.624  -1.575  0.00  0.00    +0.036 S 
ATOM     22  O   UNL     1       0.683  -1.828  -0.822  0.00  0.00    -0.158 OA
ATOM     23  O   UNL     1       0.445  -0.627  -2.966  0.00  0.00    -0.158 OA
BRANCH  21  25
ATOM     24  C   UNL     1      -1.321   0.033   0.108  0.00  0.00    +0.033 C 
ATOM     25  C   UNL     1      -0.222   0.674  -0.742  0.00  0.00    +0.142 C 
ATOM     26  C   UNL     1       0.706   1.493   0.157  0.00  0.00    +0.033 C 
ENDBRANCH  21  25
ENDBRANCH   1  21
TORSDOF 4
