REMARK  Name = ZINC12293759
REMARK  6 active torsions:
REMARK  status: ('A' for Active; 'I' for Inactive)
REMARK    1  A    between atoms: C_1  and  C_2
REMARK    2  A    between atoms: C_8  and  O_28
REMARK    3  A    between atoms: C_17  and  C_18
REMARK    4  A    between atoms: C_17  and  N_53
REMARK    5  A    between atoms: C_18  and  C_20
REMARK    6  A    between atoms: C_18  and  O_27
REMARK                            x       y       z     vdW  Elec       q    Type
REMARK                         _______ _______ _______ _____ _____    ______ ____
ROOT
ATOM      1  C   UNL     1       6.789  -6.932   1.392  0.00  0.00    +0.044 C 
ATOM      2  C   UNL     1       5.496  -6.247   1.751  0.00  0.00    -0.050 A 
ATOM      3  C   UNL     1       5.510  -5.117   2.547  0.00  0.00    +0.007 A 
ATOM      4  C   UNL     1       4.325  -4.491   2.877  0.00  0.00    +0.046 A 
ATOM      5  C   UNL     1       3.114  -4.994   2.410  0.00  0.00    +0.127 A 
ATOM      6  C   UNL     1       3.104  -6.124   1.612  0.00  0.00    +0.023 A 
ATOM      7  C   UNL     1       4.296  -6.749   1.286  0.00  0.00    +0.013 A 
ATOM      8  C   UNL     1       1.815  -6.697   1.078  0.00  0.00    +0.152 C 
ATOM      9  C   UNL     1       0.635  -6.156   1.890  0.00  0.00    +0.084 C 
ATOM     10  C   UNL     1       0.789  -4.636   2.008  0.00  0.00    +0.110 C 
ATOM     11  O   UNL     1       1.968  -4.353   2.759  0.00  0.00    -0.485 OA
ATOM     12  C   UNL     1      -0.433  -4.053   2.721  0.00  0.00    +0.029 C 
ATOM     13  C   UNL     1      -0.307  -2.529   2.778  0.00  0.00    -0.075 C 
ATOM     14  C   UNL     1       0.989  -2.500   0.731  0.00  0.00    -0.075 C 
ATOM     15  C   UNL     1       0.904  -4.024   0.611  0.00  0.00    +0.029 C 
ATOM     16  N   UNL     1      -0.232  -2.002   1.399  0.00  0.00    +0.382 N 
ATOM     17  H   UNL     1      -1.054  -2.325   0.874  0.00  0.00    -0.082 HD
ENDROOT
BRANCH   8  18
ATOM     18  O   UNL     1       1.849  -8.122   1.182  0.00  0.00    -0.387 OA
ATOM     19  H   UNL     1       2.572  -8.535   0.689  0.00  0.00    +0.210 HD
ENDBRANCH   8  18
BRANCH  16  20
ATOM     20  C   UNL     1      -0.228  -0.525   1.422  0.00  0.00    -0.042 C 
BRANCH  20  21
ATOM     21  C   UNL     1      -0.027  -0.004  -0.003  0.00  0.00    +0.128 C 
BRANCH  21  22
ATOM     22  C   UNL     1      -0.077   1.502   0.001  0.00  0.00    -0.021 A 
ATOM     23  C   UNL     1      -1.297   2.152   0.024  0.00  0.00    +0.009 A 
ATOM     24  C   UNL     1      -1.344   3.533   0.033  0.00  0.00    +0.039 A 
ATOM     25  C   UNL     1      -0.169   4.266   0.007  0.00  0.00    +0.123 A 
ATOM     26  C   UNL     1       1.052   3.613  -0.021  0.00  0.00    +0.039 A 
ATOM     27  C   UNL     1       1.097   2.232  -0.024  0.00  0.00    +0.009 A 
ATOM     28  F   UNL     1      -0.214   5.616   0.011  0.00  0.00    -0.205 F 
ENDBRANCH  21  22
BRANCH  21  29
ATOM     29  O   UNL     1      -1.062  -0.513  -0.846  0.00  0.00    -0.389 OA
ATOM     30  H   UNL     1      -1.953  -0.258  -0.573  0.00  0.00    +0.210 HD
ENDBRANCH  21  29
ENDBRANCH  20  21
ENDBRANCH  16  20
TORSDOF 5
