REMARK  Name = ZINC27099740
REMARK  15 active torsions:
REMARK  status: ('A' for Active; 'I' for Inactive)
REMARK    1  A    between atoms: C_1  and  C_2
REMARK    2  A    between atoms: C_2  and  C_3
REMARK    3  A    between atoms: C_3  and  N_4
REMARK    4  A    between atoms: N_4  and  C_5
REMARK    5  A    between atoms: N_4  and  C_34
REMARK    6  A    between atoms: C_5  and  C_6
REMARK    7  A    between atoms: C_7  and  O_33
REMARK    8  A    between atoms: C_13  and  C_29
REMARK    9  A    between atoms: C_14  and  O_17
REMARK   10  A    between atoms: O_17  and  C_18
REMARK   11  A    between atoms: C_21  and  C_24
REMARK   12  A    between atoms: C_24  and  O_26
REMARK   13  A    between atoms: O_26  and  C_27
REMARK   14  A    between atoms: C_27  and  C_28
REMARK   15  A    between atoms: C_34  and  C_35
REMARK                            x       y       z     vdW  Elec       q    Type
REMARK                         _______ _______ _______ _____ _____    ______ ____
ROOT
ATOM      1  C   UNL     1      -1.084   7.622  -0.175  0.00  0.00    +0.020 A 
ATOM      2  C   UNL     1      -1.040   8.424   0.953  0.00  0.00    +0.122 A 
ATOM      3  C   UNL     1      -1.037   7.857   2.225  0.00  0.00    +0.046 A 
ATOM      4  C   UNL     1      -1.079   6.501   2.378  0.00  0.00    +0.019 A 
ATOM      5  C   UNL     1      -1.124   5.679   1.252  0.00  0.00    +0.068 A 
ATOM      6  C   UNL     1      -1.127   6.241  -0.037  0.00  0.00    +0.144 A 
ATOM      7  O   UNL     1      -1.171   5.437  -1.119  0.00  0.00    -0.447 OA
ATOM      8  C   UNL     1      -1.213   4.102  -1.019  0.00  0.00    +0.254 A 
ATOM      9  C   UNL     1      -1.214   3.459   0.165  0.00  0.00    +0.222 A 
ATOM     10  C   UNL     1      -1.175   4.212   1.373  0.00  0.00    +0.235 A 
ATOM     11  O   UNL     1      -1.181   3.664   2.463  0.00  0.00    -0.283 OA
ENDROOT
BRANCH   8  12
ATOM     12  C   UNL     1      -1.260   3.285  -2.285  0.00  0.00    +0.454 C 
ATOM     13  F   UNL     1      -2.593   3.075  -2.655  0.00  0.00    -0.163 F 
ATOM     14  F   UNL     1      -0.595   3.970  -3.307  0.00  0.00    -0.163 F 
ATOM     15  F   UNL     1      -0.637   2.052  -2.067  0.00  0.00    -0.163 F 
ENDBRANCH   8  12
BRANCH   2  16
ATOM     16  O   UNL     1      -0.998   9.774   0.817  0.00  0.00    -0.506 OA
ATOM     17  H   UNL     1      -0.963  10.416   1.709  0.00  0.00    +0.292 HD
ENDBRANCH   2  16
BRANCH   1  18
ATOM     18  C   UNL     1      -1.087   8.245  -1.548  0.00  0.00    -0.036 C 
BRANCH  18  19
ATOM     19  N   UNL     1      -2.467   8.329  -2.044  0.00  0.00    +0.383 N 
ATOM     20  H   UNL     1      -2.978   7.390  -1.785  0.00  0.00    -0.081 HD
BRANCH  19  21
ATOM     21  C   UNL     1      -3.193   9.431  -1.397  0.00  0.00    -0.079 C 
BRANCH  21  23
ATOM     22  C   UNL     1      -3.238  11.902  -1.034  0.00  0.00    +0.002 C 
ATOM     23  C   UNL     1      -2.554  10.764  -1.794  0.00  0.00    -0.022 C 
ENDBRANCH  21  23
ENDBRANCH  19  21
BRANCH  19  24
ATOM     24  C   UNL     1      -2.493   8.469  -3.506  0.00  0.00    -0.075 C 
BRANCH  24  25
ATOM     25  C   UNL     1      -3.902   8.171  -4.022  0.00  0.00    -0.028 C 
ATOM     26  C   UNL     1      -4.080   6.950  -4.927  0.00  0.00    +0.002 C 
ATOM     27  C   UNL     1      -4.161   8.359  -5.519  0.00  0.00    +0.002 C 
ENDBRANCH  24  25
ENDBRANCH  19  24
ENDBRANCH  18  19
ENDBRANCH   1  18
BRANCH   9  28
ATOM     28  O   UNL     1      -1.259   2.099   0.206  0.00  0.00    -0.448 OA
BRANCH  28  29
ATOM     29  C   UNL     1      -0.083   1.423   0.206  0.00  0.00    +0.129 A 
ATOM     30  C   UNL     1       1.119   2.122   0.158  0.00  0.00    +0.047 A 
ATOM     31  C   UNL     1       2.314   1.440   0.151  0.00  0.00    +0.018 A 
ATOM     32  C   UNL     1       2.320   0.042   0.193  0.00  0.00    +0.059 A 
ATOM     33  C   UNL     1       1.110  -0.656   0.241  0.00  0.00    +0.018 A 
ATOM     34  C   UNL     1      -0.082   0.033   0.247  0.00  0.00    +0.047 A 
BRANCH  32  35
ATOM     35  C   UNL     1       3.598  -0.692   0.186  0.00  0.00    +0.339 C 
ATOM     36  O   UNL     1       3.601  -1.907   0.223  0.00  0.00    -0.245 OA
BRANCH  35  37
ATOM     37  O   UNL     1       4.763  -0.017   0.140  0.00  0.00    -0.461 OA
BRANCH  37  38
ATOM     38  C   UNL     1       5.982  -0.805   0.136  0.00  0.00    +0.229 C 
ATOM     39  C   UNL     1       7.193   0.128   0.081  0.00  0.00    +0.048 C 
ENDBRANCH  37  38
ENDBRANCH  35  37
ENDBRANCH  32  35
ENDBRANCH  28  29
ENDBRANCH   9  28
TORSDOF 13
