REMARK  Name = ZINC05487063
REMARK  6 active torsions:
REMARK  status: ('A' for Active; 'I' for Inactive)
REMARK    1  A    between atoms: C_1  and  C_2
REMARK    2  A    between atoms: C_5  and  N_10
REMARK    3  A    between atoms: N_10  and  C_11
REMARK    4  A    between atoms: C_14  and  N_17
REMARK    5  A    between atoms: N_17  and  C_18
REMARK    6  A    between atoms: C_23  and  C_26
REMARK                            x       y       z     vdW  Elec       q    Type
REMARK                         _______ _______ _______ _____ _____    ______ ____
ROOT
ATOM      1  C   UNL     1       1.240   1.633  -1.005  0.00  0.00    +0.031 A 
ATOM      2  C   UNL     1       1.220   2.968  -1.387  0.00  0.00    +0.025 A 
ATOM      3  C   UNL     1       2.382   3.712  -1.356  0.00  0.00    +0.025 A 
ATOM      4  C   UNL     1       3.574   3.122  -0.953  0.00  0.00    +0.031 A 
ATOM      5  C   UNL     1       3.594   1.785  -0.576  0.00  0.00    +0.025 A 
ATOM      6  C   UNL     1       2.431   1.043  -0.602  0.00  0.00    +0.025 A 
ENDROOT
BRANCH   1   7
ATOM      7  N   UNL     1       0.060   0.880  -1.032  0.00  0.00    -0.318 N 
ATOM      8  H   UNL     1       0.066  -0.017  -1.401  0.00  0.00    +0.152 HD
BRANCH   7  12
ATOM      9  C   UNL     1      -4.889   0.918  -0.706  0.00  0.00    +0.052 C 
ATOM     10  C   UNL     1      -3.554   1.666  -0.732  0.00  0.00    +0.179 C 
ATOM     11  C   UNL     1      -2.399   0.660  -0.699  0.00  0.00    +0.095 C 
ATOM     12  C   UNL     1      -1.100   1.411  -0.543  0.00  0.00    +0.018 C 
ATOM     13  C   UNL     1      -1.085   2.606   0.085  0.00  0.00    +0.110 C 
ATOM     14  C   UNL     1      -2.282   3.168   0.579  0.00  0.00    +0.334 C 
ATOM     15  O   UNL     1      -2.257   4.240   1.154  0.00  0.00    -0.246 OA
ATOM     16  O   UNL     1      -3.454   2.516   0.417  0.00  0.00    -0.458 OA
ENDBRANCH   7  12
ENDBRANCH   1   7
BRANCH   4  17
ATOM     17  N   UNL     1       4.753   3.874  -0.927  0.00  0.00    -0.318 N 
ATOM     18  H   UNL     1       5.602   3.439  -0.751  0.00  0.00    +0.152 HD
BRANCH  17  19
ATOM     19  C   UNL     1       4.709   5.222  -1.150  0.00  0.00    +0.018 C 
ATOM     20  C   UNL     1       5.349   5.753  -2.214  0.00  0.00    +0.110 C 
ATOM     21  C   UNL     1       5.296   7.141  -2.459  0.00  0.00    +0.334 C 
ATOM     22  O   UNL     1       5.886   7.613  -3.414  0.00  0.00    -0.246 OA
ATOM     23  O   UNL     1       4.594   7.948  -1.634  0.00  0.00    -0.458 OA
ATOM     24  C   UNL     1       3.471   7.357  -0.971  0.00  0.00    +0.179 C 
ATOM     25  C   UNL     1       3.950   6.119  -0.204  0.00  0.00    +0.095 C 
ATOM     26  C   UNL     1       2.859   8.362   0.007  0.00  0.00    +0.052 C 
ENDBRANCH  17  19
ENDBRANCH   4  17
TORSDOF 4
