REMARK  Name = ZINC67654713
REMARK  7 active torsions:
REMARK  status: ('A' for Active; 'I' for Inactive)
REMARK    1  A    between atoms: C_1  and  C_2
REMARK    2  A    between atoms: C_2  and  C_3
REMARK    3  A    between atoms: C_2  and  C_4
REMARK    4  A    between atoms: C_2  and  N_27
REMARK    5  A    between atoms: C_13  and  C_17
REMARK    6  A    between atoms: C_15  and  O_16
REMARK    7  A    between atoms: N_27  and  C_28
REMARK                            x       y       z     vdW  Elec       q    Type
REMARK                         _______ _______ _______ _____ _____    ______ ____
ROOT
ATOM      1  C   UNL     1      -1.460  -0.412  -0.165  0.00  0.00    +0.204 C 
ATOM      2  O   UNL     1      -2.153  -0.521   0.825  0.00  0.00    -0.277 OA
ATOM      3  N   UNL     1      -1.980  -0.664  -1.382  0.00  0.00    -0.295 N 
ATOM      4  C   UNL     1      -1.111  -0.657  -2.560  0.00  0.00    +0.149 C 
ATOM      5  C   UNL     1      -1.052  -2.032  -3.209  0.00  0.00    +0.248 C 
ATOM      6  O   UNL     1      -2.357  -2.428  -3.647  0.00  0.00    -0.486 OA
ATOM      7  C   UNL     1      -3.108  -3.100  -2.737  0.00  0.00    +0.166 A 
ATOM      8  C   UNL     1      -3.609  -2.444  -1.624  0.00  0.00    +0.016 A 
ATOM      9  C   UNL     1      -4.316  -3.127  -0.661  0.00  0.00    +0.017 A 
ATOM     10  C   UNL     1      -4.566  -4.490  -0.824  0.00  0.00    -0.013 A 
ATOM     11  C   UNL     1      -4.098  -5.149  -1.960  0.00  0.00    +0.057 A 
ATOM     12  C   UNL     1      -3.370  -4.458  -2.912  0.00  0.00    +0.159 A 
ATOM     13  C   UNL     1      -3.412  -0.950  -1.518  0.00  0.00    +0.146 C 
ENDROOT
BRANCH  10  14
ATOM     14  C   UNL     1      -5.328  -5.235   0.207  0.00  0.00    -0.003 A 
ATOM     15  C   UNL     1      -4.992  -5.140   1.514  0.00  0.00    +0.055 A 
ATOM     16  S   UNL     1      -6.177  -6.194   2.327  0.00  0.00    -0.096 S 
ATOM     17  C   UNL     1      -7.091  -6.735   0.907  0.00  0.00    +0.020 A 
ATOM     18  C   UNL     1      -6.459  -6.081  -0.171  0.00  0.00    -0.003 A 
ATOM     19  C   UNL     1      -6.987  -6.325  -1.459  0.00  0.00    +0.009 A 
ATOM     20  C   UNL     1      -8.056  -7.150  -1.628  0.00  0.00    +0.001 A 
ATOM     21  C   UNL     1      -8.664  -7.779  -0.551  0.00  0.00    +0.001 A 
ATOM     22  C   UNL     1      -8.171  -7.573   0.723  0.00  0.00    +0.015 A 
ENDBRANCH  10  14
BRANCH   1  24
ATOM     23  C   UNL     1       0.886  -1.118  -0.547  0.00  0.00    -0.001 C 
ATOM     24  C   UNL     1      -0.018   0.004  -0.033  0.00  0.00    +0.004 C 
ATOM     25  C   UNL     1       0.224   1.271  -0.856  0.00  0.00    -0.001 C 
BRANCH  24  26
ATOM     26  N   UNL     1       0.288   0.271   1.379  0.00  0.00    +0.386 N 
ATOM     27  C   UNL     1       1.699   0.658   1.510  0.00  0.00    -0.099 C 
ATOM     28  H   UNL     1      -0.299   1.021   1.714  0.00  0.00    -0.085 HD
ATOM     29  H   UNL     1       0.115  -0.560   1.923  0.00  0.00    -0.085 HD
ENDBRANCH  24  26
ENDBRANCH   1  24
BRANCH  12  30
ATOM     30  O   UNL     1      -2.912  -5.102  -4.019  0.00  0.00    -0.503 OA
ATOM     31  H   UNL     1      -2.032  -5.489  -3.913  0.00  0.00    +0.292 HD
ENDBRANCH  12  30
TORSDOF 4
