REMARK  Name = ZINC38602380
REMARK  14 active torsions:
REMARK  status: ('A' for Active; 'I' for Inactive)
REMARK    1  A    between atoms: C_1  and  C_2
REMARK    2  A    between atoms: C_2  and  C_3
REMARK    3  A    between atoms: C_3  and  O_4
REMARK    4  A    between atoms: O_4  and  C_5
REMARK    5  A    between atoms: C_8  and  S_12
REMARK    6  A    between atoms: C_10  and  C_11
REMARK    7  A    between atoms: S_12  and  N_15
REMARK    8  A    between atoms: N_15  and  C_16
REMARK    9  A    between atoms: C_16  and  C_18
REMARK   10  A    between atoms: C_16  and  C_19
REMARK   11  A    between atoms: C_19  and  C_21
REMARK   12  A    between atoms: C_19  and  N_26
REMARK   13  A    between atoms: N_29  and  C_32
REMARK   14  A    between atoms: C_32  and  C_33
REMARK                            x       y       z     vdW  Elec       q    Type
REMARK                         _______ _______ _______ _____ _____    ______ ____
ROOT
ATOM      1  C   UNL     1      -0.051  -5.227   7.364  0.00  0.00    +0.112 C 
ENDROOT
BRANCH   1   2
ATOM      2  N   UNL     1      -1.145  -6.196   7.215  0.00  0.00    -0.297 NA
ATOM      3  C   UNL     1      -1.401  -6.488   5.797  0.00  0.00    +0.066 C 
ATOM      4  C   UNL     1      -2.504  -7.543   5.686  0.00  0.00    -0.063 C 
ATOM      5  N   UNL     1      -3.726  -7.042   6.329  0.00  0.00    +0.384 N 
ATOM      6  C   UNL     1      -3.462  -6.779   7.750  0.00  0.00    -0.063 C 
ATOM      7  C   UNL     1      -2.367  -5.718   7.877  0.00  0.00    +0.066 C 
ATOM      8  H   UNL     1      -4.018  -6.188   5.877  0.00  0.00    -0.081 HD
BRANCH   5   9
ATOM      9  C   UNL     1      -4.790  -8.048   6.207  0.00  0.00    -0.043 C 
BRANCH   9  10
ATOM     10  C   UNL     1      -6.076  -7.487   6.756  0.00  0.00    -0.064 A 
ATOM     11  C   UNL     1      -6.386  -7.651   8.094  0.00  0.00    +0.002 A 
ATOM     12  C   UNL     1      -7.566  -7.136   8.597  0.00  0.00    +0.000 A 
ATOM     13  C   UNL     1      -8.437  -6.459   7.764  0.00  0.00    +0.000 A 
ATOM     14  C   UNL     1      -8.126  -6.295   6.427  0.00  0.00    +0.000 A 
ATOM     15  C   UNL     1      -6.944  -6.805   5.924  0.00  0.00    +0.002 A 
ENDBRANCH   9  10
ENDBRANCH   5   9
ENDBRANCH   1   2
BRANCH   1  16
ATOM     16  C   UNL     1       0.241  -5.022   8.828  0.00  0.00    +0.008 A 
ATOM     17  C   UNL     1       0.534  -3.875   9.488  0.00  0.00    +0.013 A 
ATOM     18  C   UNL     1       0.769  -3.926  10.849  0.00  0.00    +0.008 A 
ATOM     19  C   UNL     1       0.700  -5.121  11.484  0.00  0.00    +0.045 A 
ATOM     20  S   UNL     1       0.286  -6.227  10.145  0.00  0.00    -0.100 S 
ENDBRANCH   1  16
BRANCH   1  21
ATOM     21  C   UNL     1       1.200  -5.759   6.663  0.00  0.00    +0.095 C 
ATOM     22  C   UNL     1       1.538  -7.149   7.207  0.00  0.00    +0.027 C 
BRANCH  21  23
ATOM     23  N   UNL     1       2.323  -4.851   6.913  0.00  0.00    -0.185 NA
ATOM     24  H   UNL     1       2.398  -4.397   7.766  0.00  0.00    +0.148 HD
BRANCH  23  25
ATOM     25  S   UNL     1       3.462  -4.601   5.738  0.00  0.00    +0.059 S 
ATOM     26  O   UNL     1       3.856  -5.885   5.274  0.00  0.00    -0.153 OA
ATOM     27  O   UNL     1       4.391  -3.664   6.266  0.00  0.00    -0.153 OA
BRANCH  25  31
ATOM     28  C   UNL     1       1.385  -2.554   2.273  0.00  0.00    +0.123 A 
ATOM     29  C   UNL     1       1.962  -1.797   3.283  0.00  0.00    +0.048 A 
ATOM     30  C   UNL     1       2.595  -2.424   4.339  0.00  0.00    +0.032 A 
ATOM     31  C   UNL     1       2.654  -3.804   4.390  0.00  0.00    +0.106 A 
ATOM     32  C   UNL     1       2.081  -4.561   3.384  0.00  0.00    +0.035 A 
ATOM     33  C   UNL     1       1.442  -3.939   2.329  0.00  0.00    -0.007 A 
ATOM     34  C   UNL     1       0.811  -4.764   1.237  0.00  0.00    +0.047 C 
BRANCH  28  35
ATOM     35  O   UNL     1       0.761  -1.940   1.234  0.00  0.00    -0.492 OA
BRANCH  35  36
ATOM     36  C   UNL     1       0.742  -0.511   1.242  0.00  0.00    +0.229 C 
BRANCH  36  38
ATOM     37  C   UNL     1      -0.019   1.526   0.010  0.00  0.00    +0.007 C 
ATOM     38  C   UNL     1       0.002  -0.004   0.002  0.00  0.00    +0.038 C 
ENDBRANCH  36  38
ENDBRANCH  35  36
ENDBRANCH  28  35
ENDBRANCH  25  31
ENDBRANCH  23  25
ENDBRANCH  21  23
ENDBRANCH   1  21
TORSDOF 11
