REMARK  Name = ZINC17723952
REMARK  10 active torsions:
REMARK  status: ('A' for Active; 'I' for Inactive)
REMARK    1  A    between atoms: C_1  and  C_2
REMARK    2  A    between atoms: C_3  and  C_14
REMARK    3  A    between atoms: N_5  and  C_7
REMARK    4  A    between atoms: C_14  and  C_15
REMARK    5  A    between atoms: C_14  and  C_24
REMARK    6  A    between atoms: C_18  and  N_21
REMARK    7  A    between atoms: N_21  and  C_22
REMARK    8  A    between atoms: N_21  and  C_23
REMARK    9  A    between atoms: C_25  and  C_36
REMARK   10  A    between atoms: N_27  and  C_30
REMARK                            x       y       z     vdW  Elec       q    Type
REMARK                         _______ _______ _______ _____ _____    ______ ____
ROOT
ATOM      1  C   UNL     1      -0.489   4.072  -0.737  0.00  0.00    +0.093 C 
ENDROOT
BRANCH   1   4
ATOM      2  C   UNL     1      -0.449   1.257   0.595  0.00  0.00    +0.065 C 
ATOM      3  C   UNL     1      -0.691   1.539  -0.865  0.00  0.00    +0.039 A 
ATOM      4  C   UNL     1      -0.708   2.758  -1.441  0.00  0.00    +0.051 A 
ATOM      5  C   UNL     1      -0.968   2.588  -2.821  0.00  0.00    +0.276 A 
ATOM      6  N   UNL     1      -1.103   1.266  -3.051  0.00  0.00    -0.219 N 
ATOM      7  N   UNL     1      -0.925   0.601  -1.831  0.00  0.00    -0.294 N 
ATOM      8  O   UNL     1      -1.054   3.475  -3.651  0.00  0.00    -0.266 OA
ATOM      9  H   UNL     1      -0.963  -0.358  -1.695  0.00  0.00    +0.187 HD
BRANCH   6  10
ATOM     10  C   UNL     1      -1.368   0.667  -4.287  0.00  0.00    +0.067 A 
ATOM     11  C   UNL     1      -1.512   1.451  -5.424  0.00  0.00    +0.028 A 
ATOM     12  C   UNL     1      -1.773   0.856  -6.643  0.00  0.00    +0.002 A 
ATOM     13  C   UNL     1      -1.892  -0.519  -6.731  0.00  0.00    +0.000 A 
ATOM     14  C   UNL     1      -1.750  -1.303  -5.601  0.00  0.00    +0.002 A 
ATOM     15  C   UNL     1      -1.483  -0.714  -4.380  0.00  0.00    +0.028 A 
ENDBRANCH   6  10
ENDBRANCH   1   4
BRANCH   1  16
ATOM     16  C   UNL     1      -1.763   4.876  -0.765  0.00  0.00    +0.051 A 
ATOM     17  C   UNL     1      -1.916   6.133  -0.303  0.00  0.00    +0.039 A 
ATOM     18  N   UNL     1      -3.212   6.514  -0.508  0.00  0.00    -0.294 N 
ATOM     19  N   UNL     1      -3.889   5.451  -1.121  0.00  0.00    -0.219 N 
ATOM     20  C   UNL     1      -3.005   4.445  -1.287  0.00  0.00    +0.276 A 
ATOM     21  O   UNL     1      -3.236   3.361  -1.792  0.00  0.00    -0.266 OA
ATOM     22  C   UNL     1      -0.840   6.976   0.331  0.00  0.00    +0.065 C 
ATOM     23  H   UNL     1      -3.598   7.372  -0.270  0.00  0.00    +0.187 HD
BRANCH  19  24
ATOM     24  C   UNL     1      -5.235   5.436  -1.497  0.00  0.00    +0.067 A 
ATOM     25  C   UNL     1      -5.780   4.306  -2.093  0.00  0.00    +0.028 A 
ATOM     26  C   UNL     1      -7.110   4.295  -2.463  0.00  0.00    +0.002 A 
ATOM     27  C   UNL     1      -7.900   5.408  -2.240  0.00  0.00    +0.000 A 
ATOM     28  C   UNL     1      -7.362   6.535  -1.647  0.00  0.00    +0.002 A 
ATOM     29  C   UNL     1      -6.033   6.551  -1.270  0.00  0.00    +0.028 A 
ENDBRANCH  19  24
ENDBRANCH   1  16
BRANCH   1  30
ATOM     30  C   UNL     1       0.605   4.839  -1.435  0.00  0.00    -0.035 A 
ATOM     31  C   UNL     1       0.327   5.533  -2.598  0.00  0.00    +0.006 A 
ATOM     32  C   UNL     1       1.327   6.237  -3.240  0.00  0.00    +0.023 A 
ATOM     33  C   UNL     1       2.613   6.248  -2.716  0.00  0.00    +0.029 A 
ATOM     34  C   UNL     1       2.889   5.551  -1.546  0.00  0.00    +0.023 A 
ATOM     35  C   UNL     1       1.883   4.853  -0.906  0.00  0.00    +0.006 A 
BRANCH  33  36
ATOM     36  N   UNL     1       3.626   6.959  -3.362  0.00  0.00    -0.336 N 
ATOM     37  C   UNL     1       3.333   7.694  -4.596  0.00  0.00    +0.129 C 
ATOM     38  C   UNL     1       4.982   6.970  -2.808  0.00  0.00    +0.129 C 
ENDBRANCH  33  36
ENDBRANCH   1  30
TORSDOF 6
