REMARK  Name = ZINC19074820
REMARK  5 active torsions:
REMARK  status: ('A' for Active; 'I' for Inactive)
REMARK    1  A    between atoms: C_1  and  O_2
REMARK    2  A    between atoms: O_2  and  C_3
REMARK    3  A    between atoms: C_6  and  C_9
REMARK    4  A    between atoms: C_10  and  N_27
REMARK    5  A    between atoms: C_14  and  C_18
REMARK                            x       y       z     vdW  Elec       q    Type
REMARK                         _______ _______ _______ _____ _____    ______ ____
ROOT
ATOM      1  C   UNL     1      -2.408   0.972  -0.083  0.00  0.00    +0.043 A 
ATOM      2  C   UNL     1      -1.249   1.641   0.151  0.00  0.00    +0.049 A 
ATOM      3  C   UNL     1      -1.283   3.092   0.244  0.00  0.00    +0.029 A 
ATOM      4  C   UNL     1      -0.211   3.992   0.472  0.00  0.00    +0.014 A 
ATOM      5  C   UNL     1      -0.464   5.330   0.515  0.00  0.00    +0.029 A 
ATOM      6  C   UNL     1      -1.763   5.812   0.331  0.00  0.00    +0.072 A 
ATOM      7  N   UNL     1      -2.764   4.967   0.112  0.00  0.00    -0.239 NA
ATOM      8  C   UNL     1      -2.562   3.671   0.063  0.00  0.00    +0.111 A 
ATOM      9  S   UNL     1      -3.622   2.271  -0.201  0.00  0.00    -0.067 S 
ENDROOT
BRANCH   6  10
ATOM     10  C   UNL     1      -2.024   7.270   0.380  0.00  0.00    +0.004 A 
ATOM     11  C   UNL     1      -0.963   8.166   0.505  0.00  0.00    +0.014 A 
ATOM     12  C   UNL     1      -1.207   9.522   0.550  0.00  0.00    +0.050 A 
ATOM     13  C   UNL     1      -2.506  10.001   0.470  0.00  0.00    +0.166 A 
ATOM     14  C   UNL     1      -3.571   9.110   0.345  0.00  0.00    +0.167 A 
ATOM     15  C   UNL     1      -3.331   7.749   0.294  0.00  0.00    +0.059 A 
ATOM     16  O   UNL     1      -4.733   9.824   0.287  0.00  0.00    -0.453 OA
ATOM     17  C   UNL     1      -4.340  11.172  -0.034  0.00  0.00    +0.466 C 
ATOM     18  O   UNL     1      -3.003  11.272   0.491  0.00  0.00    -0.453 OA
ENDBRANCH   6  10
BRANCH   1  22
ATOM     19  C   UNL     1      -2.999  -3.219  -0.445  0.00  0.00    +0.120 A 
ATOM     20  C   UNL     1      -3.844  -2.468   0.361  0.00  0.00    +0.046 A 
ATOM     21  C   UNL     1      -3.656  -1.108   0.481  0.00  0.00    +0.012 A 
ATOM     22  C   UNL     1      -2.613  -0.485  -0.208  0.00  0.00    -0.009 A 
ATOM     23  C   UNL     1      -1.768  -1.244  -1.022  0.00  0.00    +0.012 A 
ATOM     24  C   UNL     1      -1.961  -2.604  -1.133  0.00  0.00    +0.046 A 
BRANCH  19  26
ATOM     25  C   UNL     1      -2.283  -5.272  -1.407  0.00  0.00    +0.277 C 
ATOM     26  O   UNL     1      -3.189  -4.560  -0.562  0.00  0.00    -0.495 OA
ENDBRANCH  19  26
ENDBRANCH   1  22
BRANCH   2  27
ATOM     27  N   UNL     1      -0.041   0.944   0.307  0.00  0.00    -0.357 N 
ATOM     28  H   UNL     1      -0.041  -0.025   0.339  0.00  0.00    +0.142 HD
ATOM     29  H   UNL     1       0.794   1.432   0.379  0.00  0.00    +0.142 HD
ENDBRANCH   2  27
TORSDOF 4
