REMARK  Name = ZINC13500996
REMARK  13 active torsions:
REMARK  status: ('A' for Active; 'I' for Inactive)
REMARK    1  A    between atoms: C_1  and  C_2
REMARK    2  A    between atoms: C_2  and  C_3
REMARK    3  A    between atoms: C_3  and  C_4
REMARK    4  A    between atoms: C_4  and  C_6
REMARK    5  A    between atoms: C_4  and  N_75
REMARK    6  A    between atoms: N_10  and  C_11
REMARK    7  A    between atoms: C_16  and  C_17
REMARK    8  A    between atoms: C_16  and  N_75
REMARK    9  A    between atoms: C_17  and  C_18
REMARK   10  A    between atoms: C_23  and  C_24
REMARK   11  A    between atoms: C_25  and  C_26
REMARK   12  A    between atoms: C_25  and  N_75
REMARK   13  A    between atoms: C_32  and  C_38
REMARK                            x       y       z     vdW  Elec       q    Type
REMARK                         _______ _______ _______ _____ _____    ______ ____
ROOT
ATOM      1  N   UNL     1       1.296   1.935   2.805  0.00  0.00    +0.389 N 
ATOM      2  H   UNL     1       0.842   2.837   2.992  0.00  0.00    -0.080 HD
ENDROOT
BRANCH   1   3
ATOM      3  C   UNL     1       0.261   0.938   2.461  0.00  0.00    +0.003 C 
BRANCH   3   4
ATOM      4  C   UNL     1      -0.876   1.063   3.441  0.00  0.00    +0.138 A 
ATOM      5  N   UNL     1      -1.415   2.176   3.876  0.00  0.00    -0.115 NA
ATOM      6  N   UNL     1      -2.358   1.866   4.698  0.00  0.00    -0.023 NA
ATOM      7  N   UNL     1      -2.434   0.585   4.799  0.00  0.00    -0.044 NA
ATOM      8  N   UNL     1      -1.540   0.054   4.034  0.00  0.00    -0.228 N 
BRANCH   8   9
ATOM      9  C   UNL     1      -1.293  -1.378   3.850  0.00  0.00    +0.111 C 
ATOM     10  C   UNL     1      -2.574  -2.075   3.348  0.00  0.00    +0.027 C 
ATOM     11  C   UNL     1      -2.563  -3.450   4.064  0.00  0.00    +0.002 C 
ATOM     12  C   UNL     1      -2.013  -3.099   5.469  0.00  0.00    +0.002 C 
ATOM     13  C   UNL     1      -0.936  -2.029   5.198  0.00  0.00    +0.027 C 
ENDBRANCH   8   9
ENDBRANCH   3   4
BRANCH   3  14
ATOM     14  C   UNL     1      -0.251   1.214   1.046  0.00  0.00    -0.008 C 
BRANCH  14  16
ATOM     15  C   UNL     1      -1.892   0.504  -0.700  0.00  0.00    +0.004 C 
ATOM     16  C   UNL     1      -1.303   0.168   0.671  0.00  0.00    -0.005 C 
ENDBRANCH  14  16
ENDBRANCH   3  14
ENDBRANCH   1   3
BRANCH   1  17
ATOM     17  C   UNL     1       2.028   1.507   4.015  0.00  0.00    -0.073 C 
BRANCH  17  18
ATOM     18  C   UNL     1       1.172   1.823   5.243  0.00  0.00    +0.017 C 
BRANCH  18  19
ATOM     19  C   UNL     1       1.953   1.512   6.494  0.00  0.00    -0.046 A 
ATOM     20  C   UNL     1       1.791   0.293   7.125  0.00  0.00    +0.004 A 
ATOM     21  C   UNL     1       2.511   0.006   8.270  0.00  0.00    +0.000 A 
ATOM     22  C   UNL     1       3.386   0.943   8.789  0.00  0.00    +0.000 A 
ATOM     23  C   UNL     1       3.544   2.164   8.161  0.00  0.00    +0.003 A 
ATOM     24  C   UNL     1       2.827   2.449   7.013  0.00  0.00    -0.047 A 
ATOM     25  C   UNL     1       2.999   3.780   6.329  0.00  0.00    +0.044 C 
ENDBRANCH  18  19
ENDBRANCH  17  18
ENDBRANCH   1  17
BRANCH   1  26
ATOM     26  C   UNL     1       2.237   2.097   1.677  0.00  0.00    -0.037 C 
BRANCH  26  27
ATOM     27  C   UNL     1       3.221   3.187   2.014  0.00  0.00    +0.001 A 
ATOM     28  C   UNL     1       4.433   2.867   2.532  0.00  0.00    +0.017 A 
ATOM     29  C   UNL     1       5.368   3.949   2.845  0.00  0.00    -0.001 A 
ATOM     30  C   UNL     1       6.634   3.681   3.376  0.00  0.00    +0.010 A 
ATOM     31  C   UNL     1       7.482   4.713   3.662  0.00  0.00    +0.001 A 
ATOM     32  C   UNL     1       7.097   6.027   3.430  0.00  0.00    +0.005 A 
ATOM     33  C   UNL     1       5.855   6.315   2.908  0.00  0.00    -0.026 A 
ATOM     34  C   UNL     1       4.975   5.280   2.609  0.00  0.00    +0.052 A 
ATOM     35  N   UNL     1       3.726   5.539   2.086  0.00  0.00    -0.322 N 
ATOM     36  H   UNL     1       3.457   6.457   1.924  0.00  0.00    +0.169 HD
ATOM     37  C   UNL     1       2.876   4.538   1.796  0.00  0.00    +0.251 A 
ATOM     38  O   UNL     1       1.780   4.805   1.335  0.00  0.00    -0.268 OA
ATOM     39  C   UNL     1       5.451   7.746   2.663  0.00  0.00    +0.046 C 
ENDBRANCH  26  27
ENDBRANCH   1  26
TORSDOF 10
