REMARK  Name = ZINC64228878
REMARK  6 active torsions:
REMARK  status: ('A' for Active; 'I' for Inactive)
REMARK    1  A    between atoms: C_1  and  C_2
REMARK    2  A    between atoms: C_2  and  C_3
REMARK    3  A    between atoms: C_3  and  C_4
REMARK    4  A    between atoms: N_13  and  C_14
REMARK    5  A    between atoms: C_17  and  C_20
REMARK    6  A    between atoms: N_22  and  C_23
REMARK                            x       y       z     vdW  Elec       q    Type
REMARK                         _______ _______ _______ _____ _____    ______ ____
ROOT
ATOM      1  C   UNL     1       0.013  -6.535  -1.516  0.00  0.00    -0.009 C 
ATOM      2  C   UNL     1       0.268  -6.197  -0.051  0.00  0.00    +0.005 C 
ATOM      3  C   UNL     1       0.135  -4.707   0.149  0.00  0.00    +0.019 C 
ATOM      4  C   UNL     1       1.506  -4.027  -0.017  0.00  0.00    +0.109 C 
ATOM      5  N   UNL     1       2.281  -4.602  -1.134  0.00  0.00    -0.286 N 
ATOM      6  C   UNL     1       1.684  -4.936  -2.408  0.00  0.00    +0.109 C 
ATOM      7  C   UNL     1       1.194  -6.405  -2.382  0.00  0.00    +0.022 C 
ATOM      8  C   UNL     1       3.598  -4.824  -0.959  0.00  0.00    +0.302 C 
ATOM      9  O   UNL     1       4.145  -4.465   0.066  0.00  0.00    -0.253 OA
ATOM     10  N   UNL     1       4.310  -5.445  -1.921  0.00  0.00    -0.296 N 
ATOM     11  H   UNL     1       3.892  -5.667  -2.767  0.00  0.00    +0.151 HD
ENDROOT
BRANCH  10  12
ATOM     12  C   UNL     1       5.716  -5.784  -1.688  0.00  0.00    +0.074 C 
ATOM     13  C   UNL     1       6.595  -4.576  -2.021  0.00  0.00    +0.023 C 
ATOM     14  C   UNL     1       6.399  -4.194  -3.490  0.00  0.00    +0.014 C 
ATOM     15  C   UNL     1       6.794  -5.373  -4.381  0.00  0.00    +0.075 C 
ATOM     16  C   UNL     1       5.916  -6.580  -4.047  0.00  0.00    +0.014 C 
ATOM     17  C   UNL     1       6.111  -6.963  -2.579  0.00  0.00    +0.023 C 
BRANCH  15  18
ATOM     18  C   UNL     1       6.601  -4.996  -5.827  0.00  0.00    +0.216 C 
ATOM     19  O   UNL     1       6.189  -3.893  -6.117  0.00  0.00    -0.276 OA
ATOM     20  N   UNL     1       6.887  -5.885  -6.799  0.00  0.00    -0.318 N 
ATOM     21  C   UNL     1       6.700  -5.519  -8.205  0.00  0.00    +0.128 C 
ATOM     22  H   UNL     1       7.217  -6.767  -6.567  0.00  0.00    +0.148 HD
ENDBRANCH  15  18
ENDBRANCH  10  12
BRANCH   1  23
ATOM     23  C   UNL     1      -0.496  -7.975  -1.601  0.00  0.00    +0.003 C 
BRANCH  23  25
ATOM     24  C   UNL     1      -1.497  -9.700  -3.106  0.00  0.00    +0.004 C 
ATOM     25  C   UNL     1      -0.988  -8.260  -3.021  0.00  0.00    -0.003 C 
ENDBRANCH  23  25
ENDBRANCH   1  23
TORSDOF 4
