REMARK  Name = ZINC29850515
REMARK  11 active torsions:
REMARK  status: ('A' for Active; 'I' for Inactive)
REMARK    1  A    between atoms: C_1  and  N_2
REMARK    2  A    between atoms: C_3  and  C_29
REMARK    3  A    between atoms: C_6  and  S_7
REMARK    4  A    between atoms: S_7  and  C_8
REMARK    5  A    between atoms: C_8  and  C_9
REMARK    6  A    between atoms: N_11  and  C_12
REMARK    7  A    between atoms: C_12  and  C_13
REMARK    8  A    between atoms: C_13  and  C_15
REMARK    9  A    between atoms: C_13  and  N_23
REMARK   10  A    between atoms: C_18  and  O_21
REMARK   11  A    between atoms: O_21  and  C_22
REMARK                            x       y       z     vdW  Elec       q    Type
REMARK                         _______ _______ _______ _____ _____    ______ ____
ROOT
ATOM      1  C   UNL     1      -0.389  -2.399   2.821  0.00  0.00    +0.223 C 
ATOM      2  O   UNL     1      -0.525  -1.696   3.800  0.00  0.00    -0.275 OA
ATOM      3  N   UNL     1      -0.242  -1.839   1.605  0.00  0.00    -0.316 N 
ATOM      4  H   UNL     1      -0.119  -2.476   0.717  0.00  0.00    +0.149 HD
ENDROOT
BRANCH   1   5
ATOM      5  C   UNL     1      -0.385  -3.899   2.965  0.00  0.00    +0.173 C 
BRANCH   5   6
ATOM      6  S   UNL     1      -0.601  -4.339   4.708  0.00  0.00    -0.077 S 
BRANCH   6  12
ATOM      7  C   UNL     1      -0.864  -6.668   7.040  0.00  0.00    +0.153 C 
ATOM      8  N   UNL     1      -0.677  -6.982   5.621  0.00  0.00    -0.305 N 
ATOM      9  C   UNL     1      -0.586  -8.231   5.051  0.00  0.00    +0.167 A 
ATOM     10  N   UNL     1      -0.423  -8.055   3.760  0.00  0.00    -0.128 NA
ATOM     11  N   UNL     1      -0.413  -6.799   3.487  0.00  0.00    -0.122 NA
ATOM     12  C   UNL     1      -0.559  -6.096   4.588  0.00  0.00    +0.192 A 
BRANCH   9  13
ATOM     13  C   UNL     1      -0.657  -9.527   5.759  0.00  0.00    +0.054 A 
ATOM     14  C   UNL     1      -1.625  -9.736   6.742  0.00  0.00    +0.014 A 
ATOM     15  C   UNL     1      -1.686 -10.948   7.399  0.00  0.00    +0.001 A 
ATOM     16  C   UNL     1      -0.791 -11.956   7.085  0.00  0.00    +0.003 A 
ATOM     17  C   UNL     1       0.171 -11.757   6.112  0.00  0.00    +0.039 A 
ATOM     18  C   UNL     1       0.241 -10.550   5.442  0.00  0.00    +0.134 A 
ATOM     19  F   UNL     1       1.177 -10.358   4.487  0.00  0.00    -0.205 F 
ENDBRANCH   9  13
ENDBRANCH   6  12
ENDBRANCH   5   6
ENDBRANCH   1   5
BRANCH   3  20
ATOM     20  C   UNL     1      -0.246  -0.381   1.464  0.00  0.00    +0.093 C 
BRANCH  20  21
ATOM     21  C   UNL     1       0.038  -0.007   0.008  0.00  0.00    -0.020 C 
BRANCH  21  22
ATOM     22  N   UNL     1      -0.961  -0.641  -0.864  0.00  0.00    +0.385 N 
ATOM     23  C   UNL     1      -1.161   0.142  -2.090  0.00  0.00    -0.078 C 
ATOM     24  C   UNL     1      -2.094  -0.618  -3.035  0.00  0.00    -0.019 C 
ATOM     25  C   UNL     1      -3.435  -0.859  -2.336  0.00  0.00    -0.004 C 
ATOM     26  C   UNL     1      -3.193  -1.635  -1.038  0.00  0.00    -0.019 C 
ATOM     27  C   UNL     1      -2.228  -0.845  -0.151  0.00  0.00    -0.078 C 
ATOM     28  H   UNL     1      -0.578  -1.629  -1.156  0.00  0.00    -0.081 HD
ENDBRANCH  21  22
BRANCH  21  29
ATOM     29  C   UNL     1      -0.035   1.490  -0.150  0.00  0.00    -0.059 A 
ATOM     30  C   UNL     1      -1.253   2.136  -0.050  0.00  0.00    +0.005 A 
ATOM     31  C   UNL     1      -1.321   3.509  -0.189  0.00  0.00    +0.046 A 
ATOM     32  C   UNL     1      -0.168   4.238  -0.441  0.00  0.00    +0.120 A 
ATOM     33  C   UNL     1       1.052   3.586  -0.547  0.00  0.00    +0.046 A 
ATOM     34  C   UNL     1       1.116   2.214  -0.401  0.00  0.00    +0.005 A 
BRANCH  32  35
ATOM     35  O   UNL     1      -0.233   5.587  -0.584  0.00  0.00    -0.495 OA
ATOM     36  C   UNL     1      -1.523   6.191  -0.463  0.00  0.00    +0.277 C 
ENDBRANCH  32  35
ENDBRANCH  21  29
ENDBRANCH  20  21
ENDBRANCH   3  20
TORSDOF 9
