REMARK  Name = ZINC15803496
REMARK  9 active torsions:
REMARK  status: ('A' for Active; 'I' for Inactive)
REMARK    1  A    between atoms: C_1  and  C_2
REMARK    2  A    between atoms: C_2  and  C_4
REMARK    3  A    between atoms: C_2  and  O_13
REMARK    4  A    between atoms: N_9  and  C_10
REMARK    5  A    between atoms: C_10  and  C_11
REMARK    6  A    between atoms: C_10  and  C_12
REMARK    7  A    between atoms: O_13  and  C_14
REMARK    8  A    between atoms: C_14  and  C_16
REMARK    9  A    between atoms: C_18  and  C_26
REMARK                            x       y       z     vdW  Elec       q    Type
REMARK                         _______ _______ _______ _____ _____    ______ ____
ROOT
ATOM      1  C   UNL     1       2.760  -1.127  -2.263  0.00  0.00    +0.070 A 
ATOM      2  C   UNL     1       2.117  -1.487  -3.439  0.00  0.00    +0.044 A 
ATOM      3  C   UNL     1       2.877  -1.933  -4.531  0.00  0.00    +0.072 A 
ATOM      4  N   UNL     1       4.190  -2.023  -4.484  0.00  0.00    -0.247 NA
ATOM      5  C   UNL     1       4.889  -1.698  -3.396  0.00  0.00    +0.072 A 
ATOM      6  C   UNL     1       4.220  -1.230  -2.237  0.00  0.00    +0.014 A 
ATOM      7  C   UNL     1       4.957  -0.885  -1.099  0.00  0.00    +0.011 A 
ATOM      8  C   UNL     1       6.316  -0.996  -1.118  0.00  0.00    +0.001 A 
ATOM      9  C   UNL     1       6.980  -1.450  -2.256  0.00  0.00    +0.002 A 
ATOM     10  C   UNL     1       6.292  -1.805  -3.375  0.00  0.00    +0.028 A 
ENDROOT
BRANCH   3  11
ATOM     11  C   UNL     1       2.178  -2.315  -5.781  0.00  0.00    +0.001 A 
ATOM     12  C   UNL     1       0.789  -2.224  -5.861  0.00  0.00    +0.013 A 
ATOM     13  C   UNL     1       0.143  -2.580  -7.027  0.00  0.00    +0.039 A 
ATOM     14  C   UNL     1       0.872  -3.027  -8.117  0.00  0.00    +0.123 A 
ATOM     15  C   UNL     1       2.253  -3.120  -8.042  0.00  0.00    +0.039 A 
ATOM     16  C   UNL     1       2.908  -2.761  -6.882  0.00  0.00    +0.013 A 
ATOM     17  F   UNL     1       0.235  -3.375  -9.256  0.00  0.00    -0.205 F 
ENDBRANCH   3  11
BRANCH   1  18
ATOM     18  C   UNL     1       2.002  -0.651  -1.087  0.00  0.00    +0.341 C 
ATOM     19  O   UNL     1       2.578  -0.440  -0.038  0.00  0.00    -0.245 OA
BRANCH  18  20
ATOM     20  O   UNL     1       0.673  -0.452  -1.177  0.00  0.00    -0.449 OA
BRANCH  20  22
ATOM     21  C   UNL     1      -0.003   1.538   0.016  0.00  0.00    +0.062 C 
ATOM     22  C   UNL     1       0.004   0.008  -0.002  0.00  0.00    +0.259 C 
BRANCH  22  23
ATOM     23  C   UNL     1      -1.415  -0.500   0.001  0.00  0.00    +0.261 C 
ATOM     24  O   UNL     1      -1.841  -1.112  -0.956  0.00  0.00    -0.271 OA
ATOM     25  N   UNL     1      -2.209  -0.276   1.066  0.00  0.00    -0.237 N 
ATOM     26  C   UNL     1      -3.478  -0.730   1.068  0.00  0.00    +0.306 C 
ATOM     27  O   UNL     1      -3.905  -1.343   0.109  0.00  0.00    -0.252 OA
ATOM     28  N   UNL     1      -4.273  -0.505   2.133  0.00  0.00    -0.297 N 
ATOM     29  H   UNL     1      -1.868   0.213   1.831  0.00  0.00    +0.159 HD
ATOM     30  H   UNL     1      -3.932  -0.016   2.898  0.00  0.00    +0.151 HD
BRANCH  28  31
ATOM     31  C   UNL     1      -5.652  -1.000   2.135  0.00  0.00    +0.068 C 
ATOM     32  C   UNL     1      -5.672  -2.453   2.612  0.00  0.00    +0.027 C 
ATOM     33  C   UNL     1      -6.500  -0.142   3.077  0.00  0.00    +0.027 C 
ENDBRANCH  28  31
ENDBRANCH  22  23
ENDBRANCH  20  22
ENDBRANCH  18  20
ENDBRANCH   1  18
TORSDOF 6
