REMARK  Name = ZINC22013645
REMARK  5 active torsions:
REMARK  status: ('A' for Active; 'I' for Inactive)
REMARK    1  A    between atoms: C_3  and  C_28
REMARK    2  A    between atoms: C_8  and  S_10
REMARK    3  A    between atoms: S_10  and  S_11
REMARK    4  A    between atoms: S_11  and  C_12
REMARK    5  A    between atoms: C_15  and  C_21
REMARK                            x       y       z     vdW  Elec       q    Type
REMARK                         _______ _______ _______ _____ _____    ______ ____
ROOT
ATOM      1  S   UNL     1      -3.593   6.432   0.069  0.00  0.00    -0.023 S 
ENDROOT
BRANCH   1   9
ATOM      2  C   UNL     1       1.188   1.770   0.000  0.00  0.00    +0.002 A 
ATOM      3  C   UNL     1      -0.013   1.076   0.008  0.00  0.00    +0.008 A 
ATOM      4  C   UNL     1      -1.218   1.729   0.017  0.00  0.00    +0.006 A 
ATOM      5  C   UNL     1      -1.273   3.142   0.030  0.00  0.00    +0.085 A 
ATOM      6  C   UNL     1      -0.030   3.816   0.022  0.00  0.00    +0.040 A 
ATOM      7  C   UNL     1       1.171   3.154   0.007  0.00  0.00    +0.017 A 
ATOM      8  S   UNL     1      -0.523   5.523   0.036  0.00  0.00    -0.060 S 
ATOM      9  C   UNL     1      -2.289   5.247   0.051  0.00  0.00    +0.146 A 
ATOM     10  N   UNL     1      -2.368   3.933   0.045  0.00  0.00    -0.232 NA
BRANCH   4  11
ATOM     11  C   UNL     1      -2.497   0.933   0.020  0.00  0.00    +0.133 C 
ATOM     12  C   UNL     1      -3.005   0.777  -1.416  0.00  0.00    -0.046 C 
ATOM     13  N   UNL     1      -4.210  -0.064  -1.416  0.00  0.00    +0.382 N 
ATOM     14  C   UNL     1      -3.923  -1.385  -0.836  0.00  0.00    -0.054 C 
ATOM     15  C   UNL     1      -3.406  -1.207   0.594  0.00  0.00    +0.141 C 
ATOM     16  O   UNL     1      -2.253  -0.361   0.577  0.00  0.00    -0.376 OA
ATOM     17  H   UNL     1      -4.996   0.422  -0.820  0.00  0.00    -0.086 HD
ATOM     18  H   UNL     1      -4.564  -0.199  -2.449  0.00  0.00    -0.086 HD
ENDBRANCH   4  11
ENDBRANCH   1   9
BRANCH   1  19
ATOM     19  S   UNL     1      -3.840   6.662   2.101  0.00  0.00    -0.023 S 
BRANCH  19  20
ATOM     20  C   UNL     1      -2.603   7.875   2.424  0.00  0.00    +0.146 A 
ATOM     21  N   UNL     1      -2.279   8.439   3.568  0.00  0.00    -0.232 NA
ATOM     22  C   UNL     1      -1.296   9.360   3.668  0.00  0.00    +0.085 A 
ATOM     23  C   UNL     1      -0.847  10.034   4.828  0.00  0.00    +0.006 A 
ATOM     24  C   UNL     1       0.167  10.953   4.755  0.00  0.00    +0.008 A 
ATOM     25  C   UNL     1       0.787  11.254   3.551  0.00  0.00    +0.002 A 
ATOM     26  C   UNL     1       0.373  10.614   2.397  0.00  0.00    +0.017 A 
ATOM     27  C   UNL     1      -0.641   9.692   2.461  0.00  0.00    +0.040 A 
ATOM     28  S   UNL     1      -1.475   8.658   1.280  0.00  0.00    -0.060 S 
BRANCH  23  29
ATOM     29  C   UNL     1      -1.491   9.739   6.158  0.00  0.00    +0.133 C 
ATOM     30  C   UNL     1      -0.825   8.513   6.788  0.00  0.00    -0.046 C 
ATOM     31  N   UNL     1      -1.404   8.276   8.118  0.00  0.00    +0.382 N 
ATOM     32  C   UNL     1      -1.220   9.451   8.983  0.00  0.00    -0.054 C 
ATOM     33  C   UNL     1      -1.882  10.667   8.331  0.00  0.00    +0.141 C 
ATOM     34  O   UNL     1      -1.329  10.863   7.027  0.00  0.00    -0.376 OA
ATOM     35  H   UNL     1      -2.481   8.075   8.018  0.00  0.00    -0.086 HD
ATOM     36  H   UNL     1      -0.911   7.411   8.584  0.00  0.00    -0.086 HD
ENDBRANCH  23  29
ENDBRANCH  19  20
ENDBRANCH   1  19
TORSDOF 5
