REMARK  Name = ZINC12659255
REMARK  6 active torsions:
REMARK  status: ('A' for Active; 'I' for Inactive)
REMARK    1  A    between atoms: C_1  and  C_2
REMARK    2  A    between atoms: C_5  and  O_35
REMARK    3  A    between atoms: C_18  and  C_34
REMARK    4  A    between atoms: C_23  and  N_25
REMARK    5  A    between atoms: C_26  and  C_28
REMARK    6  A    between atoms: C_28  and  N_72
REMARK                            x       y       z     vdW  Elec       q    Type
REMARK                         _______ _______ _______ _____ _____    ______ ____
ROOT
ATOM      1  C   UNL     1       5.328  -1.183   3.138  0.00  0.00    +0.012 C 
ATOM      2  C   UNL     1       4.998  -1.853   1.803  0.00  0.00    -0.026 C 
ATOM      3  C   UNL     1       4.841  -3.355   2.051  0.00  0.00    +0.010 C 
ATOM      4  C   UNL     1       6.131  -3.905   2.663  0.00  0.00    +0.032 C 
ATOM      5  C   UNL     1       7.298  -3.661   1.705  0.00  0.00    +0.115 C 
ATOM      6  C   UNL     1       7.452  -2.158   1.460  0.00  0.00    +0.035 C 
ATOM      7  C   UNL     1       6.161  -1.609   0.849  0.00  0.00    -0.002 C 
ATOM      8  C   UNL     1       6.306  -0.105   0.610  0.00  0.00    +0.004 C 
ATOM      9  C   UNL     1       5.043   0.416  -0.064  0.00  0.00    +0.004 C 
ATOM     10  C   UNL     1       3.808   0.166   0.785  0.00  0.00    -0.004 C 
ATOM     11  C   UNL     1       3.708  -1.257   1.301  0.00  0.00    -0.001 C 
ATOM     12  C   UNL     1       3.021  -2.165   0.282  0.00  0.00    +0.005 C 
ATOM     13  C   UNL     1       1.515  -1.813   0.224  0.00  0.00    +0.009 C 
ATOM     14  C   UNL     1       1.382  -0.344   0.588  0.00  0.00    -0.011 C 
ATOM     15  C   UNL     1       2.557   0.445  -0.043  0.00  0.00    +0.000 C 
ATOM     16  C   UNL     1       2.088   1.901   0.014  0.00  0.00    +0.006 C 
ATOM     17  C   UNL     1       0.543   1.845  -0.021  0.00  0.00    +0.023 C 
ATOM     18  C   UNL     1       0.158   0.344  -0.037  0.00  0.00    +0.079 C 
ATOM     19  C   UNL     1       1.374  -0.169   2.108  0.00  0.00    +0.013 C 
ENDROOT
BRANCH  18  20
ATOM     20  N   UNL     1      -1.040   0.110   0.773  0.00  0.00    -0.313 N 
ATOM     21  C   UNL     1      -2.263   0.254   0.225  0.00  0.00    +0.197 C 
ATOM     22  O   UNL     1      -2.372   0.578  -0.939  0.00  0.00    -0.278 OA
ATOM     23  H   UNL     1      -0.954  -0.149   1.704  0.00  0.00    +0.149 HD
BRANCH  21  24
ATOM     24  C   UNL     1      -3.495   0.013   1.058  0.00  0.00    +0.019 C 
BRANCH  24  30
ATOM     25  C   UNL     1      -4.812   1.647  -0.151  0.00  0.00    -0.050 C 
ATOM     26  C   UNL     1      -6.037   1.821  -1.053  0.00  0.00    +0.141 C 
ATOM     27  O   UNL     1      -7.199   1.348  -0.367  0.00  0.00    -0.383 OA
ATOM     28  C   UNL     1      -7.118  -0.025   0.025  0.00  0.00    +0.141 C 
ATOM     29  C   UNL     1      -5.904  -0.218   0.938  0.00  0.00    -0.050 C 
ATOM     30  N   UNL     1      -4.692   0.220   0.214  0.00  0.00    +0.388 N 
ATOM     31  H   UNL     1      -4.596  -0.338  -0.643  0.00  0.00    -0.081 HD
ENDBRANCH  24  30
ENDBRANCH  21  24
ENDBRANCH  18  20
BRANCH   5  32
ATOM     32  O   UNL     1       8.501  -4.176   2.278  0.00  0.00    -0.392 OA
ATOM     33  H   UNL     1       8.475  -5.125   2.461  0.00  0.00    +0.210 HD
ENDBRANCH   5  32
TORSDOF 4
