REMARK  Name = ZINC39636624
REMARK  11 active torsions:
REMARK  status: ('A' for Active; 'I' for Inactive)
REMARK    1  A    between atoms: C_1  and  C_2
REMARK    2  A    between atoms: C_5  and  C_35
REMARK    3  A    between atoms: C_6  and  C_8
REMARK    4  A    between atoms: C_8  and  N_9
REMARK    5  A    between atoms: C_10  and  C_12
REMARK    6  A    between atoms: C_23  and  C_25
REMARK    7  A    between atoms: C_27  and  C_34
REMARK    8  A    between atoms: N_29  and  C_30
REMARK    9  A    between atoms: C_30  and  C_31
REMARK   10  A    between atoms: C_30  and  C_32
REMARK   11  A    between atoms: C_30  and  C_33
REMARK                            x       y       z     vdW  Elec       q    Type
REMARK                         _______ _______ _______ _____ _____    ______ ____
ROOT
ATOM      1  C   UNL     1       2.683  -4.521   4.540  0.00  0.00    +0.100 C 
ATOM      2  C   UNL     1       3.641  -3.314   4.651  0.00  0.00    +0.121 C 
ATOM      3  N   UNL     1       3.816  -3.107   6.108  0.00  0.00    -0.295 N 
ATOM      4  C   UNL     1       3.893  -4.478   6.668  0.00  0.00    +0.115 C 
ATOM      5  C   UNL     1       2.854  -5.284   5.864  0.00  0.00    -0.004 C 
ATOM      6  C   UNL     1       3.370  -6.695   5.598  0.00  0.00    -0.010 C 
ATOM      7  C   UNL     1       3.477  -7.454   6.923  0.00  0.00    -0.082 C 
ATOM      8  N   UNL     1       2.158  -7.507   7.566  0.00  0.00    +0.379 N 
ATOM      9  C   UNL     1       1.710  -6.150   7.903  0.00  0.00    -0.082 C 
ATOM     10  C   UNL     1       1.529  -5.337   6.618  0.00  0.00    -0.010 C 
ATOM     11  C   UNL     1       3.888  -1.938   6.774  0.00  0.00    +0.265 C 
ATOM     12  O   UNL     1       4.024  -1.933   7.983  0.00  0.00    -0.268 OA
ATOM     13  H   UNL     1       1.495  -7.932   6.935  0.00  0.00    -0.086 HD
ATOM     14  H   UNL     1       2.217  -8.059   8.408  0.00  0.00    -0.086 HD
ENDROOT
BRANCH  11  15
ATOM     15  C   UNL     1       3.802  -0.666   6.038  0.00  0.00    +0.124 A 
ATOM     16  C   UNL     1       3.860  -0.494   4.666  0.00  0.00    +0.057 A 
ATOM     17  C   UNL     1       3.735   0.881   4.460  0.00  0.00    +0.061 A 
ATOM     18  N   UNL     1       3.615   1.454   5.631  0.00  0.00    -0.175 NA
ATOM     19  N   UNL     1       3.644   0.581   6.573  0.00  0.00    -0.254 N 
ATOM     20  C   UNL     1       3.739   1.583   3.126  0.00  0.00    +0.067 C 
BRANCH  19  21
ATOM     21  C   UNL     1       3.530   0.879   8.003  0.00  0.00    +0.056 C 
ATOM     22  C   UNL     1       4.832   0.496   8.709  0.00  0.00    +0.036 C 
ATOM     23  C   UNL     1       3.266   2.374   8.193  0.00  0.00    +0.036 C 
ATOM     24  C   UNL     1       2.372   0.076   8.599  0.00  0.00    +0.036 C 
ENDBRANCH  19  21
ENDBRANCH  11  15
BRANCH   1  26
ATOM     25  N   UNL     1       0.329  -4.872   3.865  0.00  0.00    -0.311 N 
ATOM     26  C   UNL     1       1.260  -4.048   4.386  0.00  0.00    +0.218 C 
ATOM     27  O   UNL     1       0.953  -2.927   4.731  0.00  0.00    -0.275 OA
ATOM     28  H   UNL     1       0.588  -5.742   3.523  0.00  0.00    +0.149 HD
BRANCH  25  29
ATOM     29  C   UNL     1      -1.074  -4.454   3.817  0.00  0.00    +0.139 C 
BRANCH  29  35
ATOM     30  C   UNL     1      -3.446  -6.368  -0.153  0.00  0.00    +0.044 C 
ATOM     31  C   UNL     1      -3.038  -6.463   1.294  0.00  0.00    -0.050 A 
ATOM     32  C   UNL     1      -3.424  -7.554   2.051  0.00  0.00    +0.003 A 
ATOM     33  C   UNL     1      -3.050  -7.641   3.379  0.00  0.00    +0.004 A 
ATOM     34  C   UNL     1      -2.290  -6.638   3.950  0.00  0.00    -0.046 A 
ATOM     35  C   UNL     1      -1.903  -5.548   3.194  0.00  0.00    -0.027 A 
ATOM     36  C   UNL     1      -2.273  -5.463   1.864  0.00  0.00    +0.008 A 
ATOM     37  C   UNL     1      -1.883  -6.733   5.398  0.00  0.00    +0.044 C 
ENDBRANCH  29  35
ENDBRANCH  25  29
ENDBRANCH   1  26
TORSDOF 5
