REMARK  Name = ZINC02119157
REMARK  9 active torsions:
REMARK  status: ('A' for Active; 'I' for Inactive)
REMARK    1  A    between atoms: C_1  and  O_2
REMARK    2  A    between atoms: O_2  and  C_3
REMARK    3  A    between atoms: C_6  and  C_18
REMARK    4  A    between atoms: C_8  and  C_9
REMARK    5  A    between atoms: C_9  and  N_10
REMARK    6  A    between atoms: C_12  and  N_15
REMARK    7  A    between atoms: C_24  and  O_30
REMARK    8  A    between atoms: O_30  and  C_31
REMARK    9  A    between atoms: C_31  and  C_32
REMARK                            x       y       z     vdW  Elec       q    Type
REMARK                         _______ _______ _______ _____ _____    ______ ____
ROOT
ATOM      1  C   UNL     1      -1.120   7.122   1.857  0.00  0.00    +0.007 C 
ATOM      2  C   UNL     1      -2.253   7.648   1.008  0.00  0.00    +0.010 A 
ATOM      3  C   UNL     1      -2.152   8.778   0.266  0.00  0.00    -0.022 A 
ATOM      4  C   UNL     1      -3.417   8.959  -0.410  0.00  0.00    +0.006 A 
ATOM      5  C   UNL     1      -3.891   9.934  -1.293  0.00  0.00    +0.056 A 
ATOM      6  C   UNL     1      -5.191   9.782  -1.754  0.00  0.00    +0.122 A 
ATOM      7  C   UNL     1      -5.987   8.713  -1.360  0.00  0.00    +0.048 A 
ATOM      8  C   UNL     1      -5.534   7.739  -0.488  0.00  0.00    +0.030 A 
ATOM      9  C   UNL     1      -4.232   7.869  -0.010  0.00  0.00    +0.047 A 
ATOM     10  N   UNL     1      -3.493   7.099   0.845  0.00  0.00    -0.359 N 
ATOM     11  H   UNL     1      -3.803   6.286   1.275  0.00  0.00    +0.166 HD
ATOM     12  C   UNL     1      -0.911   9.633   0.217  0.00  0.00    +0.018 C 
ATOM     13  C   UNL     1      -0.012   9.234   1.395  0.00  0.00    -0.076 C 
ATOM     14  N   UNL     1       0.141   7.765   1.426  0.00  0.00    +0.387 N 
ATOM     15  H   UNL     1       0.386   7.430   0.487  0.00  0.00    -0.084 HD
ATOM     16  H   UNL     1       0.888   7.516   2.084  0.00  0.00    -0.084 HD
ENDROOT
BRANCH   1  20
ATOM     17  C   UNL     1      -0.787   2.892   1.346  0.00  0.00    +0.125 A 
ATOM     18  C   UNL     1      -0.253   3.751   0.396  0.00  0.00    +0.046 A 
ATOM     19  C   UNL     1      -0.367   5.117   0.561  0.00  0.00    +0.006 A 
ATOM     20  C   UNL     1      -1.003   5.630   1.677  0.00  0.00    -0.055 A 
ATOM     21  C   UNL     1      -1.531   4.776   2.627  0.00  0.00    +0.011 A 
ATOM     22  C   UNL     1      -1.425   3.409   2.465  0.00  0.00    +0.016 A 
BRANCH  17  24
ATOM     23  C   UNL     1      -0.013   1.086   0.008  0.00  0.00    +0.277 C 
ATOM     24  O   UNL     1      -0.682   1.547   1.184  0.00  0.00    -0.495 OA
ENDBRANCH  17  24
BRANCH  22  25
ATOM     25  C   UNL     1      -2.000   2.479   3.502  0.00  0.00    +0.182 C 
BRANCH  25  26
ATOM     26  N   UNL     1      -3.296   1.976   3.041  0.00  0.00    -0.265 N 
ATOM     27  C   UNL     1      -3.649   0.678   2.924  0.00  0.00    +0.141 A 
ATOM     28  C   UNL     1      -4.922   0.636   2.469  0.00  0.00    +0.163 A 
ATOM     29  C   UNL     1      -5.363   1.953   2.302  0.00  0.00    +0.167 A 
ATOM     30  N   UNL     1      -4.391   2.757   2.650  0.00  0.00    -0.177 NA
BRANCH  28  31
ATOM     31  N   UNL     1      -5.710  -0.588   2.197  0.00  0.00    +0.059 N 
ATOM     32  O   UNL     1      -5.214  -1.685   2.382  0.00  0.00    -0.126 OA
ATOM     33  O   UNL     1      -6.853  -0.497   1.787  0.00  0.00    -0.126 OA
ENDBRANCH  28  31
ENDBRANCH  25  26
ENDBRANCH  22  25
ENDBRANCH   1  20
BRANCH   6  34
ATOM     34  O   UNL     1      -5.699  10.703  -2.614  0.00  0.00    -0.487 OA
BRANCH  34  35
ATOM     35  C   UNL     1      -7.042  10.503  -3.061  0.00  0.00    +0.264 C 
BRANCH  35  36
ATOM     36  C   UNL     1      -7.431  11.615  -4.001  0.00  0.00    -0.010 A 
ATOM     37  C   UNL     1      -8.018  12.764  -3.506  0.00  0.00    +0.007 A 
ATOM     38  C   UNL     1      -8.370  13.786  -4.368  0.00  0.00    +0.000 A 
ATOM     39  C   UNL     1      -8.144  13.654  -5.725  0.00  0.00    +0.000 A 
ATOM     40  C   UNL     1      -7.561  12.503  -6.220  0.00  0.00    +0.000 A 
ATOM     41  C   UNL     1      -7.205  11.483  -5.358  0.00  0.00    +0.007 A 
ENDBRANCH  35  36
ENDBRANCH  34  35
ENDBRANCH   6  34
TORSDOF 8
