REMARK  Name = ZINC02520982
REMARK  3 active torsions:
REMARK  status: ('A' for Active; 'I' for Inactive)
REMARK    1  A    between atoms: C_5  and  C_7
REMARK    2  A    between atoms: C_9  and  C_26
REMARK    3  A    between atoms: C_10  and  N_25
REMARK                            x       y       z     vdW  Elec       q    Type
REMARK                         _______ _______ _______ _____ _____    ______ ____
ROOT
ATOM      1  C   UNL     1       1.317  -2.608  -0.229  0.00  0.00    +0.099 C 
ATOM      2  C   UNL     1       0.634  -2.849   1.085  0.00  0.00    +0.077 C 
ATOM      3  C   UNL     1      -0.718  -2.939   1.167  0.00  0.00    +0.109 C 
ATOM      4  N   UNL     1      -1.489  -2.816   0.031  0.00  0.00    -0.229 N 
ATOM      5  C   UNL     1      -0.934  -3.000  -1.210  0.00  0.00    +0.027 C 
ATOM      6  C   UNL     1       0.400  -2.918  -1.385  0.00  0.00    +0.025 C 
ATOM      7  C   UNL     1       0.977  -3.123  -2.651  0.00  0.00    +0.162 C 
ATOM      8  O   UNL     1       2.183  -3.036  -2.778  0.00  0.00    -0.292 OA
ATOM      9  C   UNL     1       0.131  -3.446  -3.852  0.00  0.00    +0.080 C 
ATOM     10  C   UNL     1      -1.136  -4.173  -3.388  0.00  0.00    +0.014 C 
ATOM     11  C   UNL     1      -1.854  -3.290  -2.370  0.00  0.00    +0.052 C 
ATOM     12  C   UNL     1      -2.838  -2.503   0.144  0.00  0.00    +0.223 A 
ATOM     13  N   UNL     1      -3.680  -2.236  -0.876  0.00  0.00    -0.246 N 
ATOM     14  H   UNL     1      -3.462  -2.226  -1.822  0.00  0.00    +0.192 HD
ATOM     15  N   UNL     1      -4.932  -1.978  -0.297  0.00  0.00    -0.160 NA
ATOM     16  C   UNL     1      -4.787  -2.098   0.996  0.00  0.00    +0.246 A 
ATOM     17  N   UNL     1      -3.522  -2.421   1.264  0.00  0.00    -0.201 NA
ENDROOT
BRANCH   1  22
ATOM     18  C   UNL     1       1.177   1.164  -0.321  0.00  0.00    +0.000 A 
ATOM     19  C   UNL     1       2.514   1.487  -0.454  0.00  0.00    +0.001 A 
ATOM     20  C   UNL     1       3.465   0.486  -0.515  0.00  0.00    +0.020 A 
ATOM     21  C   UNL     1       3.078  -0.840  -0.442  0.00  0.00    +0.045 A 
ATOM     22  C   UNL     1       1.740  -1.163  -0.308  0.00  0.00    -0.016 A 
ATOM     23  C   UNL     1       0.790  -0.161  -0.248  0.00  0.00    +0.006 A 
ATOM     24 CL   UNL     1       4.272  -2.099  -0.518  0.00  0.00    -0.083 Cl
ENDBRANCH   1  22
BRANCH   3  25
ATOM     25  N   UNL     1      -1.319  -3.154   2.384  0.00  0.00    -0.345 N 
ATOM     26  H   UNL     1      -0.815  -3.026   3.203  0.00  0.00    +0.144 HD
ATOM     27  H   UNL     1      -2.247  -3.434   2.424  0.00  0.00    +0.144 HD
ENDBRANCH   3  25
BRANCH   2  28
ATOM     28  C   UNL     1       1.422  -2.987   2.272  0.00  0.00    +0.099 C 
ATOM     29  N   UNL     1       2.047  -3.097   3.215  0.00  0.00    -0.191 NA
ENDBRANCH   2  28
TORSDOF 3
