REMARK  Name = ZINC24091294
REMARK  6 active torsions:
REMARK  status: ('A' for Active; 'I' for Inactive)
REMARK    1  A    between atoms: C_4  and  C_7
REMARK    2  A    between atoms: C_12  and  C_19
REMARK    3  A    between atoms: C_19  and  O_21
REMARK    4  A    between atoms: O_21  and  C_22
REMARK    5  A    between atoms: C_22  and  C_23
REMARK    6  A    between atoms: N_25  and  C_26
REMARK                            x       y       z     vdW  Elec       q    Type
REMARK                         _______ _______ _______ _____ _____    ______ ____
ROOT
ATOM      1  C   UNL     1      -0.511  10.259  -3.725  0.00  0.00    +0.340 C 
ATOM      2  O   UNL     1      -0.139   9.720  -4.748  0.00  0.00    -0.245 OA
ENDROOT
BRANCH   1   7
ATOM      3  C   UNL     1      -0.059   5.351   0.036  0.00  0.00    +0.211 C 
ATOM      4  C   UNL     1      -0.323   5.864  -1.380  0.00  0.00    +0.085 C 
ATOM      5  C   UNL     1      -0.599   7.345  -1.357  0.00  0.00    -0.029 A 
ATOM      6  C   UNL     1      -0.433   8.091  -2.506  0.00  0.00    +0.019 A 
ATOM      7  C   UNL     1      -0.691   9.462  -2.492  0.00  0.00    +0.059 A 
ATOM      8  C   UNL     1      -1.118  10.083  -1.317  0.00  0.00    +0.016 A 
ATOM      9  C   UNL     1      -1.284   9.339  -0.168  0.00  0.00    +0.016 A 
ATOM     10  C   UNL     1      -1.024   7.970  -0.184  0.00  0.00    +0.062 A 
ATOM     11  C   UNL     1      -1.196   7.162   1.049  0.00  0.00    +0.340 C 
ATOM     12  O   UNL     1      -1.395   7.686   2.127  0.00  0.00    -0.245 OA
ATOM     13  O   UNL     1      -1.120   5.814   0.921  0.00  0.00    -0.453 OA
BRANCH   3  17
ATOM     14  C   UNL     1       0.020   1.080   0.014  0.00  0.00    +0.000 A 
ATOM     15  C   UNL     1      -1.190   1.749   0.017  0.00  0.00    +0.000 A 
ATOM     16  C   UNL     1      -1.215   3.131   0.028  0.00  0.00    +0.007 A 
ATOM     17  C   UNL     1      -0.031   3.845   0.028  0.00  0.00    -0.007 A 
ATOM     18  C   UNL     1       1.179   3.175   0.020  0.00  0.00    +0.007 A 
ATOM     19  C   UNL     1       1.204   1.793   0.013  0.00  0.00    +0.000 A 
ENDBRANCH   3  17
ENDBRANCH   1   7
BRANCH   1  20
ATOM     20  O   UNL     1      -0.759  11.583  -3.714  0.00  0.00    -0.452 OA
BRANCH  20  21
ATOM     21  C   UNL     1      -0.562  12.302  -4.960  0.00  0.00    +0.328 C 
BRANCH  21  22
ATOM     22  C   UNL     1      -0.886  13.759  -4.755  0.00  0.00    +0.255 C 
ATOM     23  O   UNL     1      -1.248  14.153  -3.667  0.00  0.00    -0.272 OA
ATOM     24  N   UNL     1      -0.774  14.625  -5.782  0.00  0.00    -0.283 N 
ATOM     25  H   UNL     1      -0.373  14.284  -6.748  0.00  0.00    +0.155 HD
BRANCH  24  26
ATOM     26  C   UNL     1      -1.167  15.960  -5.620  0.00  0.00    +0.037 A 
ATOM     27  C   UNL     1      -1.741  16.648  -6.680  0.00  0.00    +0.027 A 
ATOM     28  C   UNL     1      -2.135  17.964  -6.522  0.00  0.00    +0.051 A 
ATOM     29  C   UNL     1      -1.946  18.597  -5.306  0.00  0.00    +0.162 A 
ATOM     30  C   UNL     1      -1.368  17.914  -4.245  0.00  0.00    +0.164 A 
ATOM     31  C   UNL     1      -0.977  16.595  -4.399  0.00  0.00    +0.072 A 
ATOM     32  O   UNL     1      -1.188  18.550  -3.051  0.00  0.00    -0.488 OA
ATOM     33  C   UNL     1      -0.217  19.598  -3.041  0.00  0.00    +0.232 C 
ATOM     34  C   UNL     1      -0.830  20.906  -3.517  0.00  0.00    +0.082 C 
ATOM     35  C   UNL     1      -1.270  20.843  -4.971  0.00  0.00    +0.232 C 
ATOM     36  O   UNL     1      -2.328  19.898  -5.141  0.00  0.00    -0.488 OA
ENDBRANCH  24  26
ENDBRANCH  21  22
ENDBRANCH  20  21
ENDBRANCH   1  20
TORSDOF 6
