REMARK  Name = ZINC63993814
REMARK  15 active torsions:
REMARK  status: ('A' for Active; 'I' for Inactive)
REMARK    1  A    between atoms: C_1  and  C_2
REMARK    2  A    between atoms: C_2  and  C_3
REMARK    3  A    between atoms: C_3  and  N_4
REMARK    4  A    between atoms: N_4  and  C_5
REMARK    5  A    between atoms: N_11  and  C_27
REMARK    6  A    between atoms: C_12  and  C_23
REMARK    7  A    between atoms: C_14  and  N_16
REMARK    8  A    between atoms: C_17  and  C_19
REMARK    9  A    between atoms: C_19  and  C_20
REMARK   10  A    between atoms: C_20  and  O_21
REMARK   11  A    between atoms: O_21  and  C_22
REMARK   12  A    between atoms: C_23  and  O_25
REMARK   13  A    between atoms: O_25  and  C_26
REMARK   14  A    between atoms: C_27  and  C_28
REMARK   15  A    between atoms: C_28  and  C_29
REMARK                            x       y       z     vdW  Elec       q    Type
REMARK                         _______ _______ _______ _____ _____    ______ ____
ROOT
ATOM      1  C   UNL     1       1.388  -2.673   2.274  0.00  0.00    +0.044 A 
ATOM      2  C   UNL     1       1.419  -4.067   2.277  0.00  0.00    +0.033 A 
ATOM      3  C   UNL     1       2.049  -4.710   3.325  0.00  0.00    +0.015 A 
ATOM      4  C   UNL     1       2.631  -3.970   4.345  0.00  0.00    +0.105 A 
ATOM      5  N   UNL     1       2.578  -2.639   4.304  0.00  0.00    -0.348 N 
ATOM      6  C   UNL     1       1.992  -1.991   3.318  0.00  0.00    +0.107 A 
ATOM      7  N   UNL     1       3.213  -4.794   5.306  0.00  0.00    -0.301 N 
ATOM      8  C   UNL     1       3.030  -6.202   4.943  0.00  0.00    +0.208 C 
ATOM      9  C   UNL     1       2.252  -6.178   3.617  0.00  0.00    +0.138 C 
ATOM     10  H   UNL     1       2.988  -2.131   5.021  0.00  0.00    +0.167 HD
ENDROOT
BRANCH   9  11
ATOM     11  N   UNL     1       3.036  -6.808   2.552  0.00  0.00    -0.306 N 
ATOM     12  C   UNL     1       2.419  -7.284   1.452  0.00  0.00    +0.216 C 
ATOM     13  O   UNL     1       1.215  -7.191   1.344  0.00  0.00    -0.276 OA
ATOM     14  H   UNL     1       3.999  -6.882   2.638  0.00  0.00    +0.149 HD
BRANCH  12  15
ATOM     15  C   UNL     1       3.226  -7.931   0.356  0.00  0.00    +0.124 C 
BRANCH  15  16
ATOM     16  C   UNL     1       2.291  -8.381  -0.768  0.00  0.00    +0.168 C 
BRANCH  16  17
ATOM     17  O   UNL     1       3.056  -8.995  -1.807  0.00  0.00    -0.382 OA
ATOM     18  C   UNL     1       2.274  -9.453  -2.912  0.00  0.00    +0.194 C 
ENDBRANCH  16  17
ENDBRANCH  15  16
ENDBRANCH  12  15
ENDBRANCH   9  11
BRANCH   1  19
ATOM     19  N   UNL     1       0.762  -1.976   1.234  0.00  0.00    -0.343 N 
ATOM     20  H   UNL     1       0.342  -2.462   0.507  0.00  0.00    +0.146 HD
BRANCH  19  21
ATOM     21  C   UNL     1       0.742  -0.511   1.242  0.00  0.00    +0.101 C 
BRANCH  21  23
ATOM     22  C   UNL     1      -0.019   1.526   0.010  0.00  0.00    +0.005 C 
ATOM     23  C   UNL     1       0.002  -0.004   0.002  0.00  0.00    +0.015 C 
ENDBRANCH  21  23
ENDBRANCH  19  21
ENDBRANCH   1  19
BRANCH   8  24
ATOM     24  C   UNL     1       4.367  -6.871   4.754  0.00  0.00    +0.330 C 
ATOM     25  O   UNL     1       5.357  -6.202   4.573  0.00  0.00    -0.249 OA
BRANCH  24  26
ATOM     26  O   UNL     1       4.459  -8.210   4.788  0.00  0.00    -0.467 OA
ATOM     27  C   UNL     1       5.757  -8.776   4.602  0.00  0.00    +0.280 C 
ENDBRANCH  24  26
ENDBRANCH   8  24
BRANCH   7  28
ATOM     28  C   UNL     1       3.908  -4.322   6.506  0.00  0.00    +0.112 C 
BRANCH  28  29
ATOM     29  C   UNL     1       2.906  -4.184   7.654  0.00  0.00    +0.052 C 
BRANCH  29  30
ATOM     30  C   UNL     1       3.621  -3.698   8.889  0.00  0.00    -0.040 C 
ATOM     31  C   UNL     1       3.728  -2.419   9.316  0.00  0.00    -0.001 A 
ATOM     32  C   UNL     1       3.232  -1.146   8.778  0.00  0.00    +0.010 A 
ATOM     33  C   UNL     1       3.507  -0.001   9.444  0.00  0.00    +0.001 A 
ATOM     34  C   UNL     1       4.253   0.000  10.630  0.00  0.00    +0.002 A 
ATOM     35  C   UNL     1       4.742  -1.128  11.186  0.00  0.00    +0.026 A 
ATOM     36  C   UNL     1       4.513  -2.390  10.570  0.00  0.00    +0.043 A 
ATOM     37  N   UNL     1       4.876  -3.604  10.907  0.00  0.00    -0.380 N 
ATOM     38  C   UNL     1       4.357  -4.542   9.905  0.00  0.00    +0.144 C 
ATOM     39  H   UNL     1       5.398  -3.843  11.689  0.00  0.00    +0.160 HD
ENDBRANCH  29  30
ENDBRANCH  28  29
ENDBRANCH   7  28
TORSDOF 12
