REMARK  Name = ZINC45738022
REMARK  6 active torsions:
REMARK  status: ('A' for Active; 'I' for Inactive)
REMARK    1  A    between atoms: C_1  and  C_2
REMARK    2  A    between atoms: C_11  and  N_30
REMARK    3  A    between atoms: C_13  and  C_15
REMARK    4  A    between atoms: C_15  and  S_16
REMARK    5  A    between atoms: S_16  and  C_17
REMARK    6  A    between atoms: N_21  and  C_22
REMARK                            x       y       z     vdW  Elec       q    Type
REMARK                         _______ _______ _______ _____ _____    ______ ____
ROOT
ATOM      1  C   UNL     1      -0.171   1.111  -1.279  0.00  0.00    +0.008 C 
ATOM      2  C   UNL     1      -0.212  -0.403  -1.060  0.00  0.00    -0.009 C 
ATOM      3  C   UNL     1      -1.665  -0.859  -0.898  0.00  0.00    +0.008 C 
ATOM      4  C   UNL     1      -1.736  -2.385  -0.928  0.00  0.00    +0.037 C 
ATOM      5  C   UNL     1      -0.757  -2.946   0.101  0.00  0.00    -0.025 A 
ATOM      6  C   UNL     1       0.249  -2.179   0.580  0.00  0.00    -0.004 A 
ATOM      7  S   UNL     1       1.121  -3.217   1.727  0.00  0.00    -0.073 S 
ATOM      8  C   UNL     1       0.139  -4.673   1.566  0.00  0.00    +0.114 A 
ATOM      9  C   UNL     1      -0.845  -4.302   0.615  0.00  0.00    +0.051 A 
ATOM     10  C   UNL     1      -1.808  -5.293   0.268  0.00  0.00    +0.128 A 
ATOM     11  N   UNL     1      -1.678  -6.468   0.880  0.00  0.00    -0.216 NA
ATOM     12  C   UNL     1      -0.734  -6.741   1.757  0.00  0.00    +0.143 A 
ATOM     13  N   UNL     1       0.194  -5.865   2.124  0.00  0.00    -0.224 NA
ATOM     14  C   UNL     1       0.563  -0.760   0.216  0.00  0.00    +0.046 C 
ENDROOT
BRANCH  10  15
ATOM     15  N   UNL     1      -2.817  -5.048  -0.648  0.00  0.00    -0.343 N 
ATOM     16  H   UNL     1      -2.753  -4.288  -1.247  0.00  0.00    +0.144 HD
ATOM     17  H   UNL     1      -3.587  -5.636  -0.690  0.00  0.00    +0.144 HD
ENDBRANCH  10  15
BRANCH  12  18
ATOM     18  C   UNL     1      -0.705  -8.116   2.373  0.00  0.00    +0.153 C 
BRANCH  18  19
ATOM     19  S   UNL     1       0.323  -9.213   1.357  0.00  0.00    -0.078 S 
BRANCH  19  20
ATOM     20  C   UNL     1       0.257 -10.759   2.199  0.00  0.00    +0.193 A 
ATOM     21  N   UNL     1      -0.406 -11.008   3.303  0.00  0.00    -0.121 NA
ATOM     22  N   UNL     1      -0.197 -12.352   3.638  0.00  0.00    -0.112 NA
ATOM     23  C   UNL     1       0.585 -12.880   2.729  0.00  0.00    +0.221 A 
ATOM     24  N   UNL     1       0.882 -11.912   1.813  0.00  0.00    -0.287 N 
ATOM     25  N   UNL     1       1.030 -14.196   2.699  0.00  0.00    -0.300 N 
ATOM     26  C   UNL     1       1.913 -14.779   1.679  0.00  0.00    +0.108 C 
ATOM     27  C   UNL     1       2.113 -16.265   2.041  0.00  0.00    +0.020 C 
ATOM     28  C   UNL     1       0.878 -16.577   2.927  0.00  0.00    +0.020 C 
ATOM     29  C   UNL     1       0.699 -15.237   3.689  0.00  0.00    +0.108 C 
BRANCH  24  30
ATOM     30  C   UNL     1       1.726 -12.078   0.627  0.00  0.00    +0.093 C 
ATOM     31  C   UNL     1       2.271 -10.811  -0.035  0.00  0.00    +0.027 C 
ATOM     32  C   UNL     1       1.158 -11.610  -0.715  0.00  0.00    +0.027 C 
ENDBRANCH  24  30
ENDBRANCH  19  20
ENDBRANCH  18  19
ENDBRANCH  12  18
TORSDOF 5
