REMARK  Name = ZINC05130380
REMARK  6 active torsions:
REMARK  status: ('A' for Active; 'I' for Inactive)
REMARK    1  A    between atoms: C_4  and  C_7
REMARK    2  A    between atoms: C_7  and  S_8
REMARK    3  A    between atoms: S_8  and  C_9
REMARK    4  A    between atoms: C_18  and  N_30
REMARK    5  A    between atoms: C_19  and  C_28
REMARK    6  A    between atoms: C_20  and  C_22
REMARK                            x       y       z     vdW  Elec       q    Type
REMARK                         _______ _______ _______ _____ _____    ______ ____
ROOT
ATOM      1  C   UNL     1       5.740  -1.842  -1.483  0.00  0.00    +0.173 A 
ATOM      2  N   UNL     1       6.473  -2.252  -2.555  0.00  0.00    -0.302 N 
ATOM      3  H   UNL     1       6.115  -2.052  -3.575  0.00  0.00    +0.171 HD
ATOM      4  C   UNL     1       7.640  -2.904  -2.363  0.00  0.00    +0.260 A 
ATOM      5  O   UNL     1       8.307  -3.278  -3.315  0.00  0.00    -0.267 OA
ATOM      6  C   UNL     1       8.070  -3.144  -1.053  0.00  0.00    +0.091 A 
ATOM      7  C   UNL     1       7.290  -2.708   0.001  0.00  0.00    +0.234 A 
ATOM      8  N   UNL     1       6.145  -2.062  -0.249  0.00  0.00    -0.188 NA
ATOM      9  O   UNL     1       7.672  -2.920   1.279  0.00  0.00    -0.423 OA
ATOM     10  C   UNL     1       8.588  -3.863   1.559  0.00  0.00    +0.200 C 
ATOM     11  C   UNL     1       9.424  -4.355   0.614  0.00  0.00    +0.098 C 
ATOM     12  C   UNL     1       9.366  -3.867  -0.807  0.00  0.00    +0.105 C 
ENDROOT
BRANCH  12  13
ATOM     13  C   UNL     1      10.517  -2.929  -1.060  0.00  0.00    -0.034 A 
ATOM     14  C   UNL     1      10.634  -1.763  -0.326  0.00  0.00    +0.004 A 
ATOM     15  C   UNL     1      11.693  -0.905  -0.555  0.00  0.00    +0.000 A 
ATOM     16  C   UNL     1      12.630  -1.207  -1.525  0.00  0.00    +0.000 A 
ATOM     17  C   UNL     1      12.511  -2.370  -2.263  0.00  0.00    +0.000 A 
ATOM     18  C   UNL     1      11.454  -3.231  -2.030  0.00  0.00    +0.004 A 
ENDBRANCH  12  13
BRANCH  10  19
ATOM     19  N   UNL     1       8.680  -4.341   2.842  0.00  0.00    -0.328 N 
ATOM     20  H   UNL     1       9.424  -5.112   3.090  0.00  0.00    +0.145 HD
ATOM     21  H   UNL     1       8.010  -3.952   3.623  0.00  0.00    +0.145 HD
ENDBRANCH  10  19
BRANCH  11  22
ATOM     22  C   UNL     1      10.379  -5.359   0.975  0.00  0.00    +0.101 C 
ATOM     23  N   UNL     1      11.138  -6.155   1.261  0.00  0.00    -0.191 NA
ENDBRANCH  11  22
BRANCH   1  24
ATOM     24  S   UNL     1       4.220  -0.992  -1.753  0.00  0.00    -0.083 S 
BRANCH  24  25
ATOM     25  C   UNL     1       3.711  -0.707  -0.039  0.00  0.00    +0.112 C 
BRANCH  25  29
ATOM     26  C   UNL     1      -0.017   1.378   0.010  0.00  0.00    +0.000 A 
ATOM     27  C   UNL     1       1.171   2.086   0.002  0.00  0.00    +0.000 A 
ATOM     28  C   UNL     1       2.377   1.411  -0.014  0.00  0.00    +0.004 A 
ATOM     29  C   UNL     1       2.396   0.029  -0.022  0.00  0.00    -0.037 A 
ATOM     30  C   UNL     1       1.208  -0.679  -0.014  0.00  0.00    +0.004 A 
ATOM     31  C   UNL     1       0.002  -0.004   0.002  0.00  0.00    +0.000 A 
ENDBRANCH  25  29
ENDBRANCH  24  25
ENDBRANCH   1  24
TORSDOF 6
