REMARK  Name = ZINC36029186
REMARK  7 active torsions:
REMARK  status: ('A' for Active; 'I' for Inactive)
REMARK    1  A    between atoms: C_1  and  C_2
REMARK    2  A    between atoms: C_2  and  C_3
REMARK    3  A    between atoms: C_3  and  C_5
REMARK    4  A    between atoms: C_3  and  C_6
REMARK    5  A    between atoms: N_10  and  C_29
REMARK    6  A    between atoms: N_15  and  S_18
REMARK    7  A    between atoms: S_18  and  C_21
REMARK                            x       y       z     vdW  Elec       q    Type
REMARK                         _______ _______ _______ _____ _____    ______ ____
ROOT
ATOM      1  C   UNL     1       0.849  -2.020  -1.205  0.00  0.00    +0.022 C 
ATOM      2  C   UNL     1       1.681  -2.451  -0.022  0.00  0.00    +0.200 C 
ATOM      3  O   UNL     1       1.383  -2.312   1.147  0.00  0.00    -0.277 OA
ATOM      4  N   UNL     1       2.823  -3.021  -0.473  0.00  0.00    -0.317 N 
ATOM      5  C   UNL     1       2.938  -2.821  -1.914  0.00  0.00    +0.005 C 
ATOM      6  N   UNL     1       1.554  -2.537  -2.395  0.00  0.00    +0.401 N 
ATOM      7  C   UNL     1       3.798  -1.608  -2.245  0.00  0.00    +0.023 C 
ATOM      8  C   UNL     1       5.283  -1.890  -2.027  0.00  0.00    +0.109 C 
ATOM      9  N   UNL     1       5.646  -3.089  -2.792  0.00  0.00    -0.177 NA
ATOM     10  C   UNL     1       4.902  -4.327  -2.544  0.00  0.00    +0.109 C 
ATOM     11  C   UNL     1       3.403  -4.080  -2.632  0.00  0.00    +0.023 C 
ATOM     12  C   UNL     1       3.761  -3.727   0.404  0.00  0.00    +0.130 C 
ATOM     13  H   UNL     1       1.129  -3.390  -2.728  0.00  0.00    -0.082 HD
ATOM     14  H   UNL     1       1.584  -1.845  -3.129  0.00  0.00    -0.082 HD
ENDROOT
BRANCH   9  15
ATOM     15  S   UNL     1       6.869  -3.042  -3.908  0.00  0.00    +0.062 S 
ATOM     16  O   UNL     1       6.619  -4.095  -4.829  0.00  0.00    -0.153 OA
ATOM     17  O   UNL     1       6.994  -1.686  -4.316  0.00  0.00    -0.153 OA
BRANCH  15  18
ATOM     18  C   UNL     1       8.360  -3.453  -3.064  0.00  0.00    +0.125 A 
ATOM     19  C   UNL     1       9.043  -4.609  -3.393  0.00  0.00    +0.030 A 
ATOM     20  C   UNL     1      10.213  -4.933  -2.732  0.00  0.00    +0.003 A 
ATOM     21  C   UNL     1      10.701  -4.101  -1.741  0.00  0.00    +0.021 A 
ATOM     22  C   UNL     1      10.019  -2.945  -1.411  0.00  0.00    +0.061 A 
ATOM     23  C   UNL     1       8.850  -2.617  -2.078  0.00  0.00    +0.086 A 
ATOM     24 CL   UNL     1       7.996  -1.161  -1.670  0.00  0.00    -0.080 Cl
ATOM     25 CL   UNL     1      10.631  -1.900  -0.167  0.00  0.00    -0.082 Cl
ENDBRANCH  15  18
ENDBRANCH   9  15
BRANCH   1  26
ATOM     26  C   UNL     1       0.718  -0.497  -1.257  0.00  0.00    -0.020 C 
ATOM     27  C   UNL     1      -0.089  -0.097  -2.493  0.00  0.00    +0.006 C 
BRANCH  26  29
ATOM     28  C   UNL     1      -0.019   1.526   0.010  0.00  0.00    +0.004 C 
ATOM     29  C   UNL     1       0.002  -0.004   0.002  0.00  0.00    -0.001 C 
ENDBRANCH  26  29
ENDBRANCH   1  26
TORSDOF 4
