REMARK  Name = ZINC28065792
REMARK  5 active torsions:
REMARK  status: ('A' for Active; 'I' for Inactive)
REMARK    1  A    between atoms: C_4  and  C_7
REMARK    2  A    between atoms: C_10  and  C_33
REMARK    3  A    between atoms: C_17  and  C_20
REMARK    4  A    between atoms: C_20  and  C_21
REMARK    5  A    between atoms: N_23  and  C_24
REMARK                            x       y       z     vdW  Elec       q    Type
REMARK                         _______ _______ _______ _____ _____    ______ ____
ROOT
ATOM      1  C   UNL     1       5.798   9.596  -3.001  0.00  0.00    +0.136 C 
ATOM      2  C   UNL     1       6.585   9.601  -4.327  0.00  0.00    +0.087 C 
ATOM      3  C   UNL     1       6.737   8.135  -4.665  0.00  0.00    +0.069 C 
ATOM      4  N   UNL     1       6.177   7.421  -3.750  0.00  0.00    -0.182 NA
ATOM      5  N   UNL     1       5.589   8.165  -2.729  0.00  0.00    -0.195 N 
ATOM      6  C   UNL     1       4.932   7.649  -1.649  0.00  0.00    +0.170 C 
ATOM      7  N   UNL     1       4.360   8.306  -0.648  0.00  0.00    -0.157 NA
ATOM      8  C   UNL     1       3.748   7.734   0.353  0.00  0.00    +0.252 C 
ATOM      9  O   UNL     1       3.237   8.372   1.252  0.00  0.00    -0.272 OA
ATOM     10  C   UNL     1       3.719   6.211   0.316  0.00  0.00    +0.150 C 
ATOM     11  S   UNL     1       4.638   5.931  -1.252  0.00  0.00    -0.078 S 
ENDROOT
BRANCH   1  15
ATOM     12  C   UNL     1       8.085  11.401   0.123  0.00  0.00    +0.000 A 
ATOM     13  C   UNL     1       7.040  12.094  -0.458  0.00  0.00    +0.000 A 
ATOM     14  C   UNL     1       6.300  11.510  -1.469  0.00  0.00    +0.005 A 
ATOM     15  C   UNL     1       6.605  10.233  -1.899  0.00  0.00    -0.025 A 
ATOM     16  C   UNL     1       7.647   9.537  -1.315  0.00  0.00    +0.005 A 
ATOM     17  C   UNL     1       8.390  10.123  -0.307  0.00  0.00    +0.000 A 
ENDBRANCH   1  15
BRANCH   3  18
ATOM     18  C   UNL     1       7.427   7.604  -5.856  0.00  0.00    -0.002 A 
ATOM     19  C   UNL     1       8.000   8.477  -6.783  0.00  0.00    +0.010 A 
ATOM     20  C   UNL     1       8.649   7.973  -7.891  0.00  0.00    +0.001 A 
ATOM     21  C   UNL     1       8.722   6.606  -8.091  0.00  0.00    +0.000 A 
ATOM     22  C   UNL     1       8.151   5.735  -7.180  0.00  0.00    +0.001 A 
ATOM     23  C   UNL     1       7.505   6.225  -6.064  0.00  0.00    +0.010 A 
ENDBRANCH   3  18
BRANCH  10  24
ATOM     24  C   UNL     1       2.286   5.682   0.225  0.00  0.00    +0.120 C 
BRANCH  24  25
ATOM     25  C   UNL     1       2.312   4.180   0.104  0.00  0.00    +0.219 C 
ATOM     26  O   UNL     1       3.373   3.591   0.091  0.00  0.00    -0.275 OA
ATOM     27  N   UNL     1       1.158   3.491   0.009  0.00  0.00    -0.285 N 
ATOM     28  H   UNL     1       0.201   4.029  -0.067  0.00  0.00    +0.155 HD
BRANCH  27  29
ATOM     29  C   UNL     1       1.176   2.091   0.008  0.00  0.00    +0.037 A 
ATOM     30  C   UNL     1       0.234   1.385  -0.729  0.00  0.00    +0.027 A 
ATOM     31  C   UNL     1       0.251   0.003  -0.732  0.00  0.00    +0.051 A 
ATOM     32  C   UNL     1       1.206  -0.682   0.002  0.00  0.00    +0.166 A 
ATOM     33  C   UNL     1       2.150   0.023   0.744  0.00  0.00    +0.168 A 
ATOM     34  C   UNL     1       2.133   1.408   0.745  0.00  0.00    +0.072 A 
ATOM     35  O   UNL     1       2.969  -0.871   1.371  0.00  0.00    -0.453 OA
ATOM     36  C   UNL     1       2.267  -2.128   1.333  0.00  0.00    +0.466 C 
ATOM     37  O   UNL     1       1.433  -2.019   0.164  0.00  0.00    -0.453 OA
ENDBRANCH  27  29
ENDBRANCH  24  25
ENDBRANCH  10  24
TORSDOF 5
