REMARK  Name = ZINC36207809
REMARK  14 active torsions:
REMARK  status: ('A' for Active; 'I' for Inactive)
REMARK    1  A    between atoms: C_1  and  C_2
REMARK    2  A    between atoms: C_2  and  C_3
REMARK    3  A    between atoms: C_2  and  N_4
REMARK    4  A    between atoms: N_4  and  C_5
REMARK    5  A    between atoms: N_4  and  C_24
REMARK    6  A    between atoms: C_5  and  C_6
REMARK    7  A    between atoms: C_12  and  C_17
REMARK    8  A    between atoms: C_24  and  C_25
REMARK    9  A    between atoms: C_25  and  C_27
REMARK   10  A    between atoms: C_25  and  O_37
REMARK   11  A    between atoms: C_27  and  O_28
REMARK   12  A    between atoms: O_28  and  C_29
REMARK   13  A    between atoms: C_32  and  O_35
REMARK   14  A    between atoms: O_35  and  C_36
REMARK                            x       y       z     vdW  Elec       q    Type
REMARK                         _______ _______ _______ _____ _____    ______ ____
ROOT
ATOM      1  N   UNL     1      -1.114  -0.594  -0.197  0.00  0.00    +0.388 N 
ATOM      2  H   UNL     1      -0.988  -0.308   0.762  0.00  0.00    -0.081 HD
ENDROOT
BRANCH   1   4
ATOM      3  C   UNL     1       1.317  -0.760  -0.436  0.00  0.00    -0.014 C 
ATOM      4  C   UNL     1       0.034  -0.146  -0.997  0.00  0.00    -0.074 C 
ATOM      5  C   UNL     1      -0.152  -0.591  -2.449  0.00  0.00    -0.014 C 
ENDBRANCH   1   4
BRANCH   1   6
ATOM      6  C   UNL     1      -1.215  -2.058  -0.262  0.00  0.00    -0.003 C 
BRANCH   6   7
ATOM      7  C   UNL     1      -0.292  -2.671   0.758  0.00  0.00    +0.094 A 
ATOM      8  N   UNL     1      -0.109  -4.016   0.770  0.00  0.00    -0.312 N 
ATOM      9  H   UNL     1      -0.576  -4.565   0.120  0.00  0.00    +0.170 HD
ATOM     10  C   UNL     1       0.708  -4.604   1.664  0.00  0.00    +0.260 A 
ATOM     11  O   UNL     1       0.862  -5.813   1.661  0.00  0.00    -0.267 OA
ATOM     12  C   UNL     1       1.393  -3.787   2.619  0.00  0.00    +0.080 A 
ATOM     13  C   UNL     1       2.318  -4.180   3.675  0.00  0.00    +0.006 A 
ATOM     14  C   UNL     1       2.850  -3.218   4.467  0.00  0.00    +0.056 A 
ATOM     15  S   UNL     1       2.130  -1.716   3.832  0.00  0.00    -0.076 S 
ATOM     16  C   UNL     1       1.141  -2.407   2.531  0.00  0.00    +0.116 A 
ATOM     17  N   UNL     1       0.323  -1.899   1.614  0.00  0.00    -0.229 NA
BRANCH  13  18
ATOM     18  C   UNL     1       2.670  -5.605   3.878  0.00  0.00    +0.019 A 
ATOM     19  C   UNL     1       2.299  -6.258   5.052  0.00  0.00    +0.011 A 
ATOM     20  C   UNL     1       2.629  -7.585   5.236  0.00  0.00    +0.001 A 
ATOM     21  C   UNL     1       3.327  -8.270   4.257  0.00  0.00    +0.003 A 
ATOM     22  C   UNL     1       3.700  -7.630   3.090  0.00  0.00    +0.039 A 
ATOM     23  C   UNL     1       3.370  -6.302   2.891  0.00  0.00    +0.131 A 
ATOM     24  F   UNL     1       3.730  -5.678   1.748  0.00  0.00    -0.205 F 
ENDBRANCH  13  18
ENDBRANCH   6   7
ENDBRANCH   1   6
BRANCH   1  25
ATOM     25  C   UNL     1      -2.345   0.006  -0.728  0.00  0.00    -0.043 C 
BRANCH  25  26
ATOM     26  C   UNL     1      -2.313   1.519  -0.504  0.00  0.00    +0.135 C 
BRANCH  26  27
ATOM     27  O   UNL     1      -2.239   1.791   0.897  0.00  0.00    -0.390 OA
ATOM     28  H   UNL     1      -2.984   1.443   1.406  0.00  0.00    +0.210 HD
ENDBRANCH  26  27
BRANCH  26  29
ATOM     29  C   UNL     1      -3.585   2.147  -1.078  0.00  0.00    +0.258 C 
BRANCH  29  30
ATOM     30  O   UNL     1      -3.503   3.570  -0.973  0.00  0.00    -0.489 OA
BRANCH  30  31
ATOM     31  C   UNL     1      -4.560   4.285  -1.442  0.00  0.00    +0.121 A 
ATOM     32  C   UNL     1      -5.655   3.630  -1.986  0.00  0.00    +0.049 A 
ATOM     33  C   UNL     1      -6.728   4.357  -2.462  0.00  0.00    +0.049 A 
ATOM     34  C   UNL     1      -6.712   5.742  -2.396  0.00  0.00    +0.120 A 
ATOM     35  C   UNL     1      -5.618   6.398  -1.851  0.00  0.00    +0.049 A 
ATOM     36  C   UNL     1      -4.546   5.671  -1.371  0.00  0.00    +0.049 A 
BRANCH  34  37
ATOM     37  O   UNL     1      -7.769   6.458  -2.865  0.00  0.00    -0.495 OA
ATOM     38  C   UNL     1      -7.685   7.881  -2.765  0.00  0.00    +0.277 C 
ENDBRANCH  34  37
ENDBRANCH  30  31
ENDBRANCH  29  30
ENDBRANCH  26  29
ENDBRANCH  25  26
ENDBRANCH   1  25
TORSDOF 11
