REMARK  Name = ZINC21325702
REMARK  14 active torsions:
REMARK  status: ('A' for Active; 'I' for Inactive)
REMARK    1  A    between atoms: C_1  and  C_2
REMARK    2  A    between atoms: C_2  and  N_3
REMARK    3  A    between atoms: N_3  and  C_4
REMARK    4  A    between atoms: N_3  and  C_6
REMARK    5  A    between atoms: C_4  and  C_5
REMARK    6  A    between atoms: C_9  and  C_13
REMARK    7  A    between atoms: C_10  and  O_12
REMARK    8  A    between atoms: N_14  and  N_15
REMARK    9  A    between atoms: C_19  and  S_22
REMARK   10  A    between atoms: N_20  and  N_21
REMARK   11  A    between atoms: S_22  and  C_23
REMARK   12  A    between atoms: C_23  and  C_24
REMARK   13  A    between atoms: N_26  and  C_27
REMARK   14  A    between atoms: C_32  and  N_33
REMARK                            x       y       z     vdW  Elec       q    Type
REMARK                         _______ _______ _______ _____ _____    ______ ____
ROOT
ATOM      1  N   UNL     1      -1.161  -0.729  -0.102  0.00  0.00    -0.204 N 
ATOM      2  C   UNL     1      -1.147  -2.116  -0.096  0.00  0.00    +0.254 A 
ATOM      3  N   UNL     1      -0.079  -2.877  -0.121  0.00  0.00    -0.109 NA
ATOM      4  N   UNL     1      -0.499  -4.213  -0.101  0.00  0.00    -0.119 NA
ATOM      5  C   UNL     1      -1.810  -4.226  -0.072  0.00  0.00    +0.210 A 
ATOM      6  N   UNL     1      -2.245  -2.931  -0.068  0.00  0.00    -0.211 N 
ATOM      7  H   UNL     1      -2.119  -0.189  -0.084  0.00  0.00    +0.177 HD
ENDROOT
BRANCH   6   8
ATOM      8  N   UNL     1      -3.548  -2.522  -0.041  0.00  0.00    -0.294 N 
ATOM      9  H   UNL     1      -4.358  -3.265  -0.020  0.00  0.00    +0.163 HD
ATOM     10  H   UNL     1      -3.787  -1.448  -0.039  0.00  0.00    +0.163 HD
ENDBRANCH   6   8
BRANCH   1  12
ATOM     11  C   UNL     1       0.033   1.282  -0.137  0.00  0.00    +0.142 C 
ATOM     12  N   UNL     1       0.045  -0.017  -0.131  0.00  0.00    -0.187 NA
BRANCH  11  16
ATOM     13  C   UNL     1       3.689   3.443  -0.225  0.00  0.00    +0.033 A 
ATOM     14  C   UNL     1       2.477   4.125  -0.203  0.00  0.00    +0.024 A 
ATOM     15  C   UNL     1       1.290   3.428  -0.174  0.00  0.00    +0.015 A 
ATOM     16  C   UNL     1       1.301   2.031  -0.168  0.00  0.00    +0.036 A 
ATOM     17  C   UNL     1       2.523   1.344  -0.185  0.00  0.00    +0.127 A 
ATOM     18  C   UNL     1       3.710   2.054  -0.219  0.00  0.00    +0.069 A 
BRANCH  17  19
ATOM     19  O   UNL     1       2.542  -0.014  -0.173  0.00  0.00    -0.506 OA
ATOM     20  H   UNL     1       3.502  -0.551  -0.187  0.00  0.00    +0.292 HD
ENDBRANCH  17  19
BRANCH  13  21
ATOM     21  N   UNL     1       4.889   4.156  -0.253  0.00  0.00    -0.330 N 
BRANCH  21  23
ATOM     22  C   UNL     1       4.894   6.137   1.181  0.00  0.00    +0.024 C 
ATOM     23  C   UNL     1       4.870   5.620  -0.259  0.00  0.00    +0.102 C 
ENDBRANCH  21  23
BRANCH  21  24
ATOM     24  C   UNL     1       6.166   3.439  -0.277  0.00  0.00    +0.102 C 
ATOM     25  C   UNL     1       6.581   3.184  -1.728  0.00  0.00    +0.024 C 
ENDBRANCH  21  24
ENDBRANCH  13  21
ENDBRANCH  11  16
ENDBRANCH   1  12
BRANCH   5  26
ATOM     26  S   UNL     1      -2.832  -5.661  -0.045  0.00  0.00    -0.075 S 
BRANCH  26  27
ATOM     27  C   UNL     1      -1.652  -7.040  -0.065  0.00  0.00    +0.173 C 
BRANCH  27  28
ATOM     28  C   UNL     1      -2.405  -8.345  -0.043  0.00  0.00    +0.228 C 
ATOM     29  O   UNL     1      -3.617  -8.346  -0.017  0.00  0.00    -0.275 OA
ATOM     30  N   UNL     1      -1.730  -9.512  -0.053  0.00  0.00    -0.283 N 
ATOM     31  H   UNL     1      -0.634  -9.513  -0.150  0.00  0.00    +0.155 HD
BRANCH  30  32
ATOM     32  C   UNL     1      -2.424 -10.722   0.060  0.00  0.00    +0.064 A 
ATOM     33  C   UNL     1      -3.678 -10.862  -0.520  0.00  0.00    +0.025 A 
ATOM     34  C   UNL     1      -4.358 -12.059  -0.411  0.00  0.00    +0.002 A 
ATOM     35  C   UNL     1      -3.795 -13.114   0.284  0.00  0.00    +0.002 A 
ATOM     36  C   UNL     1      -2.550 -12.976   0.868  0.00  0.00    +0.034 A 
ATOM     37  C   UNL     1      -1.862 -11.783   0.758  0.00  0.00    +0.147 A 
BRANCH  37  38
ATOM     38  N   UNL     1      -0.529 -11.636   1.383  0.00  0.00    +0.058 N 
ATOM     39  O   UNL     1       0.007 -12.595   1.909  0.00  0.00    -0.126 OA
ATOM     40  O   UNL     1       0.033 -10.555   1.372  0.00  0.00    -0.126 OA
ENDBRANCH  37  38
ENDBRANCH  30  32
ENDBRANCH  27  28
ENDBRANCH  26  27
ENDBRANCH   5  26
TORSDOF 12
