REMARK  Name = ZINC45643786
REMARK  6 active torsions:
REMARK  status: ('A' for Active; 'I' for Inactive)
REMARK    1  A    between atoms: C_1  and  C_2
REMARK    2  A    between atoms: C_2  and  O_3
REMARK    3  A    between atoms: O_3  and  C_4
REMARK    4  A    between atoms: C_4  and  C_6
REMARK    5  A    between atoms: N_11  and  C_13
REMARK    6  A    between atoms: C_13  and  C_14
REMARK                            x       y       z     vdW  Elec       q    Type
REMARK                         _______ _______ _______ _____ _____    ______ ____
ROOT
ATOM      1  C   UNL     1       2.678  -6.669   4.760  0.00  0.00    +0.116 A 
ATOM      2  N   UNL     1       3.968  -6.951   4.789  0.00  0.00    -0.219 NA
ATOM      3  C   UNL     1       4.589  -7.298   5.905  0.00  0.00    +0.128 A 
ATOM      4  C   UNL     1       3.845  -7.372   7.115  0.00  0.00    +0.051 A 
ATOM      5  C   UNL     1       4.317  -7.731   8.458  0.00  0.00    -0.025 A 
ATOM      6  C   UNL     1       3.398  -7.730   9.443  0.00  0.00    -0.004 A 
ATOM      7  S   UNL     1       1.879  -7.249   8.664  0.00  0.00    -0.073 S 
ATOM      8  C   UNL     1       2.477  -7.058   7.006  0.00  0.00    +0.114 A 
ATOM      9  N   UNL     1       1.938  -6.716   5.851  0.00  0.00    -0.227 NA
ATOM     10  C   UNL     1       3.600  -8.070  10.887  0.00  0.00    +0.043 C 
ATOM     11  C   UNL     1       4.819  -7.308  11.423  0.00  0.00    +0.005 C 
ATOM     12  C   UNL     1       6.059  -8.168  11.201  0.00  0.00    +0.001 C 
ATOM     13  C   UNL     1       5.903  -8.989   9.923  0.00  0.00    +0.005 C 
ATOM     14  C   UNL     1       5.783  -8.075   8.711  0.00  0.00    +0.037 C 
ATOM     15  N   UNL     1       5.942  -7.586   5.895  0.00  0.00    -0.343 N 
ATOM     16  H   UNL     1       6.470  -7.462   6.699  0.00  0.00    +0.144 HD
ATOM     17  H   UNL     1       6.362  -7.913   5.084  0.00  0.00    +0.144 HD
ENDROOT
BRANCH   1  18
ATOM     18  C   UNL     1       2.038  -6.281   3.452  0.00  0.00    -0.001 C 
BRANCH  18  23
ATOM     19  C   UNL     1       1.399  -2.909   1.932  0.00  0.00    +0.081 C 
ATOM     20  C   UNL     1       2.849  -2.425   1.830  0.00  0.00    +0.011 C 
ATOM     21  C   UNL     1       3.624  -2.902   3.061  0.00  0.00    -0.018 C 
ATOM     22  C   UNL     1       3.528  -4.426   3.159  0.00  0.00    -0.078 C 
ATOM     23  N   UNL     1       2.120  -4.824   3.281  0.00  0.00    +0.385 N 
ATOM     24  C   UNL     1       1.384  -4.433   2.072  0.00  0.00    -0.064 C 
ATOM     25  H   UNL     1       1.712  -4.369   4.083  0.00  0.00    -0.081 HD
BRANCH  19  26
ATOM     26  C   UNL     1       0.646  -2.511   0.689  0.00  0.00    +0.308 C 
ATOM     27  O   UNL     1       0.147  -3.358  -0.012  0.00  0.00    -0.251 OA
BRANCH  26  28
ATOM     28  O   UNL     1       0.530  -1.214   0.361  0.00  0.00    -0.465 OA
BRANCH  28  30
ATOM     29  C   UNL     1      -0.222   0.607  -1.038  0.00  0.00    +0.048 C 
ATOM     30  C   UNL     1      -0.197  -0.909  -0.830  0.00  0.00    +0.229 C 
ENDBRANCH  28  30
ENDBRANCH  26  28
ENDBRANCH  19  26
ENDBRANCH  18  23
ENDBRANCH   1  18
TORSDOF 5
