REMARK  Name = ZINC39287384
REMARK  10 active torsions:
REMARK  status: ('A' for Active; 'I' for Inactive)
REMARK    1  A    between atoms: C_1  and  C_2
REMARK    2  A    between atoms: C_2  and  O_3
REMARK    3  A    between atoms: O_3  and  C_4
REMARK    4  A    between atoms: C_6  and  C_19
REMARK    5  A    between atoms: C_9  and  O_10
REMARK    6  A    between atoms: O_10  and  C_11
REMARK    7  A    between atoms: C_11  and  C_12
REMARK    8  A    between atoms: C_21  and  C_32
REMARK    9  A    between atoms: C_22  and  N_31
REMARK   10  A    between atoms: C_27  and  C_30
REMARK                            x       y       z     vdW  Elec       q    Type
REMARK                         _______ _______ _______ _____ _____    ______ ____
ROOT
ATOM      1  C   UNL     1      -1.498  -1.849   0.006  0.00  0.00    +0.162 A 
ATOM      2  C   UNL     1      -0.389  -2.680  -0.003  0.00  0.00    +0.055 A 
ATOM      3  C   UNL     1      -0.553  -4.052  -0.009  0.00  0.00    -0.017 A 
ATOM      4  C   UNL     1      -1.823  -4.600  -0.005  0.00  0.00    +0.026 A 
ATOM      5  C   UNL     1      -2.934  -3.777   0.004  0.00  0.00    +0.065 A 
ATOM      6  C   UNL     1      -2.776  -2.400   0.016  0.00  0.00    +0.163 A 
ATOM      7 BR   UNL     1      -2.041  -6.479  -0.013  0.00  0.00    -0.050 Br
ENDROOT
BRANCH   3   8
ATOM      8  C   UNL     1       0.655  -4.954  -0.019  0.00  0.00    +0.099 C 
ATOM      9  C   UNL     1       1.532  -4.670   1.186  0.00  0.00    +0.097 C 
ATOM     10  C   UNL     1       2.738  -4.077   1.063  0.00  0.00    +0.195 C 
ATOM     11  O   UNL     1       3.329  -3.689  -0.082  0.00  0.00    -0.448 OA
ATOM     12  C   UNL     1       2.486  -3.478  -1.218  0.00  0.00    +0.343 C 
ATOM     13  C   UNL     1       1.512  -4.661  -1.220  0.00  0.00    +0.030 C 
ATOM     14  C   UNL     1       1.663  -5.229  -2.392  0.00  0.00    +0.066 C 
ATOM     15  N   UNL     1       2.668  -4.628  -3.080  0.00  0.00    -0.155 NA
ATOM     16  N   UNL     1       3.198  -3.652  -2.487  0.00  0.00    -0.138 NA
ATOM     17  C   UNL     1       0.840  -6.383  -2.902  0.00  0.00    +0.067 C 
BRANCH  10  18
ATOM     18  N   UNL     1       3.432  -3.845   2.223  0.00  0.00    -0.329 N 
ATOM     19  H   UNL     1       3.051  -4.105   3.077  0.00  0.00    +0.145 HD
ATOM     20  H   UNL     1       4.304  -3.421   2.191  0.00  0.00    +0.145 HD
ENDBRANCH  10  18
BRANCH   9  21
ATOM     21  C   UNL     1       1.068  -5.042   2.489  0.00  0.00    +0.101 C 
ATOM     22  N   UNL     1       0.700  -5.336   3.523  0.00  0.00    -0.191 NA
ENDBRANCH   9  21
ENDBRANCH   3   8
BRANCH   1  23
ATOM     23  O   UNL     1      -1.339  -0.499   0.012  0.00  0.00    -0.489 OA
BRANCH  23  25
ATOM     24  C   UNL     1      -0.019   1.526   0.010  0.00  0.00    +0.048 C 
ATOM     25  C   UNL     1       0.002  -0.004   0.002  0.00  0.00    +0.226 C 
ENDBRANCH  23  25
ENDBRANCH   1  23
BRANCH   6  26
ATOM     26  O   UNL     1      -3.868  -1.589   0.031  0.00  0.00    -0.484 OA
BRANCH  26  27
ATOM     27  C   UNL     1      -5.148  -2.224   0.040  0.00  0.00    +0.264 C 
BRANCH  27  28
ATOM     28  C   UNL     1      -6.229  -1.174   0.056  0.00  0.00    -0.010 A 
ATOM     29  C   UNL     1      -6.709  -0.696   1.261  0.00  0.00    +0.007 A 
ATOM     30  C   UNL     1      -7.701   0.267   1.276  0.00  0.00    +0.000 A 
ATOM     31  C   UNL     1      -8.212   0.752   0.087  0.00  0.00    +0.000 A 
ATOM     32  C   UNL     1      -7.731   0.274  -1.118  0.00  0.00    +0.000 A 
ATOM     33  C   UNL     1      -6.737  -0.686  -1.133  0.00  0.00    +0.007 A 
ENDBRANCH  27  28
ENDBRANCH  26  27
ENDBRANCH   6  26
TORSDOF 8
