REMARK  Name = ZINC65074710
REMARK  3 active torsions:
REMARK  status: ('A' for Active; 'I' for Inactive)
REMARK    1  A    between atoms: C_6  and  S_7
REMARK    2  A    between atoms: S_7  and  N_10
REMARK    3  A    between atoms: N_21  and  C_22
REMARK                            x       y       z     vdW  Elec       q    Type
REMARK                         _______ _______ _______ _____ _____    ______ ____
ROOT
ATOM      1  N   UNL     1      -1.948  -1.147  -1.567  0.00  0.00    -0.176 NA
ATOM      2  C   UNL     1      -2.787  -0.168  -2.271  0.00  0.00    +0.111 C 
ATOM      3  C   UNL     1      -3.998  -0.892  -2.865  0.00  0.00    +0.047 C 
ATOM      4  C   UNL     1      -3.515  -2.049  -3.744  0.00  0.00    +0.075 C 
ATOM      5  C   UNL     1      -2.729  -3.046  -2.887  0.00  0.00    +0.047 C 
ATOM      6  C   UNL     1      -1.499  -2.343  -2.293  0.00  0.00    +0.111 C 
ATOM      7  C   UNL     1      -4.698  -2.740  -4.361  0.00  0.00    +0.089 C 
ATOM      8  N   UNL     1      -5.051  -2.586  -5.581  0.00  0.00    -0.374 N 
ATOM      9  C   UNL     1      -4.344  -1.729  -6.527  0.00  0.00    +0.129 C 
ATOM     10  C   UNL     1      -3.432  -0.757  -5.776  0.00  0.00    +0.102 C 
ATOM     11  N   UNL     1      -2.638  -1.522  -4.800  0.00  0.00    -0.303 NA
ATOM     12  N   UNL     1      -5.439  -3.582  -3.574  0.00  0.00    -0.330 N 
ATOM     13  H   UNL     1      -1.901  -0.954  -4.408  0.00  0.00    +0.123 HD
ATOM     14  H   UNL     1      -5.194  -3.718  -2.645  0.00  0.00    +0.147 HD
ATOM     15  H   UNL     1      -5.833  -3.066  -5.895  0.00  0.00    +0.161 HD
ENDROOT
BRANCH  12  16
ATOM     16  C   UNL     1      -6.601  -4.276  -4.135  0.00  0.00    +0.071 C 
ATOM     17  C   UNL     1      -7.826  -3.362  -4.058  0.00  0.00    +0.022 C 
ATOM     18  C   UNL     1      -9.040  -4.087  -4.644  0.00  0.00    +0.002 C 
ATOM     19  C   UNL     1      -9.305  -5.365  -3.845  0.00  0.00    +0.000 C 
ATOM     20  C   UNL     1      -8.080  -6.278  -3.922  0.00  0.00    +0.002 C 
ATOM     21  C   UNL     1      -6.867  -5.553  -3.337  0.00  0.00    +0.022 C 
ENDBRANCH  12  16
BRANCH   1  22
ATOM     22  S   UNL     1      -1.512  -0.905   0.012  0.00  0.00    +0.061 S 
ATOM     23  O   UNL     1      -1.218  -2.186   0.553  0.00  0.00    -0.153 OA
ATOM     24  O   UNL     1      -2.492  -0.046   0.577  0.00  0.00    -0.153 OA
BRANCH  22  30
ATOM     25  C   UNL     1      -0.017   1.378   0.010  0.00  0.00    +0.030 A 
ATOM     26  C   UNL     1       1.171   2.086   0.002  0.00  0.00    +0.022 A 
ATOM     27  C   UNL     1       2.378   1.410  -0.013  0.00  0.00    +0.041 A 
ATOM     28  C   UNL     1       2.396   0.027  -0.021  0.00  0.00    +0.022 A 
ATOM     29  C   UNL     1       1.208  -0.679  -0.013  0.00  0.00    +0.030 A 
ATOM     30  C   UNL     1       0.002  -0.004   0.002  0.00  0.00    +0.106 A 
ATOM     31 CL   UNL     1       3.870   2.298  -0.023  0.00  0.00    -0.084 Cl
ENDBRANCH  22  30
ENDBRANCH   1  22
TORSDOF 3
