REMARK  Name = ZINC63698972
REMARK  4 active torsions:
REMARK  status: ('A' for Active; 'I' for Inactive)
REMARK    1  A    between atoms: C_1  and  C_2
REMARK    2  A    between atoms: C_4  and  C_23
REMARK    3  A    between atoms: N_12  and  C_14
REMARK    4  A    between atoms: C_28  and  N_29
REMARK                            x       y       z     vdW  Elec       q    Type
REMARK                         _______ _______ _______ _____ _____    ______ ____
ROOT
ATOM      1  C   UNL     1      -1.015   1.996  -0.830  0.00  0.00    +0.062 C 
ATOM      2  C   UNL     1      -0.707   0.526  -0.703  0.00  0.00    +0.019 C 
ATOM      3  C   UNL     1      -1.606  -0.403  -0.549  0.00  0.00    -0.008 C 
ATOM      4  C   UNL     1      -3.112  -0.348  -0.622  0.00  0.00    +0.060 C 
ATOM      5  C   UNL     1      -3.518  -1.258  -1.791  0.00  0.00    +0.108 C 
ATOM      6  C   UNL     1      -2.658  -2.477  -1.872  0.00  0.00    +0.215 C 
ATOM      7  O   UNL     1      -3.110  -3.412  -2.498  0.00  0.00    -0.276 OA
ATOM      8  N   UNL     1      -1.450  -2.657  -1.336  0.00  0.00    -0.295 N 
ATOM      9  C   UNL     1      -0.869  -1.722  -0.381  0.00  0.00    +0.194 C 
ATOM     10  N   UNL     1       0.528  -1.380  -0.670  0.00  0.00    -0.164 NA
ATOM     11  N   UNL     1       0.570  -0.012  -0.741  0.00  0.00    -0.277 N 
ATOM     12  H   UNL     1      -0.938  -3.441  -1.591  0.00  0.00    +0.151 HD
ATOM     13  H   UNL     1       1.385   0.510  -0.806  0.00  0.00    +0.166 HD
ENDROOT
BRANCH  10  14
ATOM     14  C   UNL     1       0.967  -1.982  -1.936  0.00  0.00    +0.270 C 
ATOM     15  N   UNL     1       2.398  -1.730  -2.144  0.00  0.00    -0.350 N 
ATOM     16  C   UNL     1       2.518  -1.045  -3.245  0.00  0.00    +0.061 A 
ATOM     17  C   UNL     1       3.680  -0.503  -3.963  0.00  0.00    +0.027 A 
ATOM     18  C   UNL     1       3.493   0.182  -5.109  0.00  0.00    +0.002 A 
ATOM     19  C   UNL     1       2.218   0.409  -5.657  0.00  0.00    +0.002 A 
ATOM     20  C   UNL     1       1.087  -0.043  -5.080  0.00  0.00    +0.027 A 
ATOM     21  C   UNL     1       1.169  -0.806  -3.826  0.00  0.00    +0.061 A 
ATOM     22  N   UNL     1       0.267  -1.352  -3.062  0.00  0.00    -0.350 N 
ATOM     23  H   UNL     1       3.122  -2.020  -1.567  0.00  0.00    +0.163 HD
ATOM     24  H   UNL     1      -0.692  -1.345  -3.211  0.00  0.00    +0.163 HD
ENDBRANCH  10  14
BRANCH   4  25
ATOM     25  C   UNL     1      -3.712  -0.855   0.664  0.00  0.00    -0.009 A 
ATOM     26  C   UNL     1      -3.839  -2.215   0.880  0.00  0.00    +0.006 A 
ATOM     27  C   UNL     1      -4.389  -2.679   2.059  0.00  0.00    +0.000 A 
ATOM     28  C   UNL     1      -4.811  -1.784   3.025  0.00  0.00    +0.002 A 
ATOM     29  C   UNL     1      -4.684  -0.425   2.810  0.00  0.00    +0.033 A 
ATOM     30  C   UNL     1      -4.130   0.040   1.632  0.00  0.00    +0.130 A 
BRANCH  30  31
ATOM     31  N   UNL     1      -3.988   1.496   1.404  0.00  0.00    +0.057 N 
ATOM     32  O   UNL     1      -4.453   2.280   2.198  0.00  0.00    -0.126 OA
ATOM     33  O   UNL     1      -3.408   1.901   0.424  0.00  0.00    -0.126 OA
ENDBRANCH  30  31
ENDBRANCH   4  25
TORSDOF 3
