REMARK  Name = ZINC04065789
REMARK  9 active torsions:
REMARK  status: ('A' for Active; 'I' for Inactive)
REMARK    1  A    between atoms: C_1  and  C_2
REMARK    2  A    between atoms: C_7  and  N_8
REMARK    3  A    between atoms: C_9  and  C_13
REMARK    4  A    between atoms: C_13  and  N_23
REMARK    5  A    between atoms: C_16  and  C_19
REMARK    6  A    between atoms: C_19  and  C_20
REMARK    7  A    between atoms: C_19  and  C_21
REMARK    8  A    between atoms: C_19  and  C_22
REMARK    9  A    between atoms: N_23  and  C_24
REMARK                            x       y       z     vdW  Elec       q    Type
REMARK                         _______ _______ _______ _____ _____    ______ ____
ROOT
ATOM      1  C   UNL     1       2.550  -0.462  -0.266  0.00  0.00    +0.094 C 
ATOM      2  C   UNL     1       2.608   0.508  -1.448  0.00  0.00    +0.034 C 
ATOM      3  C   UNL     1       2.204  -0.225  -2.729  0.00  0.00    +0.006 C 
ATOM      4  C   UNL     1       3.167  -1.388  -2.976  0.00  0.00    -0.005 C 
ATOM      5  C   UNL     1       3.109  -2.358  -1.794  0.00  0.00    +0.006 C 
ATOM      6  C   UNL     1       3.513  -1.625  -0.513  0.00  0.00    +0.034 C 
ENDROOT
BRANCH   1   8
ATOM      7  N   UNL     1       0.030  -0.260   0.077  0.00  0.00    -0.195 N 
ATOM      8  C   UNL     1       1.147  -0.993  -0.120  0.00  0.00    +0.180 A 
ATOM      9  N   UNL     1       0.786  -2.249  -0.161  0.00  0.00    -0.111 NA
ATOM     10  N   UNL     1      -0.484  -2.360  -0.003  0.00  0.00    -0.023 NA
ATOM     11  N   UNL     1      -1.016  -1.196   0.154  0.00  0.00    -0.039 NA
BRANCH   7  18
ATOM     12  C   UNL     1      -1.607   1.130  -1.790  0.00  0.00    +0.046 C 
ATOM     13  C   UNL     1      -0.853   1.851  -0.703  0.00  0.00    -0.025 A 
ATOM     14  C   UNL     1      -0.948   3.224  -0.588  0.00  0.00    +0.005 A 
ATOM     15  C   UNL     1      -0.251   3.887   0.405  0.00  0.00    +0.000 A 
ATOM     16  C   UNL     1       0.539   3.177   1.291  0.00  0.00    +0.002 A 
ATOM     17  C   UNL     1       0.634   1.803   1.185  0.00  0.00    +0.028 A 
ATOM     18  C   UNL     1      -0.065   1.135   0.188  0.00  0.00    +0.072 A 
ENDBRANCH   7  18
ENDBRANCH   1   8
BRANCH   4  19
ATOM     19  C   UNL     1       2.763  -2.120  -4.257  0.00  0.00    -0.035 C 
ATOM     20  C   UNL     1       1.339  -2.660  -4.109  0.00  0.00    +0.011 C 
ATOM     21  C   UNL     1       2.821  -1.151  -5.439  0.00  0.00    +0.011 C 
ATOM     22  C   UNL     1       3.726  -3.284  -4.504  0.00  0.00    +0.011 C 
ENDBRANCH   4  19
BRANCH   1  23
ATOM     23  N   UNL     1       2.937   0.239   0.961  0.00  0.00    -0.332 N 
ATOM     24  H   UNL     1       3.151   1.185   0.932  0.00  0.00    +0.147 HD
BRANCH  23  25
ATOM     25  C   UNL     1       2.997  -0.454   2.173  0.00  0.00    +0.028 A 
ATOM     26  C   UNL     1       2.544  -1.765   2.248  0.00  0.00    +0.024 A 
ATOM     27  C   UNL     1       2.610  -2.449   3.445  0.00  0.00    +0.022 A 
ATOM     28  C   UNL     1       3.116  -1.827   4.573  0.00  0.00    +0.041 A 
ATOM     29  C   UNL     1       3.563  -0.519   4.502  0.00  0.00    +0.022 A 
ATOM     30  C   UNL     1       3.505   0.169   3.306  0.00  0.00    +0.024 A 
ATOM     31 CL   UNL     1       3.191  -2.688   6.078  0.00  0.00    -0.084 Cl
ENDBRANCH  23  25
ENDBRANCH   1  23
TORSDOF 5
