REMARK  Name = ZINC04825582
REMARK  2 active torsions:
REMARK  status: ('A' for Active; 'I' for Inactive)
REMARK    1  A    between atoms: C_6  and  C_7
REMARK    2  A    between atoms: C_17  and  C_24
REMARK                            x       y       z     vdW  Elec       q    Type
REMARK                         _______ _______ _______ _____ _____    ______ ____
ROOT
ATOM      1  C   UNL     1       4.840   1.539   0.066  0.00  0.00    +0.105 C 
ATOM      2  C   UNL     1       4.727   0.274  -0.760  0.00  0.00    +0.029 C 
ATOM      3  C   UNL     1       5.926  -0.680  -0.781  0.00  0.00    +0.033 C 
ATOM      4  C   UNL     1       5.237  -2.030  -0.997  0.00  0.00    -0.030 C 
ATOM      5  C   UNL     1       3.993  -1.983  -0.533  0.00  0.00    -0.023 C 
ATOM      6  C   UNL     1       3.735  -0.629   0.038  0.00  0.00    +0.049 C 
ATOM      7  C   UNL     1       2.420   0.046   0.001  0.00  0.00    -0.004 A 
ATOM      8  C   UNL     1       1.226  -0.674  -0.006  0.00  0.00    +0.069 A 
ATOM      9  C   UNL     1       0.002  -0.004  -0.005  0.00  0.00    +0.017 A 
ATOM     10  C   UNL     1      -0.017   1.376   0.002  0.00  0.00    +0.022 A 
ATOM     11  C   UNL     1       1.163   2.090   0.002  0.00  0.00    +0.062 A 
ATOM     12  C   UNL     1       2.402   1.439  -0.006  0.00  0.00    +0.051 A 
ATOM     13  N   UNL     1       3.547   2.235  -0.029  0.00  0.00    -0.335 N 
ATOM     14 CL   UNL     1       1.111   3.825   0.012  0.00  0.00    -0.082 Cl
ATOM     15  H   UNL     1       3.533   2.865  -0.817  0.00  0.00    +0.147 HD
ENDROOT
BRANCH   1  21
ATOM     16  C   UNL     1       5.713   3.169  -1.619  0.00  0.00    +0.009 A 
ATOM     17  C   UNL     1       6.716   3.975  -2.126  0.00  0.00    +0.050 A 
ATOM     18  C   UNL     1       7.948   4.027  -1.496  0.00  0.00    +0.166 A 
ATOM     19  C   UNL     1       8.174   3.265  -0.352  0.00  0.00    +0.167 A 
ATOM     20  C   UNL     1       7.163   2.465   0.154  0.00  0.00    +0.055 A 
ATOM     21  C   UNL     1       5.937   2.414  -0.483  0.00  0.00    -0.023 A 
ATOM     22  O   UNL     1       9.451   3.488   0.075  0.00  0.00    -0.453 OA
ATOM     23  C   UNL     1       9.870   4.700  -0.579  0.00  0.00    +0.466 C 
ATOM     24  O   UNL     1       9.084   4.726  -1.786  0.00  0.00    -0.453 OA
ENDBRANCH   1  21
BRANCH   8  25
ATOM     25  C   UNL     1       1.257  -2.151  -0.015  0.00  0.00    +0.387 C 
ATOM     26  O   UNL     1       1.876  -2.750   0.841  0.00  0.00    -0.241 OA
ATOM     27  O   UNL     1       0.599  -2.833  -0.972  0.00  0.00    -0.241 OA
ENDBRANCH   8  25
TORSDOF 2
