REMARK  Name = ZINC04103424
REMARK  13 active torsions:
REMARK  status: ('A' for Active; 'I' for Inactive)
REMARK    1  A    between atoms: C_1  and  C_2
REMARK    2  A    between atoms: C_12  and  C_14
REMARK    3  A    between atoms: C_14  and  N_15
REMARK    4  A    between atoms: N_15  and  C_16
REMARK    5  A    between atoms: N_15  and  C_22
REMARK    6  A    between atoms: C_16  and  C_17
REMARK    7  A    between atoms: C_22  and  C_24
REMARK    8  A    between atoms: C_22  and  C_37
REMARK    9  A    between atoms: N_28  and  C_29
REMARK   10  A    between atoms: C_29  and  C_30
REMARK   11  A    between atoms: C_30  and  C_31
REMARK   12  A    between atoms: C_37  and  C_38
REMARK   13  A    between atoms: C_37  and  C_39
REMARK                            x       y       z     vdW  Elec       q    Type
REMARK                         _______ _______ _______ _____ _____    ______ ____
ROOT
ATOM      1  N   UNL     1       2.302  -2.965   6.436  0.00  0.00    +0.394 N 
ATOM      2  H   UNL     1       3.150  -2.469   6.666  0.00  0.00    -0.080 HD
ENDROOT
BRANCH   1   3
ATOM      3  C   UNL     1       1.144  -2.095   6.681  0.00  0.00    -0.036 C 
BRANCH   3  15
ATOM      4  C   UNL     1       3.394   4.074   6.977  0.00  0.00    +0.046 C 
ATOM      5  C   UNL     1       2.670   3.330   5.884  0.00  0.00    -0.026 A 
ATOM      6  C   UNL     1       2.382   3.959   4.692  0.00  0.00    +0.005 A 
ATOM      7  C   UNL     1       1.715   3.285   3.678  0.00  0.00    +0.001 A 
ATOM      8  C   UNL     1       1.332   1.984   3.844  0.00  0.00    +0.010 A 
ATOM      9  C   UNL     1       1.614   1.325   5.044  0.00  0.00    -0.001 A 
ATOM     10  C   UNL     1       2.295   2.004   6.073  0.00  0.00    +0.052 A 
ATOM     11  N   UNL     1       2.575   1.349   7.253  0.00  0.00    -0.322 N 
ATOM     12  H   UNL     1       3.041   1.819   7.962  0.00  0.00    +0.169 HD
ATOM     13  C   UNL     1       2.212   0.067   7.436  0.00  0.00    +0.251 A 
ATOM     14  O   UNL     1       2.475  -0.480   8.492  0.00  0.00    -0.268 OA
ATOM     15  C   UNL     1       1.533  -0.660   6.434  0.00  0.00    +0.001 A 
ATOM     16  C   UNL     1       1.218  -0.068   5.255  0.00  0.00    +0.017 A 
ENDBRANCH   3  15
ENDBRANCH   1   3
BRANCH   1  17
ATOM     17  C   UNL     1       2.331  -3.353   5.019  0.00  0.00    -0.002 C 
BRANCH  17  18
ATOM     18  C   UNL     1       2.906  -2.226   4.201  0.00  0.00    +0.089 A 
ATOM     19  C   UNL     1       4.211  -2.027   3.943  0.00  0.00    +0.042 A 
ATOM     20  C   UNL     1       4.298  -0.864   3.145  0.00  0.00    +0.041 A 
ATOM     21  C   UNL     1       3.041  -0.420   2.963  0.00  0.00    +0.195 A 
ATOM     22  O   UNL     1       2.201  -1.253   3.600  0.00  0.00    -0.470 OA
ENDBRANCH  17  18
ENDBRANCH   1  17
BRANCH   1  23
ATOM     23  C   UNL     1       2.197  -4.168   7.272  0.00  0.00    +0.006 C 
BRANCH  23  24
ATOM     24  C   UNL     1       3.546  -4.832   7.369  0.00  0.00    +0.138 A 
ATOM     25  N   UNL     1       4.385  -5.047   6.385  0.00  0.00    -0.115 NA
ATOM     26  N   UNL     1       5.424  -5.636   6.869  0.00  0.00    -0.023 NA
ATOM     27  N   UNL     1       5.269  -5.802   8.136  0.00  0.00    -0.044 NA
ATOM     28  N   UNL     1       4.126  -5.314   8.483  0.00  0.00    -0.231 N 
BRANCH  28  29
ATOM     29  C   UNL     1       3.563  -5.293   9.836  0.00  0.00    +0.152 C 
BRANCH  29  30
ATOM     30  C   UNL     1       2.753  -6.570  10.071  0.00  0.00    +0.058 C 
BRANCH  30  31
ATOM     31  C   UNL     1       2.174  -6.548  11.462  0.00  0.00    -0.046 A 
ATOM     32  C   UNL     1       2.892  -7.079  12.518  0.00  0.00    +0.004 A 
ATOM     33  C   UNL     1       2.361  -7.059  13.794  0.00  0.00    +0.000 A 
ATOM     34  C   UNL     1       1.113  -6.508  14.015  0.00  0.00    +0.000 A 
ATOM     35  C   UNL     1       0.396  -5.976  12.960  0.00  0.00    +0.000 A 
ATOM     36  C   UNL     1       0.928  -5.992  11.684  0.00  0.00    +0.004 A 
ENDBRANCH  30  31
ENDBRANCH  29  30
ENDBRANCH  28  29
ENDBRANCH  23  24
BRANCH  23  37
ATOM     37  C   UNL     1       1.194  -5.139   6.644  0.00  0.00    -0.024 C 
ATOM     38  C   UNL     1      -0.079  -4.381   6.263  0.00  0.00    +0.006 C 
ATOM     39  C   UNL     1       1.809  -5.767   5.391  0.00  0.00    +0.006 C 
ENDBRANCH  23  37
ENDBRANCH   1  23
TORSDOF 10
