REMARK  Name = ZINC63216235
REMARK  3 active torsions:
REMARK  status: ('A' for Active; 'I' for Inactive)
REMARK    1  A    between atoms: C_6  and  C_7
REMARK    2  A    between atoms: C_7  and  C_8
REMARK    3  A    between atoms: C_10  and  C_13
REMARK                            x       y       z     vdW  Elec       q    Type
REMARK                         _______ _______ _______ _____ _____    ______ ____
ROOT
ATOM      1  C   UNL     1      -1.721  -1.080  -1.439  0.00  0.00    +0.176 A 
ATOM      2  N   UNL     1      -2.549  -0.290  -2.127  0.00  0.00    -0.190 NA
ATOM      3  C   UNL     1      -2.674  -0.734  -3.358  0.00  0.00    +0.280 A 
ATOM      4  O   UNL     1      -1.913  -1.836  -3.482  0.00  0.00    -0.331 OA
ATOM      5  N   UNL     1      -1.299  -2.037  -2.217  0.00  0.00    -0.060 NA
ENDROOT
BRANCH   3   6
ATOM      6  C   UNL     1      -3.504  -0.129  -4.418  0.00  0.00    +0.167 A 
ATOM      7  C   UNL     1      -4.349  -0.934  -5.201  0.00  0.00    +0.147 A 
ATOM      8  N   UNL     1      -5.091  -0.380  -6.150  0.00  0.00    -0.237 NA
ATOM      9  C   UNL     1      -5.033   0.924  -6.357  0.00  0.00    +0.132 A 
ATOM     10  C   UNL     1      -4.200   1.719  -5.586  0.00  0.00    +0.131 A 
ATOM     11  N   UNL     1      -3.460   1.183  -4.635  0.00  0.00    -0.245 NA
ATOM     12  N   UNL     1      -4.406  -2.300  -4.981  0.00  0.00    -0.341 N 
ATOM     13  H   UNL     1      -3.934  -2.691  -4.230  0.00  0.00    +0.144 HD
ATOM     14  H   UNL     1      -4.919  -2.866  -5.580  0.00  0.00    +0.144 HD
ENDBRANCH   3   6
BRANCH   1  15
ATOM     15  C   UNL     1      -1.331  -0.892   0.004  0.00  0.00    +0.115 C 
BRANCH  15  21
ATOM     16  C   UNL     1      -0.237   1.353   0.180  0.00  0.00    +0.005 A 
ATOM     17  C   UNL     1       0.887   2.154   0.254  0.00  0.00    +0.022 A 
ATOM     18  C   UNL     1       2.146   1.582   0.229  0.00  0.00    +0.059 A 
ATOM     19  C   UNL     1       2.280   0.207   0.132  0.00  0.00    +0.060 A 
ATOM     20  C   UNL     1       1.154  -0.593   0.059  0.00  0.00    +0.025 A 
ATOM     21  C   UNL     1      -0.104  -0.020   0.083  0.00  0.00    -0.038 A 
ATOM     22 CL   UNL     1       3.859  -0.512   0.101  0.00  0.00    -0.082 Cl
ATOM     23 CL   UNL     1       3.558   2.587   0.321  0.00  0.00    -0.082 Cl
ENDBRANCH  15  21
ENDBRANCH   1  15
TORSDOF 3
