REMARK  Name = ZINC06300072
REMARK  13 active torsions:
REMARK  status: ('A' for Active; 'I' for Inactive)
REMARK    1  A    between atoms: C_1  and  C_2
REMARK    2  A    between atoms: C_3  and  C_9
REMARK    3  A    between atoms: C_4  and  O_8
REMARK    4  A    between atoms: C_9  and  C_10
REMARK    5  A    between atoms: C_9  and  C_27
REMARK    6  A    between atoms: C_13  and  C_15
REMARK    7  A    between atoms: C_18  and  C_21
REMARK    8  A    between atoms: C_21  and  O_23
REMARK    9  A    between atoms: O_23  and  C_24
REMARK   10  A    between atoms: C_24  and  C_25
REMARK   11  A    between atoms: C_24  and  C_26
REMARK   12  A    between atoms: C_28  and  C_34
REMARK   13  A    between atoms: C_32  and  O_33
REMARK                            x       y       z     vdW  Elec       q    Type
REMARK                         _______ _______ _______ _____ _____    ______ ____
ROOT
ATOM      1  C   UNL     1       0.032  -0.291  -2.623  0.00  0.00    +0.129 C 
ENDROOT
BRANCH   1   4
ATOM      2  C   UNL     1       2.437  -0.968  -0.674  0.00  0.00    +0.068 C 
ATOM      3  C   UNL     1       0.986  -1.301  -0.437  0.00  0.00    +0.068 A 
ATOM      4  C   UNL     1      -0.074  -1.002  -1.298  0.00  0.00    +0.051 A 
ATOM      5  C   UNL     1      -1.217  -1.466  -0.728  0.00  0.00    +0.213 A 
ATOM      6  N   UNL     1      -0.883  -2.037   0.451  0.00  0.00    -0.247 N 
ATOM      7  H   UNL     1      -1.496  -2.454   1.077  0.00  0.00    +0.192 HD
ATOM      8  N   UNL     1       0.504  -1.925   0.607  0.00  0.00    -0.176 NA
BRANCH   5   9
ATOM      9  O   UNL     1      -2.468  -1.373  -1.248  0.00  0.00    -0.492 OA
ATOM     10  H   UNL     1      -2.749  -2.157  -1.738  0.00  0.00    +0.294 HD
ENDBRANCH   5   9
ENDBRANCH   1   4
BRANCH   1  11
ATOM     11  C   UNL     1       1.307  -0.701  -3.312  0.00  0.00    +0.051 A 
ATOM     12  C   UNL     1       2.267   0.134  -3.775  0.00  0.00    +0.041 A 
ATOM     13  N   UNL     1       3.241  -0.621  -4.323  0.00  0.00    -0.278 N 
ATOM     14  N   UNL     1       2.872  -1.966  -4.196  0.00  0.00    -0.136 NA
ATOM     15  H   UNL     1       4.055  -0.290  -4.734  0.00  0.00    +0.189 HD
ATOM     16  C   UNL     1       1.713  -2.016  -3.584  0.00  0.00    +0.236 A 
ATOM     17  C   UNL     1       2.249   1.639  -3.692  0.00  0.00    +0.065 C 
BRANCH  16  18
ATOM     18  O   UNL     1       1.024  -3.145  -3.271  0.00  0.00    -0.491 OA
ATOM     19  H   UNL     1       0.413  -3.438  -3.961  0.00  0.00    +0.294 HD
ENDBRANCH  16  18
ENDBRANCH   1  11
BRANCH   1  20
ATOM     20  C   UNL     1      -1.147  -0.659  -3.486  0.00  0.00    +0.118 A 
ATOM     21  C   UNL     1      -2.055   0.204  -3.986  0.00  0.00    +0.046 A 
ATOM     22  C   UNL     1      -2.979  -0.555  -4.730  0.00  0.00    +0.050 A 
ATOM     23  C   UNL     1      -2.580  -1.853  -4.643  0.00  0.00    +0.135 A 
ATOM     24  O   UNL     1      -1.464  -1.899  -3.889  0.00  0.00    -0.459 OA
BRANCH  23  25
ATOM     25  C   UNL     1      -3.250  -3.009  -5.269  0.00  0.00    +0.017 A 
ATOM     26  C   UNL     1      -4.401  -2.816  -6.040  0.00  0.00    +0.012 A 
ATOM     27  C   UNL     1      -5.021  -3.886  -6.620  0.00  0.00    +0.015 A 
ATOM     28  C   UNL     1      -4.505  -5.174  -6.444  0.00  0.00    +0.059 A 
ATOM     29  C   UNL     1      -3.353  -5.366  -5.673  0.00  0.00    +0.015 A 
ATOM     30  C   UNL     1      -2.731  -4.296  -5.098  0.00  0.00    +0.012 A 
BRANCH  28  31
ATOM     31  C   UNL     1      -5.175  -6.329  -7.070  0.00  0.00    +0.339 C 
ATOM     32  O   UNL     1      -6.175  -6.161  -7.739  0.00  0.00    -0.245 OA
BRANCH  31  33
ATOM     33  O   UNL     1      -4.677  -7.569  -6.900  0.00  0.00    -0.458 OA
BRANCH  33  34
ATOM     34  C   UNL     1      -5.377  -8.641  -7.535  0.00  0.00    +0.171 C 
ATOM     35  C   UNL     1      -4.390  -9.755  -7.891  0.00  0.00    +0.052 C 
ATOM     36  C   UNL     1      -6.442  -9.190  -6.583  0.00  0.00    +0.052 C 
ENDBRANCH  33  34
ENDBRANCH  31  33
ENDBRANCH  28  31
ENDBRANCH  23  25
ENDBRANCH   1  20
TORSDOF 9
