REMARK  Name = ZINC39709630
REMARK  15 active torsions:
REMARK  status: ('A' for Active; 'I' for Inactive)
REMARK    1  A    between atoms: C_1  and  N_2
REMARK    2  A    between atoms: N_2  and  C_3
REMARK    3  A    between atoms: N_2  and  C_4
REMARK    4  A    between atoms: C_4  and  C_5
REMARK    5  A    between atoms: C_5  and  C_6
REMARK    6  A    between atoms: C_6  and  N_7
REMARK    7  A    between atoms: N_7  and  C_8
REMARK    8  A    between atoms: C_8  and  N_10
REMARK    9  A    between atoms: N_10  and  C_11
REMARK   10  A    between atoms: N_10  and  C_28
REMARK   11  A    between atoms: C_11  and  C_12
REMARK   12  A    between atoms: C_17  and  O_26
REMARK   13  A    between atoms: C_18  and  O_24
REMARK   14  A    between atoms: O_24  and  C_25
REMARK   15  A    between atoms: O_26  and  C_27
REMARK                            x       y       z     vdW  Elec       q    Type
REMARK                         _______ _______ _______ _____ _____    ______ ____
ROOT
ATOM      1  N   UNL     1      -6.117  -0.175  -3.828  0.00  0.00    -0.309 N 
ENDROOT
BRANCH   1   2
ATOM      2  C   UNL     1      -5.400   0.601  -4.842  0.00  0.00    +0.075 C 
ATOM      3  C   UNL     1      -4.269  -0.249  -5.457  0.00  0.00    +0.022 C 
ATOM      4  C   UNL     1      -3.115   0.759  -5.683  0.00  0.00    +0.002 C 
ATOM      5  C   UNL     1      -3.212   1.673  -4.436  0.00  0.00    +0.002 C 
ATOM      6  C   UNL     1      -4.728   1.823  -4.193  0.00  0.00    +0.022 C 
ENDBRANCH   1   2
BRANCH   1   7
ATOM      7  C   UNL     1      -5.432  -0.795  -2.846  0.00  0.00    +0.133 C 
ATOM      8  S   UNL     1      -6.252  -1.823  -1.749  0.00  0.00    -0.019 S 
BRANCH   7   9
ATOM      9  N   UNL     1      -4.103  -0.605  -2.727  0.00  0.00    -0.326 N 
ATOM     10  H   UNL     1      -3.626  -0.085  -3.393  0.00  0.00    +0.148 HD
BRANCH   9  11
ATOM     11  C   UNL     1      -3.379  -1.184  -1.593  0.00  0.00    +0.101 C 
BRANCH  11  12
ATOM     12  C   UNL     1      -1.896  -0.822  -1.696  0.00  0.00    +0.000 C 
BRANCH  12  13
ATOM     13  C   UNL     1      -1.140  -1.427  -0.512  0.00  0.00    -0.078 C 
BRANCH  13  15
ATOM     14  C   UNL     1       0.444   0.375  -0.473  0.00  0.00    -0.097 C 
ATOM     15  N   UNL     1       0.284  -1.079  -0.611  0.00  0.00    +0.376 N 
ATOM     16  C   UNL     1       1.030  -1.757   0.458  0.00  0.00    -0.097 C 
ATOM     17  H   UNL     1       0.640  -1.373  -1.508  0.00  0.00    -0.083 HD
ENDBRANCH  13  15
ENDBRANCH  12  13
ENDBRANCH  11  12
ENDBRANCH   9  11
ENDBRANCH   7   9
ENDBRANCH   1   7
BRANCH   1  18
ATOM     18  C   UNL     1      -7.577  -0.279  -3.881  0.00  0.00    +0.124 C 
BRANCH  18  19
ATOM     19  C   UNL     1      -8.199   0.865  -3.076  0.00  0.00    +0.116 C 
ATOM     20  C   UNL     1      -9.692   0.856  -3.333  0.00  0.00    -0.003 C 
ATOM     21  C   UNL     1     -10.512   0.724  -2.256  0.00  0.00    -0.003 A 
ATOM     22  C   UNL     1     -11.967   0.707  -2.421  0.00  0.00    +0.059 A 
ATOM     23  C   UNL     1     -12.754   0.575  -1.323  0.00  0.00    +0.162 A 
ATOM     24  C   UNL     1     -12.195   0.454  -0.036  0.00  0.00    +0.163 A 
ATOM     25  C   UNL     1     -10.836   0.464   0.178  0.00  0.00    +0.073 A 
ATOM     26  C   UNL     1      -9.948   0.597  -0.899  0.00  0.00    +0.044 A 
ATOM     27  N   UNL     1      -8.632   0.605  -0.677  0.00  0.00    -0.284 N 
ATOM     28  C   UNL     1      -7.739   0.726  -1.643  0.00  0.00    +0.226 C 
ATOM     29  O   UNL     1      -6.551   0.727  -1.379  0.00  0.00    -0.275 OA
ATOM     30  H   UNL     1      -8.316   0.519   0.236  0.00  0.00    +0.155 HD
BRANCH  24  31
ATOM     31  O   UNL     1     -13.024   0.325   1.028  0.00  0.00    -0.491 OA
ATOM     32  C   UNL     1     -12.415   0.206   2.315  0.00  0.00    +0.277 C 
ENDBRANCH  24  31
BRANCH  23  33
ATOM     33  O   UNL     1     -14.106   0.558  -1.468  0.00  0.00    -0.491 OA
ATOM     34  C   UNL     1     -14.617   0.684  -2.796  0.00  0.00    +0.277 C 
ENDBRANCH  23  33
ENDBRANCH  18  19
ENDBRANCH   1  18
TORSDOF 11
