REMARK  Name = ZINC32937233
REMARK  5 active torsions:
REMARK  status: ('A' for Active; 'I' for Inactive)
REMARK    1  A    between atoms: C_11  and  C_13
REMARK    2  A    between atoms: C_13  and  O_14
REMARK    3  A    between atoms: O_14  and  C_15
REMARK    4  A    between atoms: C_15  and  C_17
REMARK    5  A    between atoms: N_25  and  C_26
REMARK                            x       y       z     vdW  Elec       q    Type
REMARK                         _______ _______ _______ _____ _____    ______ ____
ROOT
ATOM      1  C   UNL     1       5.167  -0.510   0.548  0.00  0.00    +0.328 C 
ATOM      2  O   UNL     1       4.432  -0.952  -0.302  0.00  0.00    -0.249 OA
ENDROOT
BRANCH   1   3
ATOM      3  C   UNL     1       5.013   0.917   1.009  0.00  0.00    +0.186 C 
ATOM      4  C   UNL     1       6.298   1.710   0.689  0.00  0.00    +0.035 C 
ATOM      5  C   UNL     1       5.750   3.096   0.259  0.00  0.00    +0.021 C 
ATOM      6  C   UNL     1       4.449   2.700  -0.483  0.00  0.00    +0.110 C 
ATOM      7  N   UNL     1       3.910   1.561   0.282  0.00  0.00    -0.272 N 
ATOM      8  C   UNL     1       2.618   1.178   0.315  0.00  0.00    +0.303 C 
ATOM      9  O   UNL     1       2.285   0.219   0.984  0.00  0.00    -0.253 OA
ATOM     10  N   UNL     1       1.696   1.857  -0.395  0.00  0.00    -0.296 N 
ATOM     11  H   UNL     1       1.997   2.725  -1.000  0.00  0.00    +0.151 HD
BRANCH  10  12
ATOM     12  C   UNL     1       0.291   1.441  -0.359  0.00  0.00    +0.074 C 
ATOM     13  C   UNL     1      -0.396   2.067   0.856  0.00  0.00    +0.022 C 
ATOM     14  C   UNL     1      -1.862   1.631   0.893  0.00  0.00    +0.002 C 
ATOM     15  C   UNL     1      -2.564   2.095  -0.385  0.00  0.00    +0.000 C 
ATOM     16  C   UNL     1      -1.877   1.470  -1.600  0.00  0.00    +0.002 C 
ATOM     17  C   UNL     1      -0.411   1.905  -1.637  0.00  0.00    +0.022 C 
ENDBRANCH  10  12
ENDBRANCH   1   3
BRANCH   1  18
ATOM     18  O   UNL     1       6.120  -1.289   1.083  0.00  0.00    -0.454 OA
BRANCH  18  19
ATOM     19  C   UNL     1       6.210  -2.652   0.591  0.00  0.00    +0.328 C 
BRANCH  19  30
ATOM     20  C   UNL     1      10.589  -5.095   3.081  0.00  0.00    +0.002 A 
ATOM     21  C   UNL     1      10.704  -6.472   3.130  0.00  0.00    +0.001 A 
ATOM     22  C   UNL     1       9.793  -7.263   2.457  0.00  0.00    +0.016 A 
ATOM     23  C   UNL     1       8.761  -6.679   1.732  0.00  0.00    +0.029 A 
ATOM     24  C   UNL     1       8.638  -5.293   1.686  0.00  0.00    +0.050 A 
ATOM     25  C   UNL     1       9.566  -4.507   2.366  0.00  0.00    +0.024 A 
ATOM     26  N   UNL     1       7.617  -4.648   0.986  0.00  0.00    -0.267 N 
ATOM     27  C   UNL     1       6.842  -5.297  -0.068  0.00  0.00    +0.125 C 
ATOM     28  C   UNL     1       6.247  -6.598   0.480  0.00  0.00    +0.094 C 
ATOM     29  S   UNL     1       7.627  -7.717   0.867  0.00  0.00    -0.122 S 
ATOM     30  C   UNL     1       7.329  -3.370   1.301  0.00  0.00    +0.258 C 
ATOM     31  O   UNL     1       7.971  -2.796   2.155  0.00  0.00    -0.272 OA
ENDBRANCH  19  30
ENDBRANCH  18  19
ENDBRANCH   1  18
TORSDOF 5
