REMARK  Name = ZINC09520490
REMARK  9 active torsions:
REMARK  status: ('A' for Active; 'I' for Inactive)
REMARK    1  A    between atoms: C_1  and  C_2
REMARK    2  A    between atoms: C_2  and  O_3
REMARK    3  A    between atoms: O_3  and  C_4
REMARK    4  A    between atoms: C_4  and  C_6
REMARK    5  A    between atoms: C_10  and  N_11
REMARK    6  A    between atoms: C_12  and  C_14
REMARK    7  A    between atoms: C_14  and  C_16
REMARK    8  A    between atoms: C_14  and  S_17
REMARK    9  A    between atoms: S_17  and  C_18
REMARK                            x       y       z     vdW  Elec       q    Type
REMARK                         _______ _______ _______ _____ _____    ______ ____
ROOT
ATOM      1  C   UNL     1       2.462   0.920  -0.017  0.00  0.00    +0.137 C 
ATOM      2  C   UNL     1       2.832   0.569  -1.459  0.00  0.00    +0.029 C 
ENDROOT
BRANCH   1   4
ATOM      3  N   UNL     1      -0.011   0.966   0.007  0.00  0.00    -0.278 N 
ATOM      4  C   UNL     1       1.147   1.655   0.000  0.00  0.00    +0.231 C 
ATOM      5  O   UNL     1       1.130   2.868   0.007  0.00  0.00    -0.274 OA
ATOM      6  H   UNL     1       0.002  -0.004   0.002  0.00  0.00    +0.155 HD
BRANCH   3  11
ATOM      7  C   UNL     1      -2.502   1.116   0.014  0.00  0.00    +0.091 A 
ATOM      8  C   UNL     1      -3.621   2.058   0.029  0.00  0.00    -0.021 A 
ATOM      9  C   UNL     1      -3.274   3.357   0.035  0.00  0.00    -0.004 A 
ATOM     10  S   UNL     1      -1.498   3.351   0.027  0.00  0.00    -0.077 S 
ATOM     11  C   UNL     1      -1.221   1.643   0.017  0.00  0.00    +0.086 A 
ATOM     12  C   UNL     1      -4.476   4.262   0.048  0.00  0.00    +0.043 C 
ATOM     13  C   UNL     1      -5.644   3.352   0.487  0.00  0.00    +0.010 C 
ATOM     14  C   UNL     1      -5.147   1.964   0.034  0.00  0.00    +0.037 C 
BRANCH   7  15
ATOM     15  C   UNL     1      -2.728  -0.331   0.001  0.00  0.00    +0.342 C 
ATOM     16  O   UNL     1      -2.820  -0.942   1.049  0.00  0.00    -0.245 OA
BRANCH  15  17
ATOM     17  O   UNL     1      -2.834  -0.986  -1.173  0.00  0.00    -0.461 OA
BRANCH  17  19
ATOM     18  C   UNL     1      -3.150  -2.984  -2.530  0.00  0.00    +0.048 C 
ATOM     19  C   UNL     1      -3.057  -2.420  -1.111  0.00  0.00    +0.229 C 
ENDBRANCH  17  19
ENDBRANCH  15  17
ENDBRANCH   7  15
ENDBRANCH   3  11
ENDBRANCH   1   4
BRANCH   1  20
ATOM     20  S   UNL     1       3.753   1.974   0.700  0.00  0.00    -0.073 S 
BRANCH  20  21
ATOM     21  C   UNL     1       5.175   0.934   0.746  0.00  0.00    +0.198 A 
ATOM     22  N   UNL     1       5.231  -0.314   0.346  0.00  0.00    -0.120 NA
ATOM     23  N   UNL     1       6.538  -0.777   0.549  0.00  0.00    -0.109 NA
ATOM     24  C   UNL     1       7.237   0.199   1.074  0.00  0.00    +0.237 A 
ATOM     25  N   UNL     1       6.415   1.284   1.210  0.00  0.00    -0.260 N 
ATOM     26  C   UNL     1       6.888   2.472   1.740  0.00  0.00    +0.037 A 
ATOM     27  C   UNL     1       8.164   2.561   2.135  0.00  0.00    +0.037 A 
ATOM     28  C   UNL     1       9.024   1.433   1.996  0.00  0.00    +0.256 A 
ATOM     29  O   UNL     1      10.186   1.510   2.352  0.00  0.00    -0.267 OA
ATOM     30  N   UNL     1       8.560   0.283   1.474  0.00  0.00    -0.291 N 
ATOM     31  H   UNL     1       9.149  -0.482   1.379  0.00  0.00    +0.172 HD
ATOM     32  C   UNL     1       8.751   3.810   2.737  0.00  0.00    +0.042 C 
ATOM     33  C   UNL     1       7.878   5.023   2.424  0.00  0.00    +0.005 C 
ATOM     34  C   UNL     1       6.432   4.683   2.804  0.00  0.00    +0.006 C 
ATOM     35  C   UNL     1       5.920   3.622   1.833  0.00  0.00    +0.054 C 
ENDBRANCH  20  21
ENDBRANCH   1  20
TORSDOF 7
