REMARK  Name = ZINC64580502
REMARK  6 active torsions:
REMARK  status: ('A' for Active; 'I' for Inactive)
REMARK    1  A    between atoms: C_1  and  C_2
REMARK    2  A    between atoms: C_7  and  C_12
REMARK    3  A    between atoms: C_12  and  N_13
REMARK    4  A    between atoms: C_14  and  C_16
REMARK    5  A    between atoms: C_21  and  C_22
REMARK    6  A    between atoms: C_25  and  C_28
REMARK                            x       y       z     vdW  Elec       q    Type
REMARK                         _______ _______ _______ _____ _____    ______ ____
ROOT
ATOM      1  C   UNL     1      -4.812  -4.156   1.436  0.00  0.00    +0.045 A 
ATOM      2  C   UNL     1      -4.700  -2.933   0.771  0.00  0.00    +0.013 A 
ATOM      3  C   UNL     1      -5.837  -2.248   0.399  0.00  0.00    +0.001 A 
ATOM      4  C   UNL     1      -7.087  -2.768   0.683  0.00  0.00    +0.000 A 
ATOM      5  C   UNL     1      -7.205  -3.979   1.342  0.00  0.00    +0.010 A 
ATOM      6  C   UNL     1      -6.075  -4.678   1.715  0.00  0.00    +0.026 A 
ENDROOT
BRANCH   6   7
ATOM      7  C   UNL     1      -6.206  -6.000   2.427  0.00  0.00    +0.324 C 
ATOM      8  N   UNL     1      -7.588  -6.198   2.892  0.00  0.00    -0.286 N 
ATOM      9  C   UNL     1      -8.063  -7.332   2.259  0.00  0.00    +0.168 C 
ATOM     10  N   UNL     1      -7.167  -7.844   1.481  0.00  0.00    -0.066 NA
ATOM     11  O   UNL     1      -5.970  -7.085   1.517  0.00  0.00    -0.364 OA
ATOM     12  H   UNL     1      -8.072  -5.641   3.522  0.00  0.00    +0.151 HD
BRANCH   9  13
ATOM     13  C   UNL     1      -9.422  -7.888   2.449  0.00  0.00    +0.018 A 
ATOM     14  C   UNL     1     -10.321  -7.259   3.310  0.00  0.00    +0.014 A 
ATOM     15  C   UNL     1     -11.586  -7.781   3.483  0.00  0.00    +0.039 A 
ATOM     16  C   UNL     1     -11.964  -8.928   2.804  0.00  0.00    +0.123 A 
ATOM     17  C   UNL     1     -11.073  -9.557   1.948  0.00  0.00    +0.039 A 
ATOM     18  C   UNL     1      -9.809  -9.040   1.764  0.00  0.00    +0.014 A 
ATOM     19  F   UNL     1     -13.204  -9.436   2.978  0.00  0.00    -0.205 F 
ENDBRANCH   9  13
ENDBRANCH   6   7
BRANCH   1  21
ATOM     20  N   UNL     1      -2.378  -4.389   1.567  0.00  0.00    -0.308 N 
ATOM     21  C   UNL     1      -3.597  -4.897   1.838  0.00  0.00    +0.245 C 
ATOM     22  O   UNL     1      -3.697  -5.963   2.412  0.00  0.00    -0.270 OA
ATOM     23  H   UNL     1      -2.298  -3.538   1.108  0.00  0.00    +0.149 HD
BRANCH  20  24
ATOM     24  C   UNL     1      -1.174  -5.123   1.965  0.00  0.00    +0.151 C 
BRANCH  24  31
ATOM     25  C   UNL     1      -0.018   1.503   0.010  0.00  0.00    +0.044 C 
ATOM     26  C   UNL     1       0.002  -0.004   0.002  0.00  0.00    -0.048 A 
ATOM     27  C   UNL     1       0.005  -0.672  -1.235  0.00  0.00    +0.005 A 
ATOM     28  C   UNL     1       0.022  -2.017  -1.335  0.00  0.00    +0.027 A 
ATOM     29  C   UNL     1       0.040  -2.834  -0.114  0.00  0.00    +0.060 A 
ATOM     30  N   UNL     1       0.057  -4.120   0.090  0.00  0.00    -0.362 N 
ATOM     31  C   UNL     1       0.067  -4.335   1.542  0.00  0.00    +0.191 C 
ATOM     32  N   UNL     1       0.053  -3.002   2.159  0.00  0.00    -0.362 N 
ATOM     33  C   UNL     1       0.037  -2.127   1.195  0.00  0.00    +0.060 A 
ATOM     34  C   UNL     1       0.022  -0.657   1.181  0.00  0.00    +0.030 A 
ATOM     35  H   UNL     1       0.062  -4.809  -0.593  0.00  0.00    +0.162 HD
ATOM     36  H   UNL     1       0.055  -2.810   3.109  0.00  0.00    +0.162 HD
ENDBRANCH  24  31
ENDBRANCH  20  24
ENDBRANCH   1  21
TORSDOF 5
