REMARK  Name = ZINC62181828
REMARK  7 active torsions:
REMARK  status: ('A' for Active; 'I' for Inactive)
REMARK    1  A    between atoms: C_1  and  C_2
REMARK    2  A    between atoms: C_2  and  C_3
REMARK    3  A    between atoms: C_2  and  C_10
REMARK    4  A    between atoms: C_2  and  S_13
REMARK    5  A    between atoms: C_3  and  C_4
REMARK    6  A    between atoms: S_13  and  C_14
REMARK    7  A    between atoms: C_17  and  N_20
REMARK                            x       y       z     vdW  Elec       q    Type
REMARK                         _______ _______ _______ _____ _____    ______ ____
ROOT
ATOM      1  C   UNL     1       0.513   1.761  -0.175  0.00  0.00    +0.035 C 
ATOM      2  C   UNL     1       0.248   0.261  -0.027  0.00  0.00    +0.123 C 
ENDROOT
BRANCH   2   3
ATOM      3  C   UNL     1      -1.217   0.035   0.244  0.00  0.00    +0.372 C 
ATOM      4  O   UNL     1      -1.882  -0.639  -0.524  0.00  0.00    -0.245 OA
ATOM      5  O   UNL     1      -1.737   0.525   1.232  0.00  0.00    -0.245 OA
ENDBRANCH   2   3
BRANCH   2   6
ATOM      6  C   UNL     1       1.073  -0.290   1.137  0.00  0.00    +0.064 C 
BRANCH   6   7
ATOM      7  C   UNL     1       0.720  -1.738   1.362  0.00  0.00    -0.046 A 
ATOM      8  C   UNL     1      -0.306  -2.074   2.226  0.00  0.00    +0.004 A 
ATOM      9  C   UNL     1      -0.629  -3.402   2.432  0.00  0.00    +0.000 A 
ATOM     10  C   UNL     1       0.072  -4.394   1.774  0.00  0.00    +0.000 A 
ATOM     11  C   UNL     1       1.098  -4.059   0.909  0.00  0.00    +0.000 A 
ATOM     12  C   UNL     1       1.419  -2.730   0.700  0.00  0.00    +0.004 A 
ENDBRANCH   6   7
ENDBRANCH   2   6
BRANCH   2  13
ATOM     13  S   UNL     1       0.718  -0.591  -1.558  0.00  0.00    -0.107 S 
BRANCH  13  14
ATOM     14  C   UNL     1      -0.266   0.185  -2.797  0.00  0.00    +0.009 A 
ATOM     15  C   UNL     1      -1.238   1.109  -2.434  0.00  0.00    +0.016 A 
ATOM     16  C   UNL     1      -2.009   1.716  -3.405  0.00  0.00    +0.024 A 
ATOM     17  C   UNL     1      -1.812   1.405  -4.744  0.00  0.00    +0.025 A 
ATOM     18  C   UNL     1      -0.840   0.482  -5.107  0.00  0.00    +0.024 A 
ATOM     19  C   UNL     1      -0.065  -0.121  -4.137  0.00  0.00    +0.016 A 
BRANCH  17  20
ATOM     20  N   UNL     1      -2.595   2.021  -5.729  0.00  0.00    -0.358 N 
ATOM     21  H   UNL     1      -3.274   2.665  -5.475  0.00  0.00    +0.142 HD
ATOM     22  H   UNL     1      -2.457   1.803  -6.664  0.00  0.00    +0.142 HD
ENDBRANCH  17  20
ENDBRANCH  13  14
ENDBRANCH   2  13
TORSDOF 6
