REMARK  Name = ZINC55158337
REMARK  11 active torsions:
REMARK  status: ('A' for Active; 'I' for Inactive)
REMARK    1  A    between atoms: C_1  and  C_2
REMARK    2  A    between atoms: C_2  and  N_3
REMARK    3  A    between atoms: N_3  and  C_4
REMARK    4  A    between atoms: N_3  and  C_6
REMARK    5  A    between atoms: C_4  and  C_5
REMARK    6  A    between atoms: C_6  and  C_7
REMARK    7  A    between atoms: C_7  and  C_8
REMARK    8  A    between atoms: C_11  and  C_22
REMARK    9  A    between atoms: C_14  and  C_16
REMARK   10  A    between atoms: C_24  and  C_34
REMARK   11  A    between atoms: C_27  and  C_28
REMARK                            x       y       z     vdW  Elec       q    Type
REMARK                         _______ _______ _______ _____ _____    ______ ____
ROOT
ATOM      1  C   UNL     1      -1.388  -3.621  -1.836  0.00  0.00    +0.234 C 
ATOM      2  O   UNL     1      -0.446  -4.381  -1.909  0.00  0.00    -0.274 OA
ATOM      3  N   UNL     1      -2.645  -4.092  -1.964  0.00  0.00    -0.184 N 
ATOM      4  C   UNL     1      -3.013  -5.499  -2.187  0.00  0.00    +0.157 C 
ATOM      5  C   UNL     1      -4.553  -5.463  -2.253  0.00  0.00    +0.088 C 
ATOM      6  C   UNL     1      -4.892  -4.003  -2.054  0.00  0.00    +0.069 C 
ATOM      7  N   UNL     1      -3.807  -3.326  -1.900  0.00  0.00    -0.181 NA
ENDROOT
BRANCH   6   8
ATOM      8  C   UNL     1      -6.256  -3.441  -2.036  0.00  0.00    -0.002 A 
ATOM      9  C   UNL     1      -7.362  -4.278  -2.204  0.00  0.00    +0.010 A 
ATOM     10  C   UNL     1      -8.634  -3.745  -2.186  0.00  0.00    +0.001 A 
ATOM     11  C   UNL     1      -8.816  -2.386  -2.001  0.00  0.00    +0.000 A 
ATOM     12  C   UNL     1      -7.725  -1.552  -1.834  0.00  0.00    +0.001 A 
ATOM     13  C   UNL     1      -6.447  -2.071  -1.844  0.00  0.00    +0.010 A 
ENDBRANCH   6   8
BRANCH   4  14
ATOM     14  C   UNL     1      -2.548  -6.358  -1.039  0.00  0.00    +0.090 A 
ATOM     15  N   UNL     1      -2.655  -6.056   0.256  0.00  0.00    -0.230 NA
ATOM     16  C   UNL     1      -2.146  -7.031   0.978  0.00  0.00    +0.139 A 
ATOM     17  H   UNL     1      -1.267  -8.838   0.394  0.00  0.00    +0.167 HD
ATOM     18  N   UNL     1      -1.690  -8.004   0.137  0.00  0.00    -0.338 N 
ATOM     19  C   UNL     1      -1.951  -7.578  -1.146  0.00  0.00    +0.071 A 
BRANCH  19  20
ATOM     20  C   UNL     1      -1.641  -8.303  -2.397  0.00  0.00    +0.000 A 
ATOM     21  C   UNL     1      -2.590  -8.376  -3.418  0.00  0.00    +0.010 A 
ATOM     22  C   UNL     1      -2.294  -9.054  -4.582  0.00  0.00    +0.001 A 
ATOM     23  C   UNL     1      -1.060  -9.659  -4.740  0.00  0.00    +0.000 A 
ATOM     24  C   UNL     1      -0.115  -9.590  -3.732  0.00  0.00    +0.001 A 
ATOM     25  C   UNL     1      -0.396  -8.911  -2.564  0.00  0.00    +0.010 A 
ENDBRANCH  19  20
BRANCH  16  26
ATOM     26  C   UNL     1      -2.079  -7.066   2.455  0.00  0.00    +0.017 A 
ATOM     27  C   UNL     1      -1.506  -8.160   3.105  0.00  0.00    +0.011 A 
ATOM     28  C   UNL     1      -1.447  -8.186   4.483  0.00  0.00    +0.001 A 
ATOM     29  C   UNL     1      -1.954  -7.131   5.220  0.00  0.00    +0.000 A 
ATOM     30  C   UNL     1      -2.523  -6.043   4.582  0.00  0.00    +0.001 A 
ATOM     31  C   UNL     1      -2.584  -6.002   3.204  0.00  0.00    +0.011 A 
ENDBRANCH  16  26
ENDBRANCH   4  14
BRANCH   1  32
ATOM     32  C   UNL     1      -1.155  -2.151  -1.603  0.00  0.00    +0.079 C 
BRANCH  32  33
ATOM     33  C   UNL     1       0.348  -1.884  -1.496  0.00  0.00    -0.070 C 
BRANCH  33  34
ATOM     34  N   UNL     1       0.576  -0.451  -1.269  0.00  0.00    +0.380 N 
ATOM     35  H   UNL     1       0.124   0.081  -1.998  0.00  0.00    -0.082 HD
BRANCH  34  37
ATOM     36  C   UNL     1       0.128   1.449   0.210  0.00  0.00    -0.017 C 
ATOM     37  C   UNL     1       0.019  -0.067   0.035  0.00  0.00    -0.082 C 
ENDBRANCH  34  37
BRANCH  34  38
ATOM     38  C   UNL     1       2.019  -0.176  -1.285  0.00  0.00    -0.082 C 
ATOM     39  C   UNL     1       2.573  -0.440  -2.687  0.00  0.00    -0.017 C 
ENDBRANCH  34  38
ENDBRANCH  33  34
ENDBRANCH  32  33
ENDBRANCH   1  32
TORSDOF 9
