REMARK  Name = ZINC39895263
REMARK  9 active torsions:
REMARK  status: ('A' for Active; 'I' for Inactive)
REMARK    1  A    between atoms: C_1  and  C_2
REMARK    2  A    between atoms: C_2  and  C_3
REMARK    3  A    between atoms: C_6  and  N_9
REMARK    4  A    between atoms: N_9  and  C_10
REMARK    5  A    between atoms: C_11  and  C_29
REMARK    6  A    between atoms: C_15  and  C_22
REMARK    7  A    between atoms: C_16  and  C_20
REMARK    8  A    between atoms: C_17  and  N_19
REMARK    9  A    between atoms: N_31  and  C_32
REMARK                            x       y       z     vdW  Elec       q    Type
REMARK                         _______ _______ _______ _____ _____    ______ ____
ROOT
ATOM      1  C   UNL     1       4.027  -1.951  -4.675  0.00  0.00    +0.085 A 
ATOM      2  C   UNL     1       4.856  -2.281  -5.740  0.00  0.00    +0.091 A 
ATOM      3  C   UNL     1       6.297  -2.342  -5.496  0.00  0.00    +0.095 A 
ATOM      4  C   UNL     1       6.687  -2.053  -4.175  0.00  0.00    +0.049 A 
ATOM      5  S   UNL     1       5.168  -1.710  -3.327  0.00  0.00    -0.071 S 
ATOM      6  C   UNL     1       8.017  -2.069  -3.784  0.00  0.00    +0.019 A 
ATOM      7  C   UNL     1       8.990  -2.389  -4.759  0.00  0.00    +0.100 A 
ATOM      8  C   UNL     1       8.545  -2.670  -6.064  0.00  0.00    +0.135 A 
ATOM      9  N   UNL     1       7.271  -2.640  -6.383  0.00  0.00    -0.230 NA
ENDROOT
BRANCH   6  10
ATOM     10  C   UNL     1       8.407  -1.760  -2.389  0.00  0.00    -0.015 A 
ATOM     11  C   UNL     1       8.185  -0.487  -1.865  0.00  0.00    +0.010 A 
ATOM     12  C   UNL     1       8.550  -0.205  -0.565  0.00  0.00    +0.020 A 
ATOM     13  C   UNL     1       9.136  -1.184   0.220  0.00  0.00    +0.041 A 
ATOM     14  C   UNL     1       9.359  -2.450  -0.295  0.00  0.00    +0.020 A 
ATOM     15  C   UNL     1       8.992  -2.744  -1.592  0.00  0.00    +0.010 A 
ATOM     16 CL   UNL     1       9.593  -0.822   1.855  0.00  0.00    -0.084 Cl
ENDBRANCH   6  10
BRANCH   2  17
ATOM     17  C   UNL     1       4.305  -2.558  -7.065  0.00  0.00    +0.248 C 
ATOM     18  O   UNL     1       4.161  -1.653  -7.866  0.00  0.00    -0.270 OA
ATOM     19  N   UNL     1       3.956  -3.816  -7.399  0.00  0.00    -0.314 N 
ATOM     20  C   UNL     1       3.403  -4.095  -8.727  0.00  0.00    +0.128 C 
ATOM     21  H   UNL     1       4.070  -4.538  -6.761  0.00  0.00    +0.149 HD
ENDBRANCH   2  17
BRANCH   8  22
ATOM     22  N   UNL     1       9.476  -2.987  -7.041  0.00  0.00    -0.342 N 
ATOM     23  H   UNL     1      10.421  -3.012  -6.820  0.00  0.00    +0.144 HD
ATOM     24  H   UNL     1       9.184  -3.183  -7.945  0.00  0.00    +0.144 HD
ENDBRANCH   8  22
BRANCH   1  25
ATOM     25  N   UNL     1       2.657  -1.833  -4.664  0.00  0.00    -0.308 N 
ATOM     26  H   UNL     1       2.143  -2.075  -5.451  0.00  0.00    +0.153 HD
BRANCH  25  30
ATOM     27  C   UNL     1       0.711  -0.437  -1.257  0.00  0.00    -0.048 A 
ATOM     28  C   UNL     1       1.961   0.054  -1.588  0.00  0.00    +0.005 A 
ATOM     29  C   UNL     1       2.609  -0.407  -2.717  0.00  0.00    +0.023 A 
ATOM     30  C   UNL     1       2.004  -1.365  -3.521  0.00  0.00    +0.032 A 
ATOM     31  C   UNL     1       0.749  -1.856  -3.185  0.00  0.00    +0.023 A 
ATOM     32  C   UNL     1       0.109  -1.395  -2.052  0.00  0.00    +0.005 A 
BRANCH  27  34
ATOM     33  C   UNL     1       0.392  -0.801   1.175  0.00  0.00    +0.009 C 
ATOM     34  C   UNL     1       0.007   0.069  -0.024  0.00  0.00    +0.032 C 
ENDBRANCH  27  34
ENDBRANCH  25  30
ENDBRANCH   1  25
BRANCH   7  35
ATOM     35  C   UNL     1      10.383  -2.425  -4.430  0.00  0.00    +0.103 C 
ATOM     36  N   UNL     1      11.488  -2.454  -4.168  0.00  0.00    -0.191 NA
ENDBRANCH   7  35
TORSDOF 7
