REMARK  Name = ZINC10368654
REMARK  11 active torsions:
REMARK  status: ('A' for Active; 'I' for Inactive)
REMARK    1  A    between atoms: C_1  and  C_2
REMARK    2  A    between atoms: C_4  and  C_36
REMARK    3  A    between atoms: C_6  and  N_8
REMARK    4  A    between atoms: C_18  and  S_19
REMARK    5  A    between atoms: S_19  and  C_20
REMARK    6  A    between atoms: C_20  and  C_22
REMARK    7  A    between atoms: C_20  and  C_23
REMARK    8  A    between atoms: C_23  and  C_25
REMARK    9  A    between atoms: C_26  and  N_35
REMARK   10  A    between atoms: N_27  and  C_34
REMARK   11  A    between atoms: N_30  and  C_33
REMARK                            x       y       z     vdW  Elec       q    Type
REMARK                         _______ _______ _______ _____ _____    ______ ____
ROOT
ATOM      1  N   UNL     1       4.308  -5.809   1.833  0.00  0.00    -0.255 N 
ATOM      2  C   UNL     1       5.645  -5.995   1.742  0.00  0.00    +0.267 A 
ATOM      3  O   UNL     1       6.110  -7.017   1.274  0.00  0.00    -0.267 OA
ATOM      4  C   UNL     1       6.515  -4.919   2.236  0.00  0.00    +0.065 A 
ATOM      5  C   UNL     1       7.905  -5.017   2.193  0.00  0.00    +0.015 A 
ATOM      6  C   UNL     1       8.668  -3.986   2.666  0.00  0.00    +0.001 A 
ATOM      7  C   UNL     1       8.074  -2.844   3.189  0.00  0.00    +0.002 A 
ATOM      8  C   UNL     1       6.714  -2.722   3.244  0.00  0.00    +0.028 A 
ATOM      9  C   UNL     1       5.907  -3.759   2.767  0.00  0.00    +0.079 A 
ATOM     10  N   UNL     1       4.556  -3.679   2.803  0.00  0.00    -0.223 NA
ATOM     11  C   UNL     1       3.801  -4.652   2.357  0.00  0.00    +0.177 A 
ENDROOT
BRANCH   1  17
ATOM     12  C   UNL     1       1.714  -7.827  -1.825  0.00  0.00    +0.044 C 
ATOM     13  C   UNL     1       2.163  -7.810  -0.387  0.00  0.00    -0.048 A 
ATOM     14  C   UNL     1       1.714  -8.782   0.488  0.00  0.00    +0.006 A 
ATOM     15  C   UNL     1       2.124  -8.769   1.809  0.00  0.00    -0.048 A 
ATOM     16  C   UNL     1       2.983  -7.785   2.258  0.00  0.00    +0.029 A 
ATOM     17  C   UNL     1       3.436  -6.809   1.381  0.00  0.00    +0.052 A 
ATOM     18  C   UNL     1       3.018  -6.821   0.057  0.00  0.00    +0.029 A 
ATOM     19  C   UNL     1       1.632  -9.830   2.760  0.00  0.00    +0.044 C 
ENDBRANCH   1  17
BRANCH  11  20
ATOM     20  S   UNL     1       2.051  -4.465   2.442  0.00  0.00    -0.076 S 
BRANCH  20  21
ATOM     21  C   UNL     1       1.947  -2.822   3.194  0.00  0.00    +0.122 C 
ATOM     22  C   UNL     1       2.526  -2.872   4.610  0.00  0.00    +0.028 C 
BRANCH  21  23
ATOM     23  C   UNL     1       0.505  -2.388   3.256  0.00  0.00    +0.185 C 
ATOM     24  O   UNL     1      -0.379  -3.220   3.276  0.00  0.00    -0.291 OA
BRANCH  23  25
ATOM     25  C   UNL     1       0.183  -1.014   3.291  0.00  0.00    +0.121 A 
ATOM     26  C   UNL     1      -1.153  -0.580   3.226  0.00  0.00    +0.116 A 
ATOM     27  N   UNL     1      -1.415   0.759   3.264  0.00  0.00    -0.284 N 
ATOM     28  C   UNL     1      -0.425   1.661   3.361  0.00  0.00    +0.333 A 
ATOM     29  O   UNL     1      -0.711   2.842   3.391  0.00  0.00    -0.246 OA
ATOM     30  N   UNL     1       0.868   1.307   3.427  0.00  0.00    -0.263 N 
ATOM     31  C   UNL     1       1.232   0.008   3.397  0.00  0.00    +0.269 A 
ATOM     32  O   UNL     1       2.405  -0.310   3.457  0.00  0.00    -0.267 OA
ATOM     33  C   UNL     1       1.897   2.344   3.532  0.00  0.00    +0.157 C 
ATOM     34  C   UNL     1      -2.803   1.222   3.190  0.00  0.00    +0.155 C 
BRANCH  26  35
ATOM     35  N   UNL     1      -2.168  -1.481   3.127  0.00  0.00    -0.344 N 
ATOM     36  H   UNL     1      -3.056  -1.246   3.437  0.00  0.00    +0.144 HD
ATOM     37  H   UNL     1      -2.003  -2.358   2.747  0.00  0.00    +0.144 HD
ENDBRANCH  26  35
ENDBRANCH  23  25
ENDBRANCH  21  23
ENDBRANCH  20  21
ENDBRANCH  11  20
TORSDOF 6
