REMARK  Name = ZINC32587236
REMARK  13 active torsions:
REMARK  status: ('A' for Active; 'I' for Inactive)
REMARK    1  A    between atoms: C_1  and  C_2
REMARK    2  A    between atoms: C_2  and  C_3
REMARK    3  A    between atoms: C_2  and  C_4
REMARK    4  A    between atoms: C_2  and  C_5
REMARK    5  A    between atoms: C_5  and  C_7
REMARK    6  A    between atoms: C_5  and  N_13
REMARK    7  A    between atoms: C_7  and  N_8
REMARK    8  A    between atoms: N_13  and  C_14
REMARK    9  A    between atoms: C_14  and  C_15
REMARK   10  A    between atoms: C_16  and  C_24
REMARK   11  A    between atoms: N_26  and  C_27
REMARK   12  A    between atoms: N_26  and  C_28
REMARK   13  A    between atoms: C_28  and  C_29
REMARK                            x       y       z     vdW  Elec       q    Type
REMARK                         _______ _______ _______ _____ _____    ______ ____
ROOT
ATOM      1  C   UNL     1      -2.576  -0.295  -2.894  0.00  0.00    +0.039 A 
ATOM      2  C   UNL     1      -3.214   0.912  -2.879  0.00  0.00    +0.146 A 
ATOM      3  N   UNL     1      -3.752   1.117  -4.096  0.00  0.00    -0.223 NA
ATOM      4  C   UNL     1      -3.473   0.082  -4.870  0.00  0.00    +0.139 A 
ATOM      5  N   UNL     1      -2.732  -0.816  -4.142  0.00  0.00    -0.305 N 
ATOM      6  C   UNL     1      -2.304  -1.982  -4.713  0.00  0.00    +0.093 A 
ATOM      7  C   UNL     1      -2.599  -2.267  -5.997  0.00  0.00    +0.018 A 
ATOM      8  C   UNL     1      -3.353  -1.367  -6.770  0.00  0.00    +0.005 A 
ATOM      9  C   UNL     1      -3.793  -0.207  -6.215  0.00  0.00    +0.047 A 
ENDROOT
BRANCH   2  10
ATOM     10  C   UNL     1      -3.300   1.833  -1.729  0.00  0.00    +0.267 C 
ATOM     11  O   UNL     1      -2.710   1.573  -0.698  0.00  0.00    -0.268 OA
ATOM     12  N   UNL     1      -4.032   2.960  -1.821  0.00  0.00    -0.295 N 
ATOM     13  C   UNL     1      -4.785   3.247  -3.045  0.00  0.00    +0.132 C 
BRANCH  12  14
ATOM     14  C   UNL     1      -4.075   3.900  -0.698  0.00  0.00    +0.142 C 
BRANCH  14  15
ATOM     15  C   UNL     1      -2.965   4.909  -0.844  0.00  0.00    -0.030 A 
ATOM     16  C   UNL     1      -1.724   4.655  -0.292  0.00  0.00    +0.005 A 
ATOM     17  C   UNL     1      -0.706   5.581  -0.426  0.00  0.00    +0.000 A 
ATOM     18  C   UNL     1      -0.929   6.759  -1.113  0.00  0.00    +0.000 A 
ATOM     19  C   UNL     1      -2.170   7.012  -1.667  0.00  0.00    +0.000 A 
ATOM     20  C   UNL     1      -3.187   6.085  -1.536  0.00  0.00    +0.005 A 
ENDBRANCH  14  15
ENDBRANCH  12  14
ENDBRANCH   2  10
BRANCH   1  21
ATOM     21  C   UNL     1      -1.833  -0.929  -1.746  0.00  0.00    -0.025 C 
BRANCH  21  22
ATOM     22  N   UNL     1      -0.436  -0.475  -1.756  0.00  0.00    +0.386 N 
ATOM     23  H   UNL     1      -0.411   0.534  -1.764  0.00  0.00    -0.085 HD
ATOM     24  H   UNL     1       0.027  -0.830  -2.579  0.00  0.00    -0.085 HD
BRANCH  22  25
ATOM     25  C   UNL     1       0.249  -0.972  -0.555  0.00  0.00    -0.046 C 
BRANCH  25  27
ATOM     26  C   UNL     1       2.420  -0.341  -1.620  0.00  0.00    +0.009 C 
ATOM     27  C   UNL     1       1.559  -0.206  -0.362  0.00  0.00    -0.049 C 
ATOM     28  C   UNL     1       2.315  -0.782   0.837  0.00  0.00    +0.009 C 
ATOM     29  C   UNL     1       1.254   1.272  -0.110  0.00  0.00    +0.009 C 
ENDBRANCH  25  27
BRANCH  25  30
ATOM     30  C   UNL     1       0.550  -2.463  -0.720  0.00  0.00    +0.107 C 
BRANCH  30  31
ATOM     31  N   UNL     1      -0.709  -3.210  -0.790  0.00  0.00    -0.340 N 
ATOM     32  C   UNL     1      -1.629  -3.345   0.214  0.00  0.00    +0.104 A 
ATOM     33  C   UNL     1      -2.628  -4.106  -0.273  0.00  0.00    +0.101 A 
ATOM     34  N   UNL     1      -2.326  -4.426  -1.540  0.00  0.00    -0.352 N 
ATOM     35  C   UNL     1      -1.180  -3.889  -1.858  0.00  0.00    +0.173 A 
ATOM     36  H   UNL     1      -2.874  -4.968  -2.128  0.00  0.00    +0.166 HD
ENDBRANCH  30  31
ENDBRANCH  25  30
ENDBRANCH  22  25
ENDBRANCH  21  22
ENDBRANCH   1  21
TORSDOF 9
