REMARK  Name = ZINC38192200
REMARK  8 active torsions:
REMARK  status: ('A' for Active; 'I' for Inactive)
REMARK    1  A    between atoms: C_1  and  C_2
REMARK    2  A    between atoms: C_7  and  C_9
REMARK    3  A    between atoms: C_7  and  C_10
REMARK    4  A    between atoms: N_11  and  C_13
REMARK    5  A    between atoms: C_13  and  C_14
REMARK    6  A    between atoms: C_15  and  O_35
REMARK    7  A    between atoms: C_21  and  N_34
REMARK    8  A    between atoms: C_22  and  C_25
REMARK                            x       y       z     vdW  Elec       q    Type
REMARK                         _______ _______ _______ _____ _____    ______ ____
ROOT
ATOM      1  C   UNL     1       1.401  -2.420  -3.732  0.00  0.00    +0.021 A 
ATOM      2  C   UNL     1       0.993  -2.543  -5.051  0.00  0.00    +0.122 A 
ATOM      3  C   UNL     1       1.829  -2.145  -6.090  0.00  0.00    +0.046 A 
ATOM      4  C   UNL     1       3.065  -1.626  -5.821  0.00  0.00    +0.019 A 
ATOM      5  C   UNL     1       3.490  -1.496  -4.499  0.00  0.00    +0.065 A 
ATOM      6  C   UNL     1       2.651  -1.890  -3.444  0.00  0.00    +0.146 A 
ATOM      7  O   UNL     1       3.061  -1.759  -2.164  0.00  0.00    -0.440 OA
ATOM      8  C   UNL     1       4.258  -1.255  -1.840  0.00  0.00    +0.198 A 
ATOM      9  C   UNL     1       5.165  -0.829  -2.803  0.00  0.00    +0.111 A 
ATOM     10  C   UNL     1       4.818  -0.940  -4.178  0.00  0.00    +0.204 A 
ATOM     11  O   UNL     1       5.583  -0.579  -5.056  0.00  0.00    -0.286 OA
ENDROOT
BRANCH   9  12
ATOM     12  C   UNL     1       6.471  -0.279  -2.405  0.00  0.00    +0.118 A 
ATOM     13  N   UNL     1       7.006  -0.206  -1.203  0.00  0.00    -0.239 NA
ATOM     14  C   UNL     1       8.225   0.329  -0.985  0.00  0.00    +0.079 A 
ATOM     15  C   UNL     1       8.909   0.469   0.246  0.00  0.00    +0.029 A 
ATOM     16  C   UNL     1      10.153   1.042   0.293  0.00  0.00    +0.002 A 
ATOM     17  C   UNL     1      10.784   1.502  -0.854  0.00  0.00    +0.001 A 
ATOM     18  C   UNL     1      10.145   1.382  -2.074  0.00  0.00    +0.017 A 
ATOM     19  C   UNL     1       8.899   0.809  -2.132  0.00  0.00    +0.040 A 
ATOM     20  S   UNL     1       7.740   0.451  -3.431  0.00  0.00    -0.067 S 
ENDBRANCH   9  12
BRANCH   8  21
ATOM     21  N   UNL     1       4.598  -1.155  -0.521  0.00  0.00    -0.329 N 
ATOM     22  H   UNL     1       3.947  -1.371   0.165  0.00  0.00    +0.145 HD
ATOM     23  H   UNL     1       5.490  -0.869  -0.270  0.00  0.00    +0.145 HD
ENDBRANCH   8  21
BRANCH   2  24
ATOM     24  O   UNL     1      -0.232  -3.057  -5.331  0.00  0.00    -0.506 OA
ATOM     25  H   UNL     1      -0.934  -2.394  -5.381  0.00  0.00    +0.292 HD
ENDBRANCH   2  24
BRANCH   1  26
ATOM     26  C   UNL     1       0.488  -2.853  -2.615  0.00  0.00    -0.035 C 
BRANCH  26  36
ATOM     27  C   UNL     1      -0.366   1.437  -0.376  0.00  0.00    +0.009 C 
ATOM     28  C   UNL     1      -0.341  -0.097  -0.428  0.00  0.00    -0.048 C 
ATOM     29  C   UNL     1      -1.758  -0.707  -0.609  0.00  0.00    -0.011 C 
ATOM     30  C   UNL     1      -1.364  -2.091  -1.197  0.00  0.00    -0.067 C 
ATOM     31  C   UNL     1      -0.785  -2.924  -0.070  0.00  0.00    -0.009 C 
ATOM     32  C   UNL     1       0.162  -2.234   0.885  0.00  0.00    -0.036 C 
ATOM     33  C   UNL     1       0.242  -0.722   0.840  0.00  0.00    +0.011 C 
ATOM     34  C   UNL     1       1.578  -2.816   0.706  0.00  0.00    +0.011 C 
ATOM     35  C   UNL     1      -0.278  -2.622   2.322  0.00  0.00    +0.011 C 
ATOM     36  N   UNL     1      -0.351  -1.732  -2.210  0.00  0.00    +0.385 N 
ATOM     37  C   UNL     1       0.451  -0.631  -1.644  0.00  0.00    -0.071 C 
ATOM     38  H   UNL     1      -0.837  -1.374  -3.035  0.00  0.00    -0.081 HD
ENDBRANCH  26  36
ENDBRANCH   1  26
TORSDOF 5
