REMARK  Name = ZINC38958895
REMARK  7 active torsions:
REMARK  status: ('A' for Active; 'I' for Inactive)
REMARK    1  A    between atoms: C_1  and  C_2
REMARK    2  A    between atoms: C_5  and  S_9
REMARK    3  A    between atoms: C_7  and  C_8
REMARK    4  A    between atoms: S_9  and  N_12
REMARK    5  A    between atoms: N_12  and  C_13
REMARK    6  A    between atoms: N_16  and  C_17
REMARK    7  A    between atoms: C_20  and  C_23
REMARK                            x       y       z     vdW  Elec       q    Type
REMARK                         _______ _______ _______ _____ _____    ______ ____
ROOT
ATOM      1  C   UNL     1       2.536  -4.673   1.351  0.00  0.00    +0.236 C 
ATOM      2  C   UNL     1       3.493  -5.840   1.251  0.00  0.00    +0.147 C 
ATOM      3  N   UNL     1       3.065  -7.068   1.434  0.00  0.00    -0.231 NA
ATOM      4  N   UNL     1       4.777  -5.605   0.973  0.00  0.00    -0.339 N 
ATOM      5  C   UNL     1       5.233  -4.381   0.785  0.00  0.00    +0.064 A 
ATOM      6  C   UNL     1       6.603  -4.171   0.493  0.00  0.00    +0.028 A 
ATOM      7  C   UNL     1       7.077  -2.920   0.299  0.00  0.00    +0.002 A 
ATOM      8  C   UNL     1       6.261  -1.780   0.373  0.00  0.00    +0.002 A 
ATOM      9  C   UNL     1       4.939  -1.869   0.645  0.00  0.00    +0.027 A 
ATOM     10  C   UNL     1       4.348  -3.196   0.870  0.00  0.00    +0.060 A 
ATOM     11  N   UNL     1       3.077  -3.322   1.134  0.00  0.00    -0.361 N 
ATOM     12  H   UNL     1       2.502  -2.542   1.188  0.00  0.00    +0.162 HD
ATOM     13  H   UNL     1       5.390  -6.354   0.909  0.00  0.00    +0.167 HD
ENDROOT
BRANCH   3  14
ATOM     14  C   UNL     1       3.951  -8.098   1.466  0.00  0.00    +0.066 A 
ATOM     15  C   UNL     1       5.017  -8.079   2.377  0.00  0.00    +0.028 A 
ATOM     16  C   UNL     1       5.906  -9.113   2.409  0.00  0.00    +0.017 A 
ATOM     17  C   UNL     1       5.754 -10.194   1.533  0.00  0.00    +0.063 A 
ATOM     18  C   UNL     1       4.691 -10.215   0.622  0.00  0.00    +0.017 A 
ATOM     19  C   UNL     1       3.797  -9.184   0.593  0.00  0.00    +0.028 A 
BRANCH  17  20
ATOM     20  C   UNL     1       6.715 -11.311   1.568  0.00  0.00    +0.387 C 
ATOM     21  O   UNL     1       7.644 -11.293   2.364  0.00  0.00    -0.241 OA
ATOM     22  O   UNL     1       6.582 -12.256   0.803  0.00  0.00    -0.241 OA
ENDBRANCH  17  20
ENDBRANCH   3  14
BRANCH   1  23
ATOM     23  N   UNL     1       1.465  -4.888   0.374  0.00  0.00    -0.161 NA
ATOM     24  H   UNL     1       1.659  -5.324  -0.470  0.00  0.00    +0.151 HD
BRANCH  23  25
ATOM     25  S   UNL     1      -0.076  -4.387   0.713  0.00  0.00    +0.060 S 
ATOM     26  O   UNL     1      -0.383  -4.868   2.014  0.00  0.00    -0.153 OA
ATOM     27  O   UNL     1      -0.867  -4.709  -0.424  0.00  0.00    -0.153 OA
BRANCH  25  32
ATOM     28  C   UNL     1       0.041   1.634   1.083  0.00  0.00    +0.044 C 
ATOM     29  C   UNL     1       0.012   0.130   0.990  0.00  0.00    -0.047 A 
ATOM     30  C   UNL     1      -0.233  -0.483  -0.225  0.00  0.00    +0.005 A 
ATOM     31  C   UNL     1      -0.260  -1.863  -0.309  0.00  0.00    +0.029 A 
ATOM     32  C   UNL     1      -0.041  -2.629   0.821  0.00  0.00    +0.106 A 
ATOM     33  C   UNL     1       0.205  -2.016   2.035  0.00  0.00    +0.032 A 
ATOM     34  C   UNL     1       0.236  -0.636   2.119  0.00  0.00    -0.046 A 
ATOM     35  C   UNL     1       0.509   0.033   3.441  0.00  0.00    +0.044 C 
ENDBRANCH  25  32
ENDBRANCH  23  25
ENDBRANCH   1  23
TORSDOF 5
