REMARK  Name = ZINC01424377
REMARK  9 active torsions:
REMARK  status: ('A' for Active; 'I' for Inactive)
REMARK    1  A    between atoms: C_1  and  C_2
REMARK    2  A    between atoms: C_2  and  C_3
REMARK    3  A    between atoms: C_2  and  C_4
REMARK    4  A    between atoms: C_4  and  C_5
REMARK    5  A    between atoms: N_13  and  C_16
REMARK    6  A    between atoms: C_19  and  N_22
REMARK    7  A    between atoms: C_23  and  C_25
REMARK    8  A    between atoms: N_34  and  C_37
REMARK    9  A    between atoms: C_37  and  C_38
REMARK                            x       y       z     vdW  Elec       q    Type
REMARK                         _______ _______ _______ _____ _____    ______ ____
ROOT
ATOM      1  C   UNL     1      -1.411  -2.062   0.010  0.00  0.00    +0.068 C 
ATOM      2  C   UNL     1      -2.836  -2.623  -0.189  0.00  0.00    +0.107 C 
ATOM      3  C   UNL     1      -2.891  -3.892   0.706  0.00  0.00    +0.123 C 
ATOM      4  C   UNL     1      -3.029  -5.017  -0.294  0.00  0.00    +0.233 C 
ATOM      5  O   UNL     1      -3.101  -6.195  -0.017  0.00  0.00    -0.274 OA
ATOM      6  N   UNL     1      -3.058  -4.511  -1.532  0.00  0.00    -0.210 N 
ATOM      7  C   UNL     1      -2.964  -3.163  -1.595  0.00  0.00    +0.232 C 
ATOM      8  O   UNL     1      -2.976  -2.492  -2.605  0.00  0.00    -0.274 OA
ATOM      9  C   UNL     1      -1.519  -3.947   1.387  0.00  0.00    +0.136 C 
ATOM     10  N   UNL     1      -0.975  -2.583   1.333  0.00  0.00    -0.295 NA
ATOM     11  C   UNL     1      -1.623  -4.459   2.796  0.00  0.00    +0.004 A 
ATOM     12  C   UNL     1      -2.305  -4.029   3.912  0.00  0.00    +0.008 A 
ATOM     13  C   UNL     1      -2.199  -4.729   5.100  0.00  0.00    +0.000 A 
ATOM     14  C   UNL     1      -1.407  -5.861   5.164  0.00  0.00    +0.002 A 
ATOM     15  C   UNL     1      -0.722  -6.296   4.048  0.00  0.00    +0.024 A 
ATOM     16  C   UNL     1      -0.823  -5.597   2.848  0.00  0.00    +0.042 A 
ATOM     17  N   UNL     1      -0.238  -5.833   1.602  0.00  0.00    -0.265 N 
ATOM     18  C   UNL     1      -0.596  -4.909   0.689  0.00  0.00    +0.246 C 
ATOM     19  O   UNL     1      -0.243  -4.862  -0.470  0.00  0.00    -0.273 OA
ATOM     20  H   UNL     1       0.031  -2.585   1.407  0.00  0.00    +0.123 HD
ENDROOT
BRANCH   6  21
ATOM     21  C   UNL     1      -3.183  -5.313  -2.677  0.00  0.00    +0.044 A 
ATOM     22  C   UNL     1      -2.229  -5.239  -3.683  0.00  0.00    +0.026 A 
ATOM     23  C   UNL     1      -2.352  -6.028  -4.809  0.00  0.00    +0.025 A 
ATOM     24  C   UNL     1      -3.429  -6.895  -4.936  0.00  0.00    +0.033 A 
ATOM     25  C   UNL     1      -4.382  -6.969  -3.929  0.00  0.00    +0.025 A 
ATOM     26  C   UNL     1      -4.256  -6.184  -2.800  0.00  0.00    +0.026 A 
BRANCH  24  27
ATOM     27  N   UNL     1      -3.554  -7.695  -6.078  0.00  0.00    -0.286 N 
ATOM     28  C   UNL     1      -4.775  -7.980  -6.571  0.00  0.00    +0.214 C 
ATOM     29  O   UNL     1      -5.761  -7.470  -6.082  0.00  0.00    -0.276 OA
ATOM     30  C   UNL     1      -4.916  -8.933  -7.730  0.00  0.00    +0.109 C 
ATOM     31  H   UNL     1      -2.761  -8.044  -6.515  0.00  0.00    +0.155 HD
ENDBRANCH  24  27
ENDBRANCH   6  21
BRANCH   1  32
ATOM     32  C   UNL     1      -1.438  -0.532   0.022  0.00  0.00    +0.022 C 
BRANCH  32  34
ATOM     33  C   UNL     1       0.824  -0.375  -1.028  0.00  0.00    +0.007 C 
ATOM     34  C   UNL     1      -0.014   0.001   0.196  0.00  0.00    -0.016 C 
ATOM     35  C   UNL     1      -0.054   1.524   0.338  0.00  0.00    +0.007 C 
ENDBRANCH  32  34
ENDBRANCH   1  32
BRANCH  17  36
ATOM     36  C   UNL     1       0.662  -6.954   1.320  0.00  0.00    +0.148 C 
BRANCH  36  37
ATOM     37  C   UNL     1      -0.143  -8.139   0.852  0.00  0.00    -0.030 A 
ATOM     38  C   UNL     1      -0.628  -9.052   1.770  0.00  0.00    +0.008 A 
ATOM     39  C   UNL     1      -1.367 -10.138   1.341  0.00  0.00    +0.038 A 
ATOM     40  C   UNL     1      -1.621 -10.312  -0.009  0.00  0.00    +0.123 A 
ATOM     41  C   UNL     1      -1.136  -9.397  -0.927  0.00  0.00    +0.038 A 
ATOM     42  C   UNL     1      -0.402  -8.309  -0.496  0.00  0.00    +0.008 A 
ATOM     43  F   UNL     1      -2.343 -11.374  -0.429  0.00  0.00    -0.205 F 
ENDBRANCH  36  37
ENDBRANCH  17  36
TORSDOF 6
