REMARK  Name = ZINC38682758
REMARK  12 active torsions:
REMARK  status: ('A' for Active; 'I' for Inactive)
REMARK    1  A    between atoms: C_1  and  C_2
REMARK    2  A    between atoms: C_2  and  C_3
REMARK    3  A    between atoms: C_3  and  C_4
REMARK    4  A    between atoms: C_4  and  O_5
REMARK    5  A    between atoms: O_5  and  C_6
REMARK    6  A    between atoms: C_11  and  C_12
REMARK    7  A    between atoms: C_17  and  O_26
REMARK    8  A    between atoms: C_21  and  N_25
REMARK    9  A    between atoms: C_22  and  C_23
REMARK   10  A    between atoms: O_26  and  C_27
REMARK   11  A    between atoms: C_27  and  C_29
REMARK   12  A    between atoms: C_30  and  C_31
REMARK                            x       y       z     vdW  Elec       q    Type
REMARK                         _______ _______ _______ _____ _____    ______ ____
ROOT
ATOM      1  C   UNL     1       2.780  -3.417   4.667  0.00  0.00    +0.101 C 
ATOM      2  C   UNL     1       2.148  -3.704   6.003  0.00  0.00    +0.008 A 
ATOM      3  C   UNL     1       0.914  -3.156   6.304  0.00  0.00    +0.012 A 
ATOM      4  C   UNL     1       0.320  -3.408   7.525  0.00  0.00    +0.047 A 
ATOM      5  C   UNL     1       0.962  -4.214   8.455  0.00  0.00    +0.135 A 
ATOM      6  C   UNL     1       2.197  -4.764   8.157  0.00  0.00    +0.093 A 
ATOM      7  C   UNL     1       2.794  -4.509   6.929  0.00  0.00    +0.138 A 
ATOM      8  O   UNL     1       4.004  -5.055   6.652  0.00  0.00    -0.441 OA
ATOM      9  C   UNL     1       4.765  -4.536   5.674  0.00  0.00    +0.199 C 
ATOM     10  C   UNL     1       4.244  -3.752   4.704  0.00  0.00    +0.098 C 
ENDROOT
BRANCH   1  16
ATOM     11  C   UNL     1       1.462  -3.629   2.544  0.00  0.00    +0.125 A 
ATOM     12  C   UNL     1       0.846  -4.397   1.567  0.00  0.00    +0.046 A 
ATOM     13  C   UNL     1       0.869  -5.775   1.656  0.00  0.00    +0.004 A 
ATOM     14  C   UNL     1       1.506  -6.390   2.719  0.00  0.00    +0.001 A 
ATOM     15  C   UNL     1       2.120  -5.627   3.694  0.00  0.00    +0.008 A 
ATOM     16  C   UNL     1       2.105  -4.248   3.606  0.00  0.00    +0.007 A 
BRANCH  11  17
ATOM     17  O   UNL     1       1.441  -2.273   2.458  0.00  0.00    -0.492 OA
BRANCH  17  18
ATOM     18  C   UNL     1       0.761  -1.704   1.337  0.00  0.00    +0.229 C 
BRANCH  18  19
ATOM     19  C   UNL     1       0.843  -0.178   1.411  0.00  0.00    +0.041 C 
BRANCH  19  21
ATOM     20  C   UNL     1       0.197   1.956   0.284  0.00  0.00    +0.004 C 
ATOM     21  C   UNL     1       0.115   0.430   0.211  0.00  0.00    -0.000 C 
ENDBRANCH  19  21
ENDBRANCH  18  19
ENDBRANCH  17  18
ENDBRANCH  11  17
ENDBRANCH   1  16
BRANCH   9  22
ATOM     22  N   UNL     1       6.110  -4.811   5.660  0.00  0.00    -0.328 N 
ATOM     23  H   UNL     1       6.497  -5.372   6.350  0.00  0.00    +0.145 HD
ATOM     24  H   UNL     1       6.673  -4.444   4.960  0.00  0.00    +0.145 HD
ENDBRANCH   9  22
BRANCH  10  25
ATOM     25  C   UNL     1       5.110  -3.231   3.690  0.00  0.00    +0.101 C 
ATOM     26  N   UNL     1       5.797  -2.817   2.885  0.00  0.00    -0.191 NA
ENDBRANCH  10  25
BRANCH   5  27
ATOM     27  O   UNL     1       0.379  -4.462   9.658  0.00  0.00    -0.423 OA
BRANCH  27  28
ATOM     28  C   UNL     1      -0.726  -5.237   9.678  0.00  0.00    +0.337 C 
ATOM     29  O   UNL     1      -1.110  -5.775   8.657  0.00  0.00    -0.245 OA
BRANCH  28  30
ATOM     30  C   UNL     1      -1.460  -5.430  10.927  0.00  0.00    +0.092 C 
ATOM     31  C   UNL     1      -2.565  -6.205  10.947  0.00  0.00    +0.015 C 
BRANCH  31  32
ATOM     32  C   UNL     1      -3.304  -6.399  12.204  0.00  0.00    -0.025 A 
ATOM     33  C   UNL     1      -2.869  -5.777  13.379  0.00  0.00    +0.009 A 
ATOM     34  C   UNL     1      -3.566  -5.963  14.553  0.00  0.00    +0.020 A 
ATOM     35  C   UNL     1      -4.696  -6.765  14.572  0.00  0.00    +0.041 A 
ATOM     36  C   UNL     1      -5.134  -7.384  13.412  0.00  0.00    +0.020 A 
ATOM     37  C   UNL     1      -4.450  -7.202  12.229  0.00  0.00    +0.009 A 
ATOM     38 CL   UNL     1      -5.568  -6.994  16.055  0.00  0.00    -0.084 Cl
ENDBRANCH  31  32
ENDBRANCH  28  30
ENDBRANCH  27  28
ENDBRANCH   5  27
TORSDOF 11
