REMARK  Name = ZINC49574762
REMARK  11 active torsions:
REMARK  status: ('A' for Active; 'I' for Inactive)
REMARK    1  A    between atoms: C_1  and  C_2
REMARK    2  A    between atoms: C_2  and  C_4
REMARK    3  A    between atoms: C_2  and  N_14
REMARK    4  A    between atoms: C_7  and  S_10
REMARK    5  A    between atoms: S_10  and  N_13
REMARK    6  A    between atoms: N_14  and  C_15
REMARK    7  A    between atoms: N_14  and  C_16
REMARK    8  A    between atoms: C_16  and  C_17
REMARK    9  A    between atoms: N_19  and  C_20
REMARK   10  A    between atoms: N_19  and  C_26
REMARK   11  A    between atoms: C_20  and  C_21
REMARK                            x       y       z     vdW  Elec       q    Type
REMARK                         _______ _______ _______ _____ _____    ______ ____
ROOT
ATOM      1  C   UNL     1       1.451  -2.511   2.469  0.00  0.00    +0.200 C 
ATOM      2  O   UNL     1       1.818  -1.726   3.317  0.00  0.00    -0.278 OA
ATOM      3  N   UNL     1       1.491  -3.836   2.715  0.00  0.00    -0.290 N 
ENDROOT
BRANCH   3   4
ATOM      4  C   UNL     1       2.070  -4.331   3.966  0.00  0.00    +0.039 C 
ATOM      5  C   UNL     1       3.504  -3.817   4.104  0.00  0.00    +0.029 C 
ATOM      6  C   UNL     1       4.109  -4.334   5.410  0.00  0.00    -0.008 C 
ATOM      7  C   UNL     1       3.273  -3.836   6.591  0.00  0.00    +0.007 C 
ATOM      8  C   UNL     1       1.839  -4.350   6.454  0.00  0.00    -0.008 C 
ATOM      9  C   UNL     1       1.234  -3.833   5.147  0.00  0.00    +0.029 C 
ATOM     10  C   UNL     1       1.845  -5.880   6.443  0.00  0.00    +0.007 C 
ATOM     11  C   UNL     1       2.680  -6.378   5.262  0.00  0.00    -0.008 C 
ATOM     12  C   UNL     1       4.114  -5.864   5.399  0.00  0.00    +0.007 C 
ATOM     13  C   UNL     1       2.076  -5.861   3.955  0.00  0.00    +0.029 C 
ENDBRANCH   3   4
BRANCH   1  14
ATOM     14  C   UNL     1       0.951  -2.007   1.140  0.00  0.00    +0.019 C 
BRANCH  14  15
ATOM     15  N   UNL     1       1.007  -0.539   1.121  0.00  0.00    +0.388 N 
ATOM     16  C   UNL     1       2.407  -0.101   1.201  0.00  0.00    -0.095 C 
ATOM     17  H   UNL     1       0.494  -0.173   1.909  0.00  0.00    -0.081 HD
BRANCH  15  19
ATOM     18  C   UNL     1       0.467   1.487  -0.146  0.00  0.00    -0.008 C 
ATOM     19  C   UNL     1       0.409  -0.042  -0.126  0.00  0.00    -0.041 C 
BRANCH  19  20
ATOM     20  C   UNL     1      -1.027  -0.491  -0.208  0.00  0.00    -0.061 A 
ATOM     21  C   UNL     1      -1.822  -0.476   0.923  0.00  0.00    +0.004 A 
ATOM     22  C   UNL     1      -3.139  -0.888   0.847  0.00  0.00    +0.029 A 
ATOM     23  C   UNL     1      -3.662  -1.315  -0.359  0.00  0.00    +0.105 A 
ATOM     24  C   UNL     1      -2.867  -1.330  -1.490  0.00  0.00    +0.029 A 
ATOM     25  C   UNL     1      -1.551  -0.914  -1.416  0.00  0.00    +0.004 A 
BRANCH  23  26
ATOM     26  S   UNL     1      -5.341  -1.841  -0.455  0.00  0.00    +0.056 S 
ATOM     27  O   UNL     1      -5.431  -2.708  -1.578  0.00  0.00    -0.153 OA
ATOM     28  O   UNL     1      -5.714  -2.249   0.854  0.00  0.00    -0.153 OA
BRANCH  26  29
ATOM     29  N   UNL     1      -6.253  -0.506  -0.814  0.00  0.00    -0.204 NA
ATOM     30  H   UNL     1      -5.825   0.357  -0.927  0.00  0.00    +0.144 HD
ATOM     31  H   UNL     1      -7.214  -0.588  -0.910  0.00  0.00    +0.144 HD
ENDBRANCH  26  29
ENDBRANCH  23  26
ENDBRANCH  19  20
ENDBRANCH  15  19
ENDBRANCH  14  15
ENDBRANCH   1  14
BRANCH   3  32
ATOM     32  C   UNL     1       0.955  -4.780   1.732  0.00  0.00    +0.182 C 
BRANCH  32  33
ATOM     33  C   UNL     1      -0.495  -5.056   2.038  0.00  0.00    +0.122 A 
ATOM     34  C   UNL     1      -1.543  -4.343   1.590  0.00  0.00    +0.046 A 
ATOM     35  C   UNL     1      -2.706  -4.949   2.118  0.00  0.00    +0.041 A 
ATOM     36  C   UNL     1      -2.299  -5.996   2.858  0.00  0.00    +0.195 A 
ATOM     37  O   UNL     1      -0.959  -6.059   2.801  0.00  0.00    -0.466 OA
ENDBRANCH  32  33
ENDBRANCH   3  32
TORSDOF 9
