REMARK  Name = ZINC11037734
REMARK  6 active torsions:
REMARK  status: ('A' for Active; 'I' for Inactive)
REMARK    1  A    between atoms: C_1  and  C_2
REMARK    2  A    between atoms: C_4  and  N_7
REMARK    3  A    between atoms: C_8  and  C_10
REMARK    4  A    between atoms: C_10  and  C_12
REMARK    5  A    between atoms: C_10  and  N_13
REMARK    6  A    between atoms: N_13  and  C_14
REMARK                            x       y       z     vdW  Elec       q    Type
REMARK                         _______ _______ _______ _____ _____    ______ ____
ROOT
ATOM      1  N   UNL     1       0.093  -6.891  -1.082  0.00  0.00    -0.333 N 
ATOM      2  H   UNL     1      -0.258  -6.870  -0.178  0.00  0.00    +0.147 HD
ENDROOT
BRANCH   1   3
ATOM      3  C   UNL     1       0.616  -8.075  -1.599  0.00  0.00    +0.036 A 
ATOM      4  C   UNL     1       1.125  -8.120  -2.884  0.00  0.00    +0.024 A 
ATOM      5  C   UNL     1       1.656  -9.289  -3.428  0.00  0.00    +0.006 A 
ATOM      6  C   UNL     1       1.689 -10.439  -2.698  0.00  0.00    -0.039 A 
ATOM      7  C   UNL     1       1.182 -10.411  -1.403  0.00  0.00    -0.010 A 
ATOM      8  C   UNL     1       0.644  -9.250  -0.820  0.00  0.00    +0.003 A 
ATOM      9  C   UNL     1       0.167  -9.337   0.496  0.00  0.00    +0.010 A 
ATOM     10  C   UNL     1       0.249 -10.533   1.150  0.00  0.00    +0.001 A 
ATOM     11  C   UNL     1       0.792 -11.673   0.552  0.00  0.00    +0.004 A 
ATOM     12  C   UNL     1       1.255 -11.625  -0.727  0.00  0.00    -0.039 A 
ATOM     13  C   UNL     1       1.890 -12.626  -1.662  0.00  0.00    +0.040 C 
ATOM     14  C   UNL     1       2.177 -11.844  -2.962  0.00  0.00    +0.040 C 
ENDBRANCH   1   3
BRANCH   1  15
ATOM     15  C   UNL     1       0.071  -5.679  -1.905  0.00  0.00    +0.154 C 
ATOM     16  C   UNL     1      -1.183  -5.680  -2.781  0.00  0.00    +0.038 C 
BRANCH  15  18
ATOM     17  N   UNL     1       0.039  -3.231  -1.552  0.00  0.00    -0.253 N 
ATOM     18  C   UNL     1       0.059  -4.466  -1.011  0.00  0.00    +0.239 C 
ATOM     19  O   UNL     1       0.068  -4.600   0.194  0.00  0.00    -0.273 OA
ATOM     20  H   UNL     1       0.033  -3.124  -2.516  0.00  0.00    +0.158 HD
BRANCH  17  24
ATOM     21  C   UNL     1      -0.018   1.503   0.010  0.00  0.00    +0.069 C 
ATOM     22  C   UNL     1       0.002  -0.004   0.002  0.00  0.00    +0.082 A 
ATOM     23  C   UNL     1       0.008  -0.820  -1.138  0.00  0.00    +0.092 A 
ATOM     24  C   UNL     1       0.028  -2.114  -0.729  0.00  0.00    +0.224 A 
ATOM     25  O   UNL     1       0.035  -2.120   0.615  0.00  0.00    -0.339 OA
ATOM     26  N   UNL     1       0.023  -0.774   1.055  0.00  0.00    -0.081 NA
ENDBRANCH  17  24
ENDBRANCH  15  18
ENDBRANCH   1  15
TORSDOF 4
