REMARK  Name = ZINC43264239
REMARK  9 active torsions:
REMARK  status: ('A' for Active; 'I' for Inactive)
REMARK    1  A    between atoms: C_1  and  C_2
REMARK    2  A    between atoms: C_2  and  C_4
REMARK    3  A    between atoms: C_2  and  N_22
REMARK    4  A    between atoms: C_4  and  C_6
REMARK    5  A    between atoms: C_4  and  O_12
REMARK    6  A    between atoms: O_12  and  C_13
REMARK    7  A    between atoms: C_18  and  C_19
REMARK    8  A    between atoms: C_19  and  C_20
REMARK    9  A    between atoms: C_19  and  C_21
REMARK                            x       y       z     vdW  Elec       q    Type
REMARK                         _______ _______ _______ _____ _____    ______ ____
ROOT
ATOM      1  C   UNL     1       0.763  -0.511   1.271  0.00  0.00    +0.196 C 
ENDROOT
BRANCH   1   2
ATOM      2  C   UNL     1       0.197  -0.043   2.587  0.00  0.00    +0.029 A 
ATOM      3  C   UNL     1       0.542   1.039   3.327  0.00  0.00    +0.016 A 
ATOM      4  C   UNL     1      -0.121   1.276   4.517  0.00  0.00    +0.023 A 
ATOM      5  C   UNL     1      -1.097   0.419   4.907  0.00  0.00    +0.055 A 
ATOM      6  S   UNL     1      -1.107  -0.763   3.570  0.00  0.00    -0.083 S 
ATOM      7 BR   UNL     1      -2.174   0.469   6.461  0.00  0.00    -0.043 Br
ENDBRANCH   1   2
BRANCH   1   9
ATOM      8  C   UNL     1      -0.093   1.559   0.165  0.00  0.00    -0.010 C 
ATOM      9  C   UNL     1      -0.095   0.030   0.125  0.00  0.00    -0.032 C 
BRANCH   9  10
ATOM     10  N   UNL     1       0.457  -0.427  -1.157  0.00  0.00    +0.382 N 
ATOM     11  H   UNL     1       1.402  -0.089  -1.256  0.00  0.00    -0.089 HD
ATOM     12  H   UNL     1       0.456  -1.436  -1.184  0.00  0.00    -0.089 HD
ATOM     13  H   UNL     1      -0.109  -0.070  -1.913  0.00  0.00    -0.089 HD
ENDBRANCH   9  10
ENDBRANCH   1   9
BRANCH   1  14
ATOM     14  O   UNL     1       0.761  -1.940   1.234  0.00  0.00    -0.485 OA
BRANCH  14  15
ATOM     15  C   UNL     1       1.755  -2.539   0.526  0.00  0.00    +0.125 A 
ATOM     16  C   UNL     1       2.751  -1.772  -0.060  0.00  0.00    +0.046 A 
ATOM     17  C   UNL     1       3.760  -2.384  -0.778  0.00  0.00    +0.004 A 
ATOM     18  C   UNL     1       3.778  -3.760  -0.913  0.00  0.00    +0.001 A 
ATOM     19  C   UNL     1       2.786  -4.527  -0.330  0.00  0.00    +0.007 A 
ATOM     20  C   UNL     1       1.778  -3.920   0.394  0.00  0.00    -0.003 A 
BRANCH  20  21
ATOM     21  C   UNL     1       0.701  -4.757   1.035  0.00  0.00    +0.016 C 
ATOM     22  C   UNL     1      -0.039  -5.550  -0.045  0.00  0.00    +0.012 C 
ATOM     23  C   UNL     1       1.334  -5.726   2.035  0.00  0.00    +0.012 C 
ENDBRANCH  20  21
ENDBRANCH  14  15
ENDBRANCH   1  14
TORSDOF 6
