REMARK  Name = ZINC37946610
REMARK  5 active torsions:
REMARK  status: ('A' for Active; 'I' for Inactive)
REMARK    1  A    between atoms: C_3  and  C_6
REMARK    2  A    between atoms: C_6  and  N_7
REMARK    3  A    between atoms: N_7  and  C_8
REMARK    4  A    between atoms: C_8  and  C_10
REMARK    5  A    between atoms: C_8  and  C_20
REMARK                            x       y       z     vdW  Elec       q    Type
REMARK                         _______ _______ _______ _____ _____    ______ ____
ROOT
ATOM      1  C   UNL     1       5.617   2.501   1.346  0.00  0.00    +0.047 C 
ENDROOT
BRANCH   1   2
ATOM      2  C   UNL     1       6.146   2.547   2.756  0.00  0.00    -0.048 A 
ATOM      3  C   UNL     1       7.451   2.171   3.017  0.00  0.00    +0.052 A 
ATOM      4  C   UNL     1       7.939   2.212   4.313  0.00  0.00    +0.168 A 
ATOM      5  C   UNL     1       7.112   2.634   5.351  0.00  0.00    +0.180 A 
ATOM      6  C   UNL     1       5.806   3.009   5.084  0.00  0.00    +0.063 A 
ATOM      7  C   UNL     1       5.327   2.970   3.786  0.00  0.00    +0.021 A 
ATOM      8 BR   UNL     1       4.679   3.581   6.490  0.00  0.00    -0.046 Br
ATOM      9  O   UNL     1       7.819   2.586   6.518  0.00  0.00    -0.451 OA
ATOM     10  C   UNL     1       8.956   1.746   6.245  0.00  0.00    +0.466 C 
ATOM     11  O   UNL     1       9.164   1.901   4.829  0.00  0.00    -0.453 OA
ENDBRANCH   1   2
BRANCH   1  12
ATOM     12  C   UNL     1       5.649   3.885   0.752  0.00  0.00    +0.201 C 
ATOM     13  O   UNL     1       4.621   4.407   0.375  0.00  0.00    -0.277 OA
ATOM     14  N   UNL     1       6.819   4.544   0.640  0.00  0.00    -0.330 N 
ATOM     15  H   UNL     1       7.641   4.127   0.942  0.00  0.00    +0.145 HD
ATOM     16  H   UNL     1       6.840   5.436   0.258  0.00  0.00    +0.145 HD
ENDBRANCH   1  12
BRANCH   1  17
ATOM     17  N   UNL     1       4.235   2.004   1.357  0.00  0.00    +0.392 N 
ATOM     18  H   UNL     1       3.645   2.663   1.842  0.00  0.00    -0.084 HD
ATOM     19  H   UNL     1       4.202   1.113   1.828  0.00  0.00    -0.084 HD
BRANCH  17  20
ATOM     20  C   UNL     1       3.761   1.845  -0.024  0.00  0.00    -0.038 C 
BRANCH  20  23
ATOM     21  C   UNL     1      -0.016   1.351   0.009  0.00  0.00    +0.008 A 
ATOM     22  C   UNL     1       1.183   2.038   0.002  0.00  0.00    +0.009 A 
ATOM     23  C   UNL     1       2.343   1.336  -0.013  0.00  0.00    -0.027 A 
ATOM     24  S   UNL     1       1.754  -0.349  -0.017  0.00  0.00    -0.104 S 
ATOM     25  C   UNL     1       0.002  -0.004   0.002  0.00  0.00    +0.045 A 
ENDBRANCH  20  23
ENDBRANCH  17  20
ENDBRANCH   1  17
TORSDOF 5
