REMARK  Name = ZINC08376953
REMARK  5 active torsions:
REMARK  status: ('A' for Active; 'I' for Inactive)
REMARK    1  A    between atoms: C_3  and  O_22
REMARK    2  A    between atoms: C_4  and  C_8
REMARK    3  A    between atoms: C_11  and  C_18
REMARK    4  A    between atoms: C_11  and  O_21
REMARK    5  A    between atoms: C_13  and  C_15
REMARK                            x       y       z     vdW  Elec       q    Type
REMARK                         _______ _______ _______ _____ _____    ______ ____
ROOT
ATOM      1  C   UNL     1       1.250  -2.158  -0.021  0.00  0.00    +0.272 C 
ATOM      2  O   UNL     1       2.308  -2.746  -0.137  0.00  0.00    -0.268 OA
ATOM      3  N   UNL     1       0.101  -2.854   0.088  0.00  0.00    -0.151 N 
ATOM      4  C   UNL     1      -0.008  -4.319   0.199  0.00  0.00    +0.222 C 
ATOM      5  C   UNL     1      -1.529  -4.553   0.295  0.00  0.00    +0.121 C 
ATOM      6  C   UNL     1      -2.114  -3.161   0.227  0.00  0.00    +0.107 C 
ATOM      7  N   UNL     1      -1.180  -2.307   0.122  0.00  0.00    -0.178 NA
ENDROOT
BRANCH   1  11
ATOM      8  C   UNL     1       1.174   2.090   0.040  0.00  0.00    +0.019 A 
ATOM      9  C   UNL     1       2.387   1.428   0.026  0.00  0.00    +0.047 A 
ATOM     10  C   UNL     1       2.423   0.043   0.005  0.00  0.00    +0.129 A 
ATOM     11  C   UNL     1       1.224  -0.684   0.000  0.00  0.00    +0.081 A 
ATOM     12  C   UNL     1       0.004  -0.003   0.015  0.00  0.00    +0.032 A 
ATOM     13  C   UNL     1      -0.013   1.376   0.035  0.00  0.00    +0.019 A 
ATOM     14 BR   UNL     1      -1.665   2.296   0.048  0.00  0.00    -0.050 Br
BRANCH  10  15
ATOM     15  O   UNL     1       3.613  -0.608  -0.009  0.00  0.00    -0.506 OA
ATOM     16  H   UNL     1       3.955  -0.784  -0.896  0.00  0.00    +0.292 HD
ENDBRANCH  10  15
ENDBRANCH   1  11
BRANCH   6  17
ATOM     17  C   UNL     1      -3.585  -2.834   0.281  0.00  0.00    +0.387 C 
ATOM     18  F   UNL     1      -3.831  -1.668  -0.452  0.00  0.00    -0.203 F 
ATOM     19  F   UNL     1      -4.318  -3.893  -0.267  0.00  0.00    -0.203 F 
ENDBRANCH   6  17
BRANCH   4  20
ATOM     20  C   UNL     1       0.700  -4.819   1.459  0.00  0.00    +0.393 C 
ATOM     21  F   UNL     1       2.060  -4.498   1.389  0.00  0.00    -0.204 F 
ATOM     22  F   UNL     1       0.135  -4.210   2.585  0.00  0.00    -0.204 F 
ENDBRANCH   4  20
BRANCH   4  23
ATOM     23  O   UNL     1       0.527  -4.953  -0.964  0.00  0.00    -0.365 OA
ATOM     24  H   UNL     1       1.466  -4.777  -1.111  0.00  0.00    +0.212 HD
ENDBRANCH   4  23
TORSDOF 5
