REMARK  Name = ZINC40568881
REMARK  9 active torsions:
REMARK  status: ('A' for Active; 'I' for Inactive)
REMARK    1  A    between atoms: C_1  and  C_2
REMARK    2  A    between atoms: C_2  and  O_3
REMARK    3  A    between atoms: O_3  and  C_4
REMARK    4  A    between atoms: C_4  and  C_6
REMARK    5  A    between atoms: C_7  and  N_34
REMARK    6  A    between atoms: C_11  and  C_15
REMARK    7  A    between atoms: N_23  and  C_26
REMARK    8  A    between atoms: C_26  and  C_27
REMARK    9  A    between atoms: C_31  and  C_33
REMARK                            x       y       z     vdW  Elec       q    Type
REMARK                         _______ _______ _______ _____ _____    ______ ____
ROOT
ATOM      1  C   UNL     1       1.444  -2.542  -2.337  0.00  0.00    +0.117 C 
ATOM      2  C   UNL     1       1.520  -3.890  -2.472  0.00  0.00    +0.198 C 
ATOM      3  O   UNL     1       2.124  -4.504  -3.508  0.00  0.00    -0.424 OA
ATOM      4  C   UNL     1       2.913  -3.756  -4.319  0.00  0.00    +0.223 A 
ATOM      5  C   UNL     1       2.913  -2.388  -4.289  0.00  0.00    +0.061 A 
ATOM      6  C   UNL     1       3.825  -1.938  -5.235  0.00  0.00    +0.068 A 
ATOM      7  N   UNL     1       4.358  -2.985  -5.817  0.00  0.00    -0.176 NA
ATOM      8  N   UNL     1       3.796  -4.141  -5.254  0.00  0.00    -0.246 N 
ATOM      9  H   UNL     1       4.008  -5.056  -5.496  0.00  0.00    +0.192 HD
ATOM     10  C   UNL     1       4.145  -0.497  -5.539  0.00  0.00    +0.068 C 
ATOM     11  C   UNL     1       2.032  -1.605  -3.356  0.00  0.00    +0.142 C 
ATOM     12  C   UNL     1       0.964  -0.868  -4.098  0.00  0.00    -0.002 A 
ATOM     13  C   UNL     1      -0.065  -1.312  -4.901  0.00  0.00    +0.007 A 
ATOM     14  C   UNL     1      -0.898  -0.344  -5.451  0.00  0.00    +0.000 A 
ATOM     15  C   UNL     1      -0.703   0.999  -5.202  0.00  0.00    +0.002 A 
ATOM     16  C   UNL     1       0.328   1.453  -4.394  0.00  0.00    +0.024 A 
ATOM     17  C   UNL     1       1.173   0.492  -3.836  0.00  0.00    +0.041 A 
ATOM     18  N   UNL     1       2.265   0.659  -3.003  0.00  0.00    -0.265 N 
ATOM     19  C   UNL     1       2.832  -0.520  -2.669  0.00  0.00    +0.240 C 
ATOM     20  O   UNL     1       3.799  -0.678  -1.954  0.00  0.00    -0.274 OA
ENDROOT
BRANCH   2  21
ATOM     21  N   UNL     1       0.951  -4.670  -1.501  0.00  0.00    -0.329 N 
ATOM     22  H   UNL     1       0.445  -4.259  -0.783  0.00  0.00    +0.145 HD
ATOM     23  H   UNL     1       1.054  -5.635  -1.531  0.00  0.00    +0.145 HD
ENDBRANCH   2  21
BRANCH   1  24
ATOM     24  C   UNL     1       0.791  -2.007  -1.218  0.00  0.00    +0.342 C 
ATOM     25  O   UNL     1       1.441  -1.612  -0.266  0.00  0.00    -0.245 OA
BRANCH  24  26
ATOM     26  O   UNL     1      -0.557  -1.930  -1.194  0.00  0.00    -0.462 OA
BRANCH  26  28
ATOM     27  C   UNL     1      -2.673  -1.386  -0.161  0.00  0.00    +0.048 C 
ATOM     28  C   UNL     1      -1.150  -1.271  -0.073  0.00  0.00    +0.229 C 
ENDBRANCH  26  28
ENDBRANCH  24  26
ENDBRANCH   1  24
BRANCH  18  29
ATOM     29  C   UNL     1       2.749   1.961  -2.538  0.00  0.00    +0.148 C 
BRANCH  29  30
ATOM     30  C   UNL     1       2.161   2.262  -1.184  0.00  0.00    -0.029 A 
ATOM     31  C   UNL     1       0.907   2.837  -1.087  0.00  0.00    +0.005 A 
ATOM     32  C   UNL     1       0.367   3.112   0.155  0.00  0.00    +0.001 A 
ATOM     33  C   UNL     1       1.081   2.812   1.301  0.00  0.00    +0.003 A 
ATOM     34  C   UNL     1       2.334   2.237   1.204  0.00  0.00    -0.050 A 
ATOM     35  C   UNL     1       2.872   1.957  -0.039  0.00  0.00    +0.008 A 
ATOM     36  C   UNL     1       3.112   1.910   2.453  0.00  0.00    +0.044 C 
ENDBRANCH  29  30
ENDBRANCH  18  29
TORSDOF 6
