REMARK  Name = ZINC39669247
REMARK  6 active torsions:
REMARK  status: ('A' for Active; 'I' for Inactive)
REMARK    1  A    between atoms: C_1  and  C_2
REMARK    2  A    between atoms: C_4  and  C_8
REMARK    3  A    between atoms: N_6  and  C_7
REMARK    4  A    between atoms: C_12  and  C_21
REMARK    5  A    between atoms: N_23  and  C_24
REMARK    6  A    between atoms: C_24  and  C_25
REMARK                            x       y       z     vdW  Elec       q    Type
REMARK                         _______ _______ _______ _____ _____    ______ ____
ROOT
ATOM      1  C   UNL     1       0.155  -3.211  -1.143  0.00  0.00    +0.267 C 
ATOM      2  O   UNL     1       0.182  -3.050  -2.348  0.00  0.00    -0.268 OA
ATOM      3  N   UNL     1       0.135  -4.457  -0.631  0.00  0.00    -0.295 N 
ATOM      4  C   UNL     1       0.095  -4.852   0.797  0.00  0.00    +0.121 C 
ATOM      5  C   UNL     1      -0.860  -6.066   0.841  0.00  0.00    +0.100 C 
ATOM      6  C   UNL     1      -0.820  -6.647  -0.582  0.00  0.00    -0.004 C 
ATOM      7  C   UNL     1       0.141  -5.744  -1.368  0.00  0.00    +0.115 C 
ATOM      8  C   UNL     1      -2.209  -6.603  -1.211  0.00  0.00    -0.010 C 
ATOM      9  C   UNL     1      -2.155  -7.239  -2.603  0.00  0.00    -0.082 C 
ATOM     10  N   UNL     1      -1.690  -8.627  -2.491  0.00  0.00    +0.379 N 
ATOM     11  C   UNL     1      -0.318  -8.656  -1.972  0.00  0.00    -0.082 C 
ATOM     12  C   UNL     1      -0.295  -8.079  -0.553  0.00  0.00    -0.010 C 
ATOM     13  H   UNL     1      -2.297  -9.133  -1.864  0.00  0.00    -0.086 HD
ATOM     14  H   UNL     1      -1.714  -9.062  -3.401  0.00  0.00    -0.086 HD
ENDROOT
BRANCH   1  18
ATOM     15  C   UNL     1       0.151   1.525   0.660  0.00  0.00    +0.065 C 
ATOM     16  C   UNL     1       0.142   0.024   0.528  0.00  0.00    +0.037 A 
ATOM     17  C   UNL     1       0.163  -0.680  -0.628  0.00  0.00    +0.057 A 
ATOM     18  C   UNL     1       0.144  -2.041  -0.241  0.00  0.00    +0.147 A 
ATOM     19  N   UNL     1       0.115  -2.067   1.076  0.00  0.00    -0.167 NA
ATOM     20  N   UNL     1       0.118  -0.869   1.540  0.00  0.00    -0.271 N 
ATOM     21  C   UNL     1       0.096  -0.522   2.964  0.00  0.00    +0.172 C 
ENDBRANCH   1  18
BRANCH   5  22
ATOM     22  C   UNL     1      -2.258  -5.622   1.189  0.00  0.00    +0.218 C 
ATOM     23  O   UNL     1      -2.640  -4.516   0.868  0.00  0.00    -0.275 OA
ATOM     24  N   UNL     1      -3.082  -6.453   1.857  0.00  0.00    -0.312 N 
ATOM     25  H   UNL     1      -2.776  -7.337   2.113  0.00  0.00    +0.149 HD
BRANCH  24  26
ATOM     26  C   UNL     1      -4.441  -6.022   2.195  0.00  0.00    +0.140 C 
BRANCH  26  27
ATOM     27  C   UNL     1      -5.160  -7.144   2.946  0.00  0.00    +0.165 C 
ATOM     28  C   UNL     1      -6.554  -6.694   3.299  0.00  0.00    -0.014 A 
ATOM     29  C   UNL     1      -6.734  -5.413   3.797  0.00  0.00    +0.006 A 
ATOM     30  C   UNL     1      -7.996  -4.969   4.136  0.00  0.00    +0.000 A 
ATOM     31  C   UNL     1      -9.086  -5.805   3.979  0.00  0.00    +0.000 A 
ATOM     32  C   UNL     1      -8.909  -7.080   3.481  0.00  0.00    +0.004 A 
ATOM     33  C   UNL     1      -7.642  -7.526   3.138  0.00  0.00    -0.040 A 
ATOM     34  C   UNL     1      -7.489  -8.920   2.586  0.00  0.00    +0.063 C 
ATOM     35  C   UNL     1      -6.023  -9.351   2.669  0.00  0.00    +0.165 C 
ATOM     36  O   UNL     1      -5.214  -8.306   2.119  0.00  0.00    -0.370 OA
ENDBRANCH  26  27
ENDBRANCH  24  26
ENDBRANCH   5  22
TORSDOF 4
