REMARK  Name = ZINC39658628
REMARK  7 active torsions:
REMARK  status: ('A' for Active; 'I' for Inactive)
REMARK    1  A    between atoms: C_4  and  C_7
REMARK    2  A    between atoms: C_7  and  S_8
REMARK    3  A    between atoms: S_8  and  C_9
REMARK    4  A    between atoms: C_9  and  C_10
REMARK    5  A    between atoms: C_10  and  N_11
REMARK    6  A    between atoms: C_12  and  C_14
REMARK    7  A    between atoms: C_25  and  C_27
REMARK                            x       y       z     vdW  Elec       q    Type
REMARK                         _______ _______ _______ _____ _____    ______ ____
ROOT
ATOM      1  C   UNL     1       9.740  -4.087   3.586  0.00  0.00    +0.100 C 
ATOM      2  C   UNL     1      10.714  -3.204   2.774  0.00  0.00    +0.121 C 
ATOM      3  N   UNL     1      11.513  -2.489   3.796  0.00  0.00    -0.297 N 
ATOM      4  C   UNL     1      11.753  -3.502   4.851  0.00  0.00    +0.115 C 
ATOM      5  C   UNL     1      10.427  -4.283   4.948  0.00  0.00    -0.004 C 
ATOM      6  C   UNL     1       9.560  -3.711   6.065  0.00  0.00    -0.010 C 
ATOM      7  C   UNL     1      10.238  -3.969   7.414  0.00  0.00    -0.082 C 
ATOM      8  N   UNL     1      10.424  -5.413   7.602  0.00  0.00    +0.379 N 
ATOM      9  C   UNL     1      11.334  -5.938   6.577  0.00  0.00    -0.082 C 
ATOM     10  C   UNL     1      10.703  -5.763   5.193  0.00  0.00    -0.010 C 
ATOM     11  C   UNL     1      11.928  -1.207   3.773  0.00  0.00    +0.260 C 
ATOM     12  O   UNL     1      11.567  -0.469   2.880  0.00  0.00    -0.271 OA
ATOM     13  H   UNL     1      10.815  -5.584   8.516  0.00  0.00    -0.086 HD
ATOM     14  H   UNL     1       9.532  -5.878   7.528  0.00  0.00    -0.086 HD
ENDROOT
BRANCH  11  15
ATOM     15  C   UNL     1      12.840  -0.690   4.855  0.00  0.00    +0.296 C 
ATOM     16  C   UNL     1      14.223  -1.341   4.721  0.00  0.00    +0.283 C 
ATOM     17  O   UNL     1      15.067  -0.818   5.753  0.00  0.00    -0.484 OA
ATOM     18  C   UNL     1      15.045   0.530   5.936  0.00  0.00    +0.162 A 
ATOM     19  C   UNL     1      16.073   1.138   6.643  0.00  0.00    +0.049 A 
ATOM     20  C   UNL     1      16.063   2.506   6.840  0.00  0.00    +0.004 A 
ATOM     21  C   UNL     1      15.030   3.272   6.333  0.00  0.00    +0.004 A 
ATOM     22  C   UNL     1      14.005   2.673   5.627  0.00  0.00    +0.049 A 
ATOM     23  C   UNL     1      14.008   1.301   5.425  0.00  0.00    +0.163 A 
ATOM     24  O   UNL     1      12.995   0.727   4.720  0.00  0.00    -0.473 OA
ENDBRANCH  11  15
BRANCH   1  26
ATOM     25  N   UNL     1       7.283  -4.103   3.870  0.00  0.00    -0.314 N 
ATOM     26  C   UNL     1       8.418  -3.385   3.762  0.00  0.00    +0.218 C 
ATOM     27  O   UNL     1       8.376  -2.174   3.807  0.00  0.00    -0.275 OA
ATOM     28  H   UNL     1       7.316  -5.072   3.834  0.00  0.00    +0.149 HD
BRANCH  25  29
ATOM     29  C   UNL     1       5.997  -3.421   4.041  0.00  0.00    +0.115 C 
BRANCH  29  30
ATOM     30  C   UNL     1       4.878  -4.459   4.137  0.00  0.00    +0.088 C 
BRANCH  30  31
ATOM     31  S   UNL     1       3.286  -3.614   4.349  0.00  0.00    -0.155 S 
BRANCH  31  32
ATOM     32  C   UNL     1       2.081  -4.966   4.444  0.00  0.00    +0.104 C 
BRANCH  32  36
ATOM     33  C   UNL     1      -1.840  -3.348   4.950  0.00  0.00    +0.000 A 
ATOM     34  C   UNL     1      -1.343  -3.570   3.680  0.00  0.00    +0.000 A 
ATOM     35  C   UNL     1      -0.074  -4.093   3.516  0.00  0.00    +0.004 A 
ATOM     36  C   UNL     1       0.698  -4.394   4.623  0.00  0.00    -0.038 A 
ATOM     37  C   UNL     1       0.201  -4.172   5.893  0.00  0.00    +0.004 A 
ATOM     38  C   UNL     1      -1.068  -3.650   6.057  0.00  0.00    +0.000 A 
ENDBRANCH  32  36
ENDBRANCH  31  32
ENDBRANCH  30  31
ENDBRANCH  29  30
ENDBRANCH  25  29
ENDBRANCH   1  26
TORSDOF 7
