REMARK  Name = ZINC42955139
REMARK  11 active torsions:
REMARK  status: ('A' for Active; 'I' for Inactive)
REMARK    1  A    between atoms: C_1  and  C_2
REMARK    2  A    between atoms: C_2  and  C_3
REMARK    3  A    between atoms: C_3  and  C_5
REMARK    4  A    between atoms: C_3  and  N_22
REMARK    5  A    between atoms: C_5  and  C_7
REMARK    6  A    between atoms: C_5  and  N_14
REMARK    7  A    between atoms: N_14  and  C_15
REMARK    8  A    between atoms: N_14  and  C_19
REMARK    9  A    between atoms: C_15  and  C_16
REMARK   10  A    between atoms: C_19  and  C_20
REMARK   11  A    between atoms: C_19  and  C_21
REMARK                            x       y       z     vdW  Elec       q    Type
REMARK                         _______ _______ _______ _____ _____    ______ ____
ROOT
ATOM      1  C   UNL     1       0.260  -1.588  -0.982  0.00  0.00    -0.052 C 
ENDROOT
BRANCH   1   2
ATOM      2  C   UNL     1       0.873  -2.207   0.248  0.00  0.00    -0.062 A 
ATOM      3  C   UNL     1       0.158  -2.245   1.431  0.00  0.00    +0.003 A 
ATOM      4  C   UNL     1       0.720  -2.813   2.559  0.00  0.00    +0.015 A 
ATOM      5  C   UNL     1       1.996  -3.344   2.505  0.00  0.00    +0.018 A 
ATOM      6  C   UNL     1       2.710  -3.306   1.321  0.00  0.00    +0.015 A 
ATOM      7  C   UNL     1       2.146  -2.742   0.192  0.00  0.00    +0.003 A 
ATOM      8 BR   UNL     1       2.764  -4.121   4.048  0.00  0.00    -0.050 Br
ENDBRANCH   1   2
BRANCH   1   9
ATOM      9  N   UNL     1      -1.133  -2.034  -1.112  0.00  0.00    +0.390 N 
ATOM     10  H   UNL     1      -1.625  -1.859  -0.249  0.00  0.00    -0.080 HD
BRANCH   9  11
ATOM     11  C   UNL     1      -1.161  -3.473  -1.408  0.00  0.00    -0.074 C 
ATOM     12  C   UNL     1      -0.255  -3.765  -2.605  0.00  0.00    -0.013 C 
ATOM     13  C   UNL     1      -0.664  -4.253  -0.189  0.00  0.00    -0.013 C 
ENDBRANCH   9  11
BRANCH   9  14
ATOM     14  C   UNL     1      -1.783  -1.298  -2.205  0.00  0.00    +0.019 C 
BRANCH  14  15
ATOM     15  C   UNL     1      -3.245  -1.658  -2.253  0.00  0.00    +0.194 C 
ATOM     16  O   UNL     1      -3.726  -2.361  -1.390  0.00  0.00    -0.278 OA
ATOM     17  N   UNL     1      -4.020  -1.198  -3.256  0.00  0.00    -0.331 N 
ATOM     18  H   UNL     1      -3.635  -0.636  -3.947  0.00  0.00    +0.145 HD
ATOM     19  H   UNL     1      -4.961  -1.430  -3.288  0.00  0.00    +0.145 HD
ENDBRANCH  14  15
ENDBRANCH   9  14
ENDBRANCH   1   9
BRANCH   1  20
ATOM     20  C   UNL     1       0.298  -0.064  -0.858  0.00  0.00    -0.085 C 
BRANCH  20  21
ATOM     21  N   UNL     1       1.678   0.373  -0.607  0.00  0.00    +0.379 N 
ATOM     22  H   UNL     1       2.267   0.083  -1.374  0.00  0.00    -0.090 HD
ATOM     23  H   UNL     1       1.703   1.379  -0.526  0.00  0.00    -0.090 HD
ATOM     24  H   UNL     1       2.012  -0.042   0.249  0.00  0.00    -0.090 HD
ENDBRANCH  20  21
BRANCH  20  26
ATOM     25  C   UNL     1      -0.656   1.904   0.350  0.00  0.00    +0.002 C 
ATOM     26  C   UNL     1      -0.595   0.376   0.304  0.00  0.00    -0.021 C 
ENDBRANCH  20  26
ENDBRANCH   1  20
TORSDOF 8
