REMARK  Name = ZINC31843599
REMARK  10 active torsions:
REMARK  status: ('A' for Active; 'I' for Inactive)
REMARK    1  A    between atoms: C_1  and  C_2
REMARK    2  A    between atoms: C_5  and  N_8
REMARK    3  A    between atoms: C_9  and  C_26
REMARK    4  A    between atoms: C_12  and  S_13
REMARK    5  A    between atoms: S_13  and  C_14
REMARK    6  A    between atoms: C_14  and  C_15
REMARK    7  A    between atoms: N_17  and  C_18
REMARK    8  A    between atoms: N_22  and  C_23
REMARK    9  A    between atoms: C_23  and  C_24
REMARK   10  A    between atoms: C_23  and  C_25
REMARK                            x       y       z     vdW  Elec       q    Type
REMARK                         _______ _______ _______ _____ _____    ______ ____
ROOT
ATOM      1  N   UNL     1      -3.018  -6.051   5.383  0.00  0.00    -0.270 N 
ATOM      2  C   UNL     1      -2.686  -7.254   4.799  0.00  0.00    +0.169 A 
ATOM      3  N   UNL     1      -2.054  -6.978   3.682  0.00  0.00    -0.128 NA
ATOM      4  N   UNL     1      -1.972  -5.705   3.526  0.00  0.00    -0.122 NA
ATOM      5  C   UNL     1      -2.547  -5.088   4.534  0.00  0.00    +0.197 A 
ENDROOT
BRANCH   1  10
ATOM      6  C   UNL     1      -5.769  -5.263  10.284  0.00  0.00    +0.044 C 
ATOM      7  C   UNL     1      -5.039  -5.472   8.983  0.00  0.00    -0.050 A 
ATOM      8  C   UNL     1      -5.619  -5.072   7.793  0.00  0.00    +0.005 A 
ATOM      9  C   UNL     1      -4.952  -5.262   6.599  0.00  0.00    +0.026 A 
ATOM     10  C   UNL     1      -3.697  -5.856   6.594  0.00  0.00    +0.051 A 
ATOM     11  C   UNL     1      -3.119  -6.261   7.789  0.00  0.00    +0.026 A 
ATOM     12  C   UNL     1      -3.789  -6.063   8.981  0.00  0.00    +0.005 A 
ENDBRANCH   1  10
BRANCH   2  13
ATOM     13  C   UNL     1      -2.980  -8.601   5.332  0.00  0.00    +0.020 A 
ATOM     14  C   UNL     1      -3.913  -8.761   6.358  0.00  0.00    +0.011 A 
ATOM     15  C   UNL     1      -4.187 -10.021   6.847  0.00  0.00    +0.001 A 
ATOM     16  C   UNL     1      -3.531 -11.124   6.331  0.00  0.00    +0.000 A 
ATOM     17  C   UNL     1      -2.601 -10.973   5.317  0.00  0.00    +0.001 A 
ATOM     18  C   UNL     1      -2.321  -9.718   4.815  0.00  0.00    +0.011 A 
ENDBRANCH   2  13
BRANCH   5  19
ATOM     19  S   UNL     1      -2.681  -3.344   4.754  0.00  0.00    -0.076 S 
BRANCH  19  20
ATOM     20  C   UNL     1      -1.836  -2.773   3.259  0.00  0.00    +0.173 C 
BRANCH  20  21
ATOM     21  C   UNL     1      -1.828  -1.266   3.231  0.00  0.00    +0.229 C 
ATOM     22  O   UNL     1      -2.343  -0.640   4.133  0.00  0.00    -0.275 OA
ATOM     23  N   UNL     1      -1.249  -0.615   2.203  0.00  0.00    -0.270 N 
ATOM     24  H   UNL     1      -0.782  -1.183   1.385  0.00  0.00    +0.156 HD
BRANCH  23  25
ATOM     25  C   UNL     1      -1.241   0.780   2.177  0.00  0.00    +0.123 A 
ATOM     26  C   UNL     1      -1.776   1.605   3.119  0.00  0.00    +0.065 A 
ATOM     27  C   UNL     1      -1.557   2.922   2.707  0.00  0.00    +0.136 A 
ATOM     28  N   UNL     1      -0.913   2.896   1.568  0.00  0.00    -0.178 NA
ATOM     29  N   UNL     1      -0.698   1.558   1.213  0.00  0.00    -0.248 N 
BRANCH  29  30
ATOM     30  C   UNL     1      -0.013   1.086   0.008  0.00  0.00    +0.103 C 
ATOM     31  C   UNL     1       1.423   1.615  -0.003  0.00  0.00    +0.032 C 
ATOM     32  C   UNL     1      -0.753   1.593  -1.232  0.00  0.00    +0.032 C 
ENDBRANCH  29  30
ENDBRANCH  23  25
ENDBRANCH  20  21
ENDBRANCH  19  20
ENDBRANCH   5  19
TORSDOF 7
