REMARK  Name = ZINC21367018
REMARK  7 active torsions:
REMARK  status: ('A' for Active; 'I' for Inactive)
REMARK    1  A    between atoms: C_1  and  C_2
REMARK    2  A    between atoms: C_2  and  C_4
REMARK    3  A    between atoms: C_2  and  N_10
REMARK    4  A    between atoms: N_10  and  C_11
REMARK    5  A    between atoms: C_11  and  C_13
REMARK    6  A    between atoms: C_11  and  C_20
REMARK    7  A    between atoms: C_23  and  C_25
REMARK                            x       y       z     vdW  Elec       q    Type
REMARK                         _______ _______ _______ _____ _____    ______ ____
ROOT
ATOM      1  C   UNL     1      -3.477   5.017   0.048  0.00  0.00    +0.049 C 
ENDROOT
BRANCH   1   2
ATOM      2  C   UNL     1      -4.024   5.292   1.425  0.00  0.00    -0.052 A 
ATOM      3  C   UNL     1      -5.223   4.726   1.817  0.00  0.00    +0.003 A 
ATOM      4  C   UNL     1      -5.723   4.974   3.082  0.00  0.00    +0.015 A 
ATOM      5  C   UNL     1      -5.029   5.796   3.951  0.00  0.00    +0.018 A 
ATOM      6  C   UNL     1      -3.832   6.366   3.555  0.00  0.00    +0.015 A 
ATOM      7  C   UNL     1      -3.330   6.114   2.293  0.00  0.00    +0.003 A 
ATOM      8 BR   UNL     1      -5.716   6.142   5.678  0.00  0.00    -0.050 Br
ENDBRANCH   1   2
BRANCH   1   9
ATOM      9  C   UNL     1      -2.796   3.672   0.036  0.00  0.00    +0.208 A 
ATOM     10  N   UNL     1      -3.388   2.510   0.033  0.00  0.00    -0.113 NA
ATOM     11  N   UNL     1      -2.502   1.577   0.023  0.00  0.00    -0.107 NA
ATOM     12  C   UNL     1      -1.305   2.116   0.020  0.00  0.00    +0.248 A 
ATOM     13  O   UNL     1      -1.470   3.454   0.033  0.00  0.00    -0.422 OA
BRANCH  12  14
ATOM     14  C   UNL     1      -0.017   1.391   0.010  0.00  0.00    +0.038 A 
ATOM     15  C   UNL     1       1.186   2.100   0.002  0.00  0.00    +0.013 A 
ATOM     16  C   UNL     1       2.385   1.417  -0.013  0.00  0.00    +0.001 A 
ATOM     17  C   UNL     1       2.396   0.034  -0.021  0.00  0.00    +0.000 A 
ATOM     18  C   UNL     1       1.208  -0.674  -0.013  0.00  0.00    +0.001 A 
ATOM     19  C   UNL     1       0.002  -0.004   0.002  0.00  0.00    +0.013 A 
ENDBRANCH  12  14
ENDBRANCH   1   9
BRANCH   1  20
ATOM     20  N   UNL     1      -4.577   5.017  -0.926  0.00  0.00    +0.394 N 
ATOM     21  H   UNL     1      -5.470   4.588  -0.448  0.00  0.00    -0.083 HD
ATOM     22  H   UNL     1      -4.287   4.396  -1.786  0.00  0.00    -0.083 HD
BRANCH  20  24
ATOM     23  C   UNL     1      -5.833   7.053  -0.399  0.00  0.00    -0.009 C 
ATOM     24  C   UNL     1      -4.874   6.380  -1.385  0.00  0.00    -0.043 C 
BRANCH  24  25
ATOM     25  C   UNL     1      -5.514   6.324  -2.748  0.00  0.00    -0.062 A 
ATOM     26  C   UNL     1      -6.439   5.338  -3.037  0.00  0.00    +0.002 A 
ATOM     27  C   UNL     1      -7.028   5.288  -4.286  0.00  0.00    +0.000 A 
ATOM     28  C   UNL     1      -6.686   6.219  -5.250  0.00  0.00    +0.000 A 
ATOM     29  C   UNL     1      -5.757   7.202  -4.962  0.00  0.00    +0.000 A 
ATOM     30  C   UNL     1      -5.171   7.254  -3.711  0.00  0.00    +0.002 A 
ENDBRANCH  24  25
ENDBRANCH  20  24
ENDBRANCH   1  20
TORSDOF 6
