REMARK  Name = ZINC17885412
REMARK  5 active torsions:
REMARK  status: ('A' for Active; 'I' for Inactive)
REMARK    1  A    between atoms: C_3  and  C_6
REMARK    2  A    between atoms: C_9  and  C_23
REMARK    3  A    between atoms: C_12  and  C_14
REMARK    4  A    between atoms: C_14  and  S_15
REMARK    5  A    between atoms: S_15  and  C_16
REMARK                            x       y       z     vdW  Elec       q    Type
REMARK                         _______ _______ _______ _____ _____    ______ ____
ROOT
ATOM      1  C   UNL     1       3.599   0.625  -0.029  0.00  0.00    +0.173 C 
ATOM      2  C   UNL     1       4.148   0.302   1.374  0.00  0.00    +0.090 C 
ATOM      3  C   UNL     1       4.900  -0.996   1.181  0.00  0.00    +0.069 C 
ATOM      4  N   UNL     1       4.819  -1.361  -0.051  0.00  0.00    -0.181 NA
ATOM      5  N   UNL     1       4.083  -0.490  -0.858  0.00  0.00    -0.181 N 
ATOM      6  C   UNL     1       3.852  -0.645  -2.177  0.00  0.00    +0.246 C 
ATOM      7  O   UNL     1       3.195   0.179  -2.778  0.00  0.00    -0.273 OA
ENDROOT
BRANCH   3   8
ATOM      8  C   UNL     1       5.618  -1.729   2.240  0.00  0.00    -0.002 A 
ATOM      9  C   UNL     1       5.633  -1.237   3.547  0.00  0.00    +0.011 A 
ATOM     10  C   UNL     1       6.306  -1.928   4.534  0.00  0.00    +0.020 A 
ATOM     11  C   UNL     1       6.964  -3.107   4.230  0.00  0.00    +0.041 A 
ATOM     12  C   UNL     1       6.953  -3.601   2.936  0.00  0.00    +0.020 A 
ATOM     13  C   UNL     1       6.280  -2.923   1.942  0.00  0.00    +0.011 A 
ATOM     14 CL   UNL     1       7.808  -3.971   5.477  0.00  0.00    -0.084 Cl
ENDBRANCH   3   8
BRANCH   1  17
ATOM     15  C   UNL     1      -0.016   1.341   0.009  0.00  0.00    +0.041 A 
ATOM     16  C   UNL     1       1.331   1.769  -0.001  0.00  0.00    +0.046 A 
ATOM     17  C   UNL     1       2.092   0.660  -0.014  0.00  0.00    +0.128 A 
ATOM     18  O   UNL     1       1.282  -0.411  -0.012  0.00  0.00    -0.466 OA
ATOM     19  C   UNL     1       0.002  -0.004   0.002  0.00  0.00    +0.195 A 
ENDBRANCH   1  17
BRANCH   6  20
ATOM     20  C   UNL     1       4.410  -1.840  -2.905  0.00  0.00    +0.175 C 
BRANCH  20  21
ATOM     21  S   UNL     1       3.930  -1.763  -4.653  0.00  0.00    -0.075 S 
BRANCH  21  22
ATOM     22  C   UNL     1       4.649  -3.209  -5.357  0.00  0.00    +0.210 A 
ATOM     23  N   UNL     1       4.563  -3.574  -6.641  0.00  0.00    -0.188 NA
ATOM     24  C   UNL     1       5.214  -4.703  -6.825  0.00  0.00    +0.209 A 
ATOM     25  N   UNL     1       5.734  -5.082  -5.640  0.00  0.00    -0.246 N 
ATOM     26  H   UNL     1       6.264  -5.875  -5.465  0.00  0.00    +0.192 HD
ATOM     27  N   UNL     1       5.361  -4.100  -4.708  0.00  0.00    -0.144 NA
ATOM     28  N   UNL     1       5.341  -5.381  -8.024  0.00  0.00    -0.328 N 
ATOM     29  H   UNL     1       4.929  -5.028  -8.827  0.00  0.00    +0.145 HD
ATOM     30  H   UNL     1       5.843  -6.211  -8.060  0.00  0.00    +0.145 HD
ENDBRANCH  21  22
ENDBRANCH  20  21
ENDBRANCH   6  20
TORSDOF 5
