REMARK  Name = ZINC09256949
REMARK  9 active torsions:
REMARK  status: ('A' for Active; 'I' for Inactive)
REMARK    1  A    between atoms: C_1  and  C_2
REMARK    2  A    between atoms: C_5  and  S_25
REMARK    3  A    between atoms: C_7  and  N_8
REMARK    4  A    between atoms: C_9  and  C_11
REMARK    5  A    between atoms: C_11  and  N_61
REMARK    6  A    between atoms: C_12  and  C_14
REMARK    7  A    between atoms: C_12  and  C_20
REMARK    8  A    between atoms: C_12  and  N_61
REMARK    9  A    between atoms: S_25  and  N_28
REMARK                            x       y       z     vdW  Elec       q    Type
REMARK                         _______ _______ _______ _____ _____    ______ ____
ROOT
ATOM      1  N   UNL     1       6.215   0.165  -2.692  0.00  0.00    -0.287 N 
ATOM      2  C   UNL     1       6.151   1.498  -2.502  0.00  0.00    +0.200 C 
ATOM      3  O   UNL     1       5.366   1.959  -1.701  0.00  0.00    -0.278 OA
ATOM      4  H   UNL     1       6.887  -0.209  -3.284  0.00  0.00    +0.155 HD
ENDROOT
BRANCH   1  11
ATOM      5  C   UNL     1       5.324  -2.169  -4.055  0.00  0.00    +0.045 C 
ATOM      6  C   UNL     1       4.853  -1.829  -2.665  0.00  0.00    -0.029 A 
ATOM      7  C   UNL     1       3.962  -2.661  -2.014  0.00  0.00    +0.007 A 
ATOM      8  C   UNL     1       3.533  -2.352  -0.737  0.00  0.00    +0.029 A 
ATOM      9  C   UNL     1       3.985  -1.205  -0.110  0.00  0.00    +0.107 A 
ATOM     10  C   UNL     1       4.875  -0.370  -0.755  0.00  0.00    +0.052 A 
ATOM     11  C   UNL     1       5.313  -0.679  -2.036  0.00  0.00    +0.038 A 
BRANCH   9  12
ATOM     12  S   UNL     1       3.430  -0.814   1.516  0.00  0.00    +0.061 S 
ATOM     13  O   UNL     1       4.423   0.021   2.094  0.00  0.00    -0.153 OA
ATOM     14  O   UNL     1       3.022  -2.038   2.112  0.00  0.00    -0.153 OA
BRANCH  12  15
ATOM     15  N   UNL     1       2.066   0.113   1.358  0.00  0.00    -0.177 NA
ATOM     16  C   UNL     1       0.739  -0.513   1.295  0.00  0.00    +0.109 C 
ATOM     17  C   UNL     1       0.018  -0.017   0.038  0.00  0.00    +0.017 C 
ATOM     18  C   UNL     1      -0.008   1.514   0.041  0.00  0.00    +0.003 C 
ATOM     19  C   UNL     1       1.425   2.050   0.020  0.00  0.00    +0.017 C 
ATOM     20  C   UNL     1       2.161   1.577   1.277  0.00  0.00    +0.109 C 
ENDBRANCH  12  15
ENDBRANCH   9  12
ENDBRANCH   1  11
BRANCH   2  21
ATOM     21  C   UNL     1       7.056   2.415  -3.285  0.00  0.00    +0.016 C 
BRANCH  21  22
ATOM     22  N   UNL     1       6.787   3.810  -2.891  0.00  0.00    +0.392 N 
ATOM     23  H   UNL     1       6.965   3.919  -1.885  0.00  0.00    -0.084 HD
ATOM     24  H   UNL     1       5.805   4.035  -3.090  0.00  0.00    -0.084 HD
BRANCH  22  25
ATOM     25  C   UNL     1       7.659   4.732  -3.643  0.00  0.00    -0.003 C 
BRANCH  25  26
ATOM     26  C   UNL     1       7.003   6.086  -3.715  0.00  0.00    -0.057 A 
ATOM     27  C   UNL     1       6.329   6.588  -2.617  0.00  0.00    +0.002 A 
ATOM     28  C   UNL     1       5.731   7.832  -2.682  0.00  0.00    +0.000 A 
ATOM     29  C   UNL     1       5.797   8.571  -3.848  0.00  0.00    +0.000 A 
ATOM     30  C   UNL     1       6.466   8.067  -4.948  0.00  0.00    +0.000 A 
ATOM     31  C   UNL     1       7.069   6.825  -4.882  0.00  0.00    +0.002 A 
ENDBRANCH  25  26
BRANCH  25  32
ATOM     32  C   UNL     1       8.986   4.854  -2.939  0.00  0.00    -0.020 A 
ATOM     33  C   UNL     1      10.232   4.915  -3.471  0.00  0.00    +0.010 A 
ATOM     34  C   UNL     1      11.318   5.032  -2.623  0.00  0.00    +0.008 A 
ATOM     35  C   UNL     1      11.105   5.070  -1.285  0.00  0.00    +0.045 A 
ATOM     36  S   UNL     1       9.327   4.948  -1.189  0.00  0.00    -0.103 S 
ENDBRANCH  25  32
ENDBRANCH  22  25
ENDBRANCH  21  22
ENDBRANCH   2  21
TORSDOF 8
