REMARK  Name = ZINC39228748
REMARK  4 active torsions:
REMARK  status: ('A' for Active; 'I' for Inactive)
REMARK    1  A    between atoms: C_8  and  C_29
REMARK    2  A    between atoms: N_10  and  C_16
REMARK    3  A    between atoms: C_16  and  C_17
REMARK    4  A    between atoms: N_19  and  C_20
REMARK                            x       y       z     vdW  Elec       q    Type
REMARK                         _______ _______ _______ _____ _____    ______ ____
ROOT
ATOM      1  C   UNL     1       0.297   1.140   0.451  0.00  0.00    +0.001 A 
ATOM      2  C   UNL     1       0.313  -0.245   0.367  0.00  0.00    +0.002 A 
ATOM      3  C   UNL     1      -0.862  -0.954   0.242  0.00  0.00    +0.026 A 
ATOM      4  C   UNL     1      -2.077  -0.279   0.199  0.00  0.00    +0.047 A 
ATOM      5  N   UNL     1      -3.386  -0.693   0.081  0.00  0.00    -0.359 N 
ATOM      6  C   UNL     1      -4.218   0.388   0.090  0.00  0.00    +0.011 A 
ATOM      7  H   UNL     1      -3.674  -1.616   0.004  0.00  0.00    +0.166 HD
ATOM      8  C   UNL     1      -5.726   0.392  -0.011  0.00  0.00    +0.015 C 
ATOM      9  N   UNL     1      -6.223   1.694   0.463  0.00  0.00    +0.394 N 
ATOM     10  C   UNL     1      -5.544   2.786  -0.246  0.00  0.00    -0.072 C 
ATOM     11  C   UNL     1      -4.095   2.897   0.251  0.00  0.00    +0.019 C 
ATOM     12  C   UNL     1      -3.490   1.517   0.210  0.00  0.00    -0.022 A 
ATOM     13  C   UNL     1      -2.088   1.128   0.285  0.00  0.00    +0.003 A 
ATOM     14  C   UNL     1      -0.885   1.824   0.417  0.00  0.00    +0.010 A 
ATOM     15  H   UNL     1      -6.047   1.778   1.453  0.00  0.00    -0.080 HD
ENDROOT
BRANCH   8  16
ATOM     16  C   UNL     1      -6.138   0.181  -1.445  0.00  0.00    -0.008 A 
ATOM     17  C   UNL     1      -5.241   0.436  -2.466  0.00  0.00    +0.026 A 
ATOM     18  C   UNL     1      -5.615   0.242  -3.784  0.00  0.00    +0.045 A 
ATOM     19  C   UNL     1      -6.889  -0.207  -4.085  0.00  0.00    +0.069 A 
ATOM     20  C   UNL     1      -7.792  -0.463  -3.067  0.00  0.00    +0.168 A 
ATOM     21  C   UNL     1      -7.413  -0.273  -1.740  0.00  0.00    +0.168 A 
ATOM     22  O   UNL     1      -8.466  -0.598  -0.934  0.00  0.00    -0.452 OA
ATOM     23  C   UNL     1      -9.621  -0.601  -1.794  0.00  0.00    +0.466 C 
ATOM     24  O   UNL     1      -9.084  -0.903  -3.092  0.00  0.00    -0.453 OA
ATOM     25 CL   UNL     1      -4.485   0.563  -5.062  0.00  0.00    -0.083 Cl
ENDBRANCH   8  16
BRANCH   9  26
ATOM     26  C   UNL     1      -7.669   1.780   0.220  0.00  0.00    +0.020 C 
BRANCH  26  27
ATOM     27  C   UNL     1      -8.203   3.058   0.814  0.00  0.00    +0.201 C 
ATOM     28  O   UNL     1      -7.452   3.822   1.384  0.00  0.00    -0.278 OA
ATOM     29  N   UNL     1      -9.514   3.353   0.711  0.00  0.00    -0.287 N 
ATOM     30  H   UNL     1     -10.127   2.708   0.326  0.00  0.00    +0.155 HD
BRANCH  29  31
ATOM     31  C   UNL     1      -9.991   4.589   1.162  0.00  0.00    +0.034 A 
ATOM     32  C   UNL     1      -9.206   5.728   1.031  0.00  0.00    +0.023 A 
ATOM     33  C   UNL     1      -9.681   6.944   1.476  0.00  0.00    +0.006 A 
ATOM     34  C   UNL     1     -10.938   7.035   2.054  0.00  0.00    -0.044 A 
ATOM     35  C   UNL     1     -11.721   5.903   2.186  0.00  0.00    -0.042 A 
ATOM     36  C   UNL     1     -11.250   4.682   1.735  0.00  0.00    +0.027 A 
ATOM     37  C   UNL     1     -13.036   6.264   2.842  0.00  0.00    +0.036 C 
ATOM     38  C   UNL     1     -12.798   7.644   3.491  0.00  0.00    +0.009 C 
ATOM     39  C   UNL     1     -11.674   8.234   2.613  0.00  0.00    +0.036 C 
ENDBRANCH  29  31
ENDBRANCH  26  27
ENDBRANCH   9  26
TORSDOF 4
