REMARK  Name = ZINC29002094
REMARK  4 active torsions:
REMARK  status: ('A' for Active; 'I' for Inactive)
REMARK    1  A    between atoms: C_8  and  C_10
REMARK    2  A    between atoms: C_12  and  N_17
REMARK    3  A    between atoms: C_15  and  O_16
REMARK    4  A    between atoms: N_17  and  C_18
REMARK                            x       y       z     vdW  Elec       q    Type
REMARK                         _______ _______ _______ _____ _____    ______ ____
ROOT
ATOM      1  C   UNL     1      -2.481   9.963  -0.336  0.00  0.00    +0.050 A 
ATOM      2  C   UNL     1      -2.470   8.572  -0.239  0.00  0.00    +0.037 A 
ATOM      3  C   UNL     1      -1.264   7.896  -0.150  0.00  0.00    +0.032 A 
ATOM      4  C   UNL     1      -0.066   8.603  -0.151  0.00  0.00    +0.027 A 
ATOM      5  C   UNL     1      -0.070   9.980  -0.252  0.00  0.00    +0.048 A 
ATOM      6  C   UNL     1      -1.270  10.668  -0.342  0.00  0.00    +0.127 A 
ENDROOT
BRANCH   1  14
ATOM      7  C   UNL     1      -6.875  14.252  -0.788  0.00  0.00    +0.002 A 
ATOM      8  C   UNL     1      -7.901  13.318  -0.759  0.00  0.00    +0.001 A 
ATOM      9  C   UNL     1      -7.592  11.975  -0.655  0.00  0.00    +0.017 A 
ATOM     10  C   UNL     1      -6.276  11.589  -0.582  0.00  0.00    +0.040 A 
ATOM     11  C   UNL     1      -5.208  12.516  -0.608  0.00  0.00    +0.079 A 
ATOM     12  C   UNL     1      -5.569  13.880  -0.715  0.00  0.00    +0.029 A 
ATOM     13  N   UNL     1      -3.972  11.986  -0.528  0.00  0.00    -0.239 NA
ATOM     14  C   UNL     1      -3.763  10.691  -0.431  0.00  0.00    +0.113 A 
ATOM     15  S   UNL     1      -5.426  10.034  -0.452  0.00  0.00    -0.067 S 
ENDBRANCH   1  14
BRANCH   6  16
ATOM     16  O   UNL     1      -1.272  12.023  -0.436  0.00  0.00    -0.506 OA
ATOM     17  H   UNL     1      -0.321  12.575  -0.440  0.00  0.00    +0.292 HD
ENDBRANCH   6  16
BRANCH   3  18
ATOM     18  N   UNL     1      -1.251   6.500  -0.052  0.00  0.00    -0.320 N 
ATOM     19  H   UNL     1      -2.198   5.940  -0.047  0.00  0.00    +0.152 HD
BRANCH  18  20
ATOM     20  C   UNL     1      -0.077   5.841   0.035  0.00  0.00    +0.090 C 
ATOM     21  C   UNL     1      -0.058   4.458   0.020  0.00  0.00    +0.113 C 
ATOM     22  C   UNL     1       1.209   3.707  -0.023  0.00  0.00    +0.256 C 
ATOM     23  O   UNL     1       2.279   4.287  -0.047  0.00  0.00    -0.270 OA
ATOM     24  N   UNL     1       1.151   2.359  -0.034  0.00  0.00    -0.263 N 
ATOM     25  C   UNL     1      -0.020   1.708  -0.007  0.00  0.00    +0.143 C 
ATOM     26  S   UNL     1       0.004  -0.004  -0.024  0.00  0.00    -0.018 S 
ATOM     27  N   UNL     1      -1.209   2.326   0.027  0.00  0.00    -0.263 N 
ATOM     28  C   UNL     1      -1.304   3.671   0.048  0.00  0.00    +0.256 C 
ATOM     29  O   UNL     1      -2.389   4.220   0.084  0.00  0.00    -0.270 OA
ATOM     30  H   UNL     1       2.079   1.769  -0.066  0.00  0.00    +0.157 HD
ATOM     31  H   UNL     1      -2.136   1.734   0.039  0.00  0.00    +0.157 HD
ENDBRANCH  18  20
ENDBRANCH   3  18
TORSDOF 4
