REMARK  Name = ZINC40319232
REMARK  12 active torsions:
REMARK  status: ('A' for Active; 'I' for Inactive)
REMARK    1  A    between atoms: C_1  and  C_2
REMARK    2  A    between atoms: C_2  and  C_4
REMARK    3  A    between atoms: C_7  and  O_10
REMARK    4  A    between atoms: O_10  and  C_11
REMARK    5  A    between atoms: C_11  and  C_12
REMARK    6  A    between atoms: C_12  and  C_14
REMARK    7  A    between atoms: C_12  and  O_37
REMARK    8  A    between atoms: C_14  and  N_15
REMARK    9  A    between atoms: N_15  and  C_16
REMARK   10  A    between atoms: N_15  and  C_29
REMARK   11  A    between atoms: C_16  and  C_17
REMARK   12  A    between atoms: C_20  and  C_22
REMARK                            x       y       z     vdW  Elec       q    Type
REMARK                         _______ _______ _______ _____ _____    ______ ____
ROOT
ATOM      1  N   UNL     1      -7.348  -6.874  -0.439  0.00  0.00    +0.389 N 
ATOM      2  H   UNL     1      -8.109  -7.093  -1.064  0.00  0.00    -0.081 HD
ENDROOT
BRANCH   1   3
ATOM      3  C   UNL     1      -7.846  -6.043   0.665  0.00  0.00    -0.045 C 
ATOM      4  C   UNL     1      -6.895  -6.154   1.868  0.00  0.00    +0.009 C 
ATOM      5  C   UNL     1      -7.564  -5.551   3.127  0.00  0.00    +0.164 C 
ATOM      6  S   UNL     1      -9.355  -5.806   2.794  0.00  0.00    -0.033 S 
ATOM      7  O   UNL     1      -9.992  -4.539   2.704  0.00  0.00    -0.174 OA
ATOM      8  O   UNL     1      -9.859  -6.780   3.696  0.00  0.00    -0.174 OA
ATOM      9  C   UNL     1      -9.249  -6.545   1.110  0.00  0.00    +0.151 C 
ENDBRANCH   1   3
BRANCH   1  10
ATOM     10  C   UNL     1      -6.308  -6.141  -1.173  0.00  0.00    -0.043 C 
BRANCH  10  11
ATOM     11  C   UNL     1      -6.949  -4.996  -1.960  0.00  0.00    +0.135 C 
BRANCH  11  12
ATOM     12  O   UNL     1      -7.405  -3.991  -1.053  0.00  0.00    -0.390 OA
ATOM     13  H   UNL     1      -6.696  -3.551  -0.564  0.00  0.00    +0.210 HD
ENDBRANCH  11  12
BRANCH  11  14
ATOM     14  C   UNL     1      -5.917  -4.392  -2.914  0.00  0.00    +0.258 C 
BRANCH  14  15
ATOM     15  O   UNL     1      -6.545  -3.402  -3.731  0.00  0.00    -0.489 OA
BRANCH  15  19
ATOM     16  C   UNL     1      -4.168  -1.465  -6.488  0.00  0.00    +0.017 A 
ATOM     17  C   UNL     1      -5.527  -1.143  -6.382  0.00  0.00    +0.015 A 
ATOM     18  C   UNL     1      -6.313  -1.790  -5.464  0.00  0.00    +0.046 A 
ATOM     19  C   UNL     1      -5.763  -2.765  -4.638  0.00  0.00    +0.121 A 
ATOM     20  C   UNL     1      -4.414  -3.088  -4.738  0.00  0.00    +0.046 A 
ATOM     21  C   UNL     1      -3.621  -2.451  -5.657  0.00  0.00    +0.015 A 
BRANCH  16  23
ATOM     22  C   UNL     1      -3.913   0.285  -8.362  0.00  0.00    +0.091 C 
ATOM     23  C   UNL     1      -3.321  -0.776  -7.470  0.00  0.00    +0.160 C 
ATOM     24  O   UNL     1      -2.146  -1.060  -7.562  0.00  0.00    -0.292 OA
ENDBRANCH  16  23
ENDBRANCH  15  19
ENDBRANCH  14  15
ENDBRANCH  11  14
ENDBRANCH  10  11
ENDBRANCH   1  10
BRANCH   1  25
ATOM     25  C   UNL     1      -6.783  -8.117   0.101  0.00  0.00    -0.003 C 
BRANCH  25  26
ATOM     26  C   UNL     1      -7.880  -8.936   0.732  0.00  0.00    +0.089 A 
ATOM     27  C   UNL     1      -8.716  -9.765   0.078  0.00  0.00    +0.043 A 
ATOM     28  C   UNL     1      -9.579 -10.325   1.041  0.00  0.00    +0.050 A 
ATOM     29  C   UNL     1      -9.217  -9.801   2.242  0.00  0.00    +0.135 A 
ATOM     30  O   UNL     1      -8.182  -8.964   2.040  0.00  0.00    -0.462 OA
BRANCH  29  31
ATOM     31  C   UNL     1      -9.848 -10.101   3.545  0.00  0.00    +0.019 A 
ATOM     32  C   UNL     1     -10.862 -11.057   3.629  0.00  0.00    +0.011 A 
ATOM     33  C   UNL     1     -11.447 -11.333   4.847  0.00  0.00    +0.002 A 
ATOM     34  C   UNL     1     -11.031 -10.665   5.985  0.00  0.00    +0.020 A 
ATOM     35  C   UNL     1     -10.026  -9.716   5.910  0.00  0.00    +0.042 A 
ATOM     36  C   UNL     1      -9.428  -9.435   4.697  0.00  0.00    +0.031 A 
ATOM     37 CL   UNL     1      -9.511  -8.883   7.343  0.00  0.00    -0.084 Cl
ENDBRANCH  29  31
ENDBRANCH  25  26
ENDBRANCH   1  25
TORSDOF 11
