REMARK  Name = ZINC39973110
REMARK  9 active torsions:
REMARK  status: ('A' for Active; 'I' for Inactive)
REMARK    1  A    between atoms: C_1  and  C_2
REMARK    2  A    between atoms: C_11  and  O_12
REMARK    3  A    between atoms: O_12  and  C_13
REMARK    4  A    between atoms: C_13  and  C_14
REMARK    5  A    between atoms: C_18  and  S_24
REMARK    6  A    between atoms: N_20  and  C_21
REMARK    7  A    between atoms: C_21  and  C_22
REMARK    8  A    between atoms: S_24  and  C_25
REMARK    9  A    between atoms: C_25  and  C_26
REMARK                            x       y       z     vdW  Elec       q    Type
REMARK                         _______ _______ _______ _____ _____    ______ ____
ROOT
ATOM      1  C   UNL     1      -0.049   0.321   4.634  0.00  0.00    +0.178 C 
ATOM      2  N   UNL     1      -1.025   1.434   4.604  0.00  0.00    -0.234 NA
ATOM      3  N   UNL     1      -0.346   2.538   5.300  0.00  0.00    -0.229 NA
ATOM      4  C   UNL     1       1.065   2.400   4.852  0.00  0.00    +0.200 C 
ATOM      5  N   UNL     1       1.286   0.935   4.792  0.00  0.00    -0.255 NA
ATOM      6  H   UNL     1      -1.252   1.690   3.655  0.00  0.00    +0.142 HD
ATOM      7  H   UNL     1      -0.728   3.430   5.022  0.00  0.00    +0.143 HD
ENDROOT
BRANCH   1   8
ATOM      8  C   UNL     1      -0.112  -0.468   3.325  0.00  0.00    +0.265 C 
BRANCH   8   9
ATOM      9  O   UNL     1      -1.378  -1.124   3.224  0.00  0.00    -0.489 OA
BRANCH   9  20
ATOM     10  C   UNL     1      -3.853  -2.410   3.024  0.00  0.00    +0.048 C 
ATOM     11  C   UNL     1      -2.790  -2.523   1.962  0.00  0.00    -0.001 A 
ATOM     12  C   UNL     1      -3.021  -3.292   0.810  0.00  0.00    -0.012 A 
ATOM     13  C   UNL     1      -4.237  -3.970   0.618  0.00  0.00    +0.009 A 
ATOM     14  C   UNL     1      -4.426  -4.707  -0.510  0.00  0.00    +0.001 A 
ATOM     15  C   UNL     1      -3.432  -4.800  -1.482  0.00  0.00    +0.001 A 
ATOM     16  C   UNL     1      -2.242  -4.157  -1.331  0.00  0.00    +0.008 A 
ATOM     17  C   UNL     1      -2.009  -3.386  -0.178  0.00  0.00    -0.017 A 
ATOM     18  C   UNL     1      -0.792  -2.708   0.011  0.00  0.00    +0.012 A 
ATOM     19  C   UNL     1      -0.599  -1.971   1.138  0.00  0.00    +0.046 A 
ATOM     20  C   UNL     1      -1.598  -1.873   2.112  0.00  0.00    +0.124 A 
ENDBRANCH   9  20
ENDBRANCH   8   9
ENDBRANCH   1   8
BRANCH   5  21
ATOM     21  C   UNL     1       2.164   0.581   3.669  0.00  0.00    +0.115 C 
BRANCH  21  22
ATOM     22  C   UNL     1       3.545   1.129   3.920  0.00  0.00    -0.019 C 
ATOM     23  C   UNL     1       4.582   0.329   3.895  0.00  0.00    +0.005 C 
ENDBRANCH  21  22
ENDBRANCH   5  21
BRANCH   4  24
ATOM     24  S   UNL     1       2.189   3.165   6.052  0.00  0.00    -0.117 S 
BRANCH  24  25
ATOM     25  C   UNL     1       1.849   2.281   7.599  0.00  0.00    +0.146 C 
BRANCH  25  26
ATOM     26  C   UNL     1       2.729   2.827   8.693  0.00  0.00    +0.120 A 
ATOM     27  N   UNL     1       2.625   2.285   9.935  0.00  0.00    -0.310 N 
ATOM     28  H   UNL     1       1.994   1.566  10.094  0.00  0.00    +0.170 HD
ATOM     29  C   UNL     1       3.393   2.739  10.952  0.00  0.00    +0.259 A 
ATOM     30  O   UNL     1       3.311   2.263  12.069  0.00  0.00    -0.267 OA
ATOM     31  C   UNL     1       4.333   3.831  10.655  0.00  0.00    +0.065 A 
ATOM     32  C   UNL     1       5.168   4.371  11.631  0.00  0.00    +0.015 A 
ATOM     33  C   UNL     1       6.029   5.393  11.298  0.00  0.00    +0.001 A 
ATOM     34  C   UNL     1       6.070   5.888  10.001  0.00  0.00    +0.002 A 
ATOM     35  C   UNL     1       5.253   5.369   9.022  0.00  0.00    +0.028 A 
ATOM     36  C   UNL     1       4.372   4.332   9.335  0.00  0.00    +0.078 A 
ATOM     37  N   UNL     1       3.553   3.787   8.400  0.00  0.00    -0.233 NA
ENDBRANCH  25  26
ENDBRANCH  24  25
ENDBRANCH   4  24
TORSDOF 8
