REMARK  Name = ZINC15946982
REMARK  13 active torsions:
REMARK  status: ('A' for Active; 'I' for Inactive)
REMARK    1  A    between atoms: C_1  and  C_2
REMARK    2  A    between atoms: C_2  and  C_3
REMARK    3  A    between atoms: C_3  and  C_4
REMARK    4  A    between atoms: C_3  and  C_5
REMARK    5  A    between atoms: C_3  and  C_6
REMARK    6  A    between atoms: C_15  and  O_38
REMARK    7  A    between atoms: C_17  and  C_20
REMARK    8  A    between atoms: C_23  and  O_28
REMARK    9  A    between atoms: C_24  and  O_26
REMARK   10  A    between atoms: O_26  and  C_27
REMARK   11  A    between atoms: O_28  and  C_29
REMARK   12  A    between atoms: C_29  and  C_31
REMARK   13  A    between atoms: C_34  and  C_37
REMARK                            x       y       z     vdW  Elec       q    Type
REMARK                         _______ _______ _______ _____ _____    ______ ____
ROOT
ATOM      1  C   UNL     1       0.770  -2.008  -1.141  0.00  0.00    -0.000 C 
ATOM      2  C   UNL     1       1.474  -2.483  -2.415  0.00  0.00    +0.009 C 
ATOM      3  C   UNL     1       1.275  -3.990  -2.590  0.00  0.00    +0.037 C 
ATOM      4  C   UNL     1       1.686  -4.690  -1.302  0.00  0.00    -0.023 A 
ATOM      5  C   UNL     1       1.787  -4.009  -0.138  0.00  0.00    -0.004 A 
ATOM      6  S   UNL     1       2.285  -5.222   1.054  0.00  0.00    -0.078 S 
ATOM      7  C   UNL     1       2.353  -6.558   0.074  0.00  0.00    +0.080 A 
ATOM      8  C   UNL     1       2.000  -6.104  -1.202  0.00  0.00    +0.068 A 
ATOM      9  C   UNL     1       1.990  -7.099  -2.305  0.00  0.00    +0.220 C 
ATOM     10  N   UNL     1       2.062  -8.362  -1.983  0.00  0.00    -0.223 NA
ATOM     11  C   UNL     1       2.088  -8.865  -0.615  0.00  0.00    +0.224 C 
ATOM     12  N   UNL     1       2.662  -7.877   0.317  0.00  0.00    -0.313 N 
ATOM     13  C   UNL     1       1.528  -2.550   0.080  0.00  0.00    +0.046 C 
ATOM     14  H   UNL     1       3.227  -8.142   1.060  0.00  0.00    +0.149 HD
ENDROOT
BRANCH  11  15
ATOM     15  C   UNL     1       0.680  -9.186  -0.183  0.00  0.00    -0.002 A 
ATOM     16  C   UNL     1       0.324  -9.071   1.149  0.00  0.00    +0.011 A 
ATOM     17  C   UNL     1      -0.965  -9.364   1.550  0.00  0.00    +0.050 A 
ATOM     18  C   UNL     1      -1.905  -9.774   0.618  0.00  0.00    +0.173 A 
ATOM     19  C   UNL     1      -1.547  -9.889  -0.722  0.00  0.00    +0.163 A 
ATOM     20  C   UNL     1      -0.254  -9.589  -1.119  0.00  0.00    +0.056 A 
BRANCH  19  21
ATOM     21  O   UNL     1      -2.465 -10.291  -1.641  0.00  0.00    -0.491 OA
ATOM     22  C   UNL     1      -2.027 -10.387  -2.998  0.00  0.00    +0.277 C 
ENDBRANCH  19  21
BRANCH  18  23
ATOM     23  O   UNL     1      -3.174 -10.064   1.011  0.00  0.00    -0.419 OA
BRANCH  23  24
ATOM     24  C   UNL     1      -3.498 -11.357   1.201  0.00  0.00    +0.345 C 
ATOM     25  O   UNL     1      -2.643 -12.216   1.116  0.00  0.00    -0.245 OA
BRANCH  24  26
ATOM     26  C   UNL     1      -4.893 -11.732   1.512  0.00  0.00    +0.059 A 
ATOM     27  C   UNL     1      -5.879 -10.748   1.604  0.00  0.00    +0.015 A 
ATOM     28  C   UNL     1      -7.180 -11.105   1.894  0.00  0.00    +0.004 A 
ATOM     29  C   UNL     1      -7.508 -12.434   2.094  0.00  0.00    -0.050 A 
ATOM     30  C   UNL     1      -6.535 -13.414   2.004  0.00  0.00    +0.004 A 
ATOM     31  C   UNL     1      -5.232 -13.072   1.708  0.00  0.00    +0.015 A 
ATOM     32  C   UNL     1      -8.931 -12.816   2.410  0.00  0.00    +0.044 C 
ENDBRANCH  24  26
ENDBRANCH  23  24
ENDBRANCH  18  23
ENDBRANCH  11  15
BRANCH   1  33
ATOM     33  C   UNL     1       0.760  -0.479  -1.100  0.00  0.00    -0.032 C 
ATOM     34  C   UNL     1       0.009   0.059  -2.321  0.00  0.00    +0.011 C 
ATOM     35  C   UNL     1       2.199   0.041  -1.116  0.00  0.00    +0.011 C 
BRANCH  33  37
ATOM     36  C   UNL     1       0.051   1.523   0.217  0.00  0.00    +0.004 C 
ATOM     37  C   UNL     1       0.061  -0.007   0.176  0.00  0.00    +0.003 C 
ENDBRANCH  33  37
ENDBRANCH   1  33
BRANCH   9  38
ATOM     38  O   UNL     1       1.908  -6.710  -3.599  0.00  0.00    -0.492 OA
ATOM     39  H   UNL     1       1.909  -7.442  -4.231  0.00  0.00    +0.294 HD
ENDBRANCH   9  38
TORSDOF 8
