REMARK  Name = ZINC39674774
REMARK  10 active torsions:
REMARK  status: ('A' for Active; 'I' for Inactive)
REMARK    1  A    between atoms: C_1  and  C_2
REMARK    2  A    between atoms: C_2  and  C_3
REMARK    3  A    between atoms: C_3  and  C_5
REMARK    4  A    between atoms: C_3  and  C_11
REMARK    5  A    between atoms: C_15  and  C_24
REMARK    6  A    between atoms: N_26  and  C_27
REMARK    7  A    between atoms: C_27  and  C_28
REMARK    8  A    between atoms: C_28  and  C_29
REMARK    9  A    between atoms: C_32  and  C_40
REMARK   10  A    between atoms: C_37  and  C_39
REMARK                            x       y       z     vdW  Elec       q    Type
REMARK                         _______ _______ _______ _____ _____    ______ ____
ROOT
ATOM      1  C   UNL     1       0.515  -1.734  -1.205  0.00  0.00    +0.223 C 
ATOM      2  O   UNL     1       1.578  -2.317  -1.175  0.00  0.00    -0.275 OA
ATOM      3  N   UNL     1      -0.634  -2.432  -1.300  0.00  0.00    -0.300 N 
ATOM      4  C   UNL     1      -2.017  -1.902  -1.357  0.00  0.00    +0.121 C 
ATOM      5  C   UNL     1      -2.738  -2.801  -2.386  0.00  0.00    +0.100 C 
ATOM      6  C   UNL     1      -1.936  -4.114  -2.390  0.00  0.00    -0.004 C 
ATOM      7  C   UNL     1      -0.799  -3.903  -1.379  0.00  0.00    +0.115 C 
ATOM      8  C   UNL     1      -1.357  -4.375  -3.778  0.00  0.00    -0.010 C 
ATOM      9  C   UNL     1      -0.613  -5.713  -3.772  0.00  0.00    -0.082 C 
ATOM     10  N   UNL     1      -1.538  -6.788  -3.395  0.00  0.00    +0.379 N 
ATOM     11  C   UNL     1      -2.018  -6.578  -2.024  0.00  0.00    -0.082 C 
ATOM     12  C   UNL     1      -2.822  -5.277  -1.956  0.00  0.00    -0.010 C 
ATOM     13  H   UNL     1      -2.324  -6.791  -4.028  0.00  0.00    -0.086 HD
ATOM     14  H   UNL     1      -1.061  -7.676  -3.450  0.00  0.00    -0.086 HD
ENDROOT
BRANCH   5  15
ATOM     15  C   UNL     1      -2.711  -2.163  -3.751  0.00  0.00    +0.218 C 
ATOM     16  O   UNL     1      -1.788  -1.442  -4.065  0.00  0.00    -0.275 OA
ATOM     17  N   UNL     1      -3.713  -2.393  -4.622  0.00  0.00    -0.315 N 
ATOM     18  H   UNL     1      -4.452  -2.969  -4.370  0.00  0.00    +0.149 HD
BRANCH  17  19
ATOM     19  C   UNL     1      -3.687  -1.772  -5.949  0.00  0.00    +0.108 C 
BRANCH  19  20
ATOM     20  C   UNL     1      -4.932  -2.193  -6.733  0.00  0.00    +0.052 C 
BRANCH  20  21
ATOM     21  C   UNL     1      -4.905  -1.554  -8.098  0.00  0.00    -0.037 C 
ATOM     22  C   UNL     1      -3.945  -0.734  -8.597  0.00  0.00    +0.000 A 
ATOM     23  C   UNL     1      -2.737  -0.241  -8.038  0.00  0.00    +0.028 A 
ATOM     24  C   UNL     1      -1.928   0.595  -8.773  0.00  0.00    +0.052 A 
ATOM     25  C   UNL     1      -2.284   0.994 -10.130  0.00  0.00    +0.021 A 
ATOM     26  C   UNL     1      -3.420   0.556 -10.712  0.00  0.00    +0.027 A 
ATOM     27  C   UNL     1      -4.318  -0.337  -9.972  0.00  0.00    +0.043 A 
ATOM     28  N   UNL     1      -5.459  -0.887 -10.312  0.00  0.00    -0.378 N 
ATOM     29  C   UNL     1      -5.939  -1.702  -9.191  0.00  0.00    +0.103 C 
ATOM     30  C   UNL     1      -7.295  -1.184  -8.709  0.00  0.00    +0.035 C 
ATOM     31  H   UNL     1      -5.909  -0.776 -11.164  0.00  0.00    +0.160 HD
BRANCH  24  32
ATOM     32  C   UNL     1      -0.712   1.083  -8.193  0.00  0.00    +0.099 C 
ATOM     33  N   UNL     1       0.252   1.470  -7.734  0.00  0.00    -0.191 NA
ENDBRANCH  24  32
ENDBRANCH  20  21
ENDBRANCH  19  20
ENDBRANCH  17  19
ENDBRANCH   5  15
BRANCH   1  34
ATOM     34  C   UNL     1       0.479  -0.229  -1.136  0.00  0.00    +0.105 C 
BRANCH  34  35
ATOM     35  C   UNL     1       1.885   0.303  -1.034  0.00  0.00    -0.036 A 
ATOM     36  C   UNL     1       2.689  -0.066   0.028  0.00  0.00    +0.004 A 
ATOM     37  C   UNL     1       3.979   0.423   0.121  0.00  0.00    +0.000 A 
ATOM     38  C   UNL     1       4.465   1.279  -0.849  0.00  0.00    +0.000 A 
ATOM     39  C   UNL     1       3.662   1.647  -1.912  0.00  0.00    +0.000 A 
ATOM     40  C   UNL     1       2.373   1.155  -2.007  0.00  0.00    +0.004 A 
ENDBRANCH  34  35
BRANCH  34  42
ATOM     41  C   UNL     1      -0.464   1.729   0.097  0.00  0.00    +0.005 C 
ATOM     42  C   UNL     1      -0.321   0.206   0.094  0.00  0.00    +0.014 C 
ENDBRANCH  34  42
ENDBRANCH   1  34
TORSDOF 8
