REMARK  Name = ZINC36032773
REMARK  14 active torsions:
REMARK  status: ('A' for Active; 'I' for Inactive)
REMARK    1  A    between atoms: C_1  and  C_2
REMARK    2  A    between atoms: C_2  and  C_3
REMARK    3  A    between atoms: C_3  and  C_5
REMARK    4  A    between atoms: C_3  and  C_6
REMARK    5  A    between atoms: C_6  and  N_7
REMARK    6  A    between atoms: C_10  and  C_30
REMARK    7  A    between atoms: N_16  and  C_19
REMARK    8  A    between atoms: C_19  and  N_21
REMARK    9  A    between atoms: N_21  and  C_22
REMARK   10  A    between atoms: C_25  and  O_28
REMARK   11  A    between atoms: O_28  and  C_29
REMARK   12  A    between atoms: C_30  and  C_31
REMARK   13  A    between atoms: C_31  and  C_32
REMARK   14  A    between atoms: C_31  and  C_33
REMARK                            x       y       z     vdW  Elec       q    Type
REMARK                         _______ _______ _______ _____ _____    ______ ____
ROOT
ATOM      1  N   UNL     1      -2.826  -2.607  -0.111  0.00  0.00    -0.313 N 
ATOM      2  C   UNL     1      -3.557  -2.886   0.988  0.00  0.00    +0.200 C 
ATOM      3  O   UNL     1      -3.185  -2.767   2.136  0.00  0.00    -0.277 OA
ATOM      4  C   UNL     1      -4.920  -3.373   0.547  0.00  0.00    +0.019 C 
ATOM      5  N   UNL     1      -5.031  -2.956  -0.872  0.00  0.00    +0.401 N 
ATOM      6  C   UNL     1      -3.623  -2.880  -1.311  0.00  0.00    +0.006 C 
ATOM      7  C   UNL     1      -3.457  -1.749  -2.324  0.00  0.00    +0.025 C 
ATOM      8  C   UNL     1      -1.987  -1.657  -2.747  0.00  0.00    +0.107 C 
ATOM      9  N   UNL     1      -1.548  -2.976  -3.223  0.00  0.00    -0.312 N 
ATOM     10  C   UNL     1      -1.734  -4.141  -2.348  0.00  0.00    +0.107 C 
ATOM     11  C   UNL     1      -3.207  -4.213  -1.930  0.00  0.00    +0.025 C 
ATOM     12  H   UNL     1      -5.537  -3.645  -1.408  0.00  0.00    -0.082 HD
ATOM     13  H   UNL     1      -5.472  -2.051  -0.944  0.00  0.00    -0.082 HD
ENDROOT
BRANCH   9  14
ATOM     14  C   UNL     1      -0.986  -3.114  -4.440  0.00  0.00    +0.137 C 
ATOM     15  S   UNL     1      -0.666  -1.730  -5.397  0.00  0.00    -0.018 S 
BRANCH  14  16
ATOM     16  N   UNL     1      -0.676  -4.340  -4.904  0.00  0.00    -0.297 N 
ATOM     17  H   UNL     1      -1.267  -4.785  -5.532  0.00  0.00    +0.154 HD
BRANCH  16  18
ATOM     18  C   UNL     1       0.499  -4.974  -4.479  0.00  0.00    +0.033 A 
ATOM     19  C   UNL     1       1.294  -4.383  -3.506  0.00  0.00    +0.027 A 
ATOM     20  C   UNL     1       2.452  -5.008  -3.087  0.00  0.00    +0.047 A 
ATOM     21  C   UNL     1       2.821  -6.226  -3.639  0.00  0.00    +0.120 A 
ATOM     22  C   UNL     1       2.028  -6.817  -4.611  0.00  0.00    +0.047 A 
ATOM     23  C   UNL     1       0.867  -6.196  -5.027  0.00  0.00    +0.027 A 
BRANCH  21  24
ATOM     24  O   UNL     1       3.962  -6.840  -3.226  0.00  0.00    -0.495 OA
ATOM     25  C   UNL     1       4.282  -8.092  -3.837  0.00  0.00    +0.277 C 
ENDBRANCH  21  24
ENDBRANCH  16  18
ENDBRANCH  14  16
ENDBRANCH   9  14
BRANCH   1  26
ATOM     26  C   UNL     1      -1.450  -2.103  -0.107  0.00  0.00    +0.109 C 
BRANCH  26  27
ATOM     27  C   UNL     1      -1.468  -0.575  -0.055  0.00  0.00    +0.003 C 
ATOM     28  C   UNL     1      -2.063  -0.116   1.278  0.00  0.00    +0.009 C 
BRANCH  27  30
ATOM     29  C   UNL     1      -0.066   1.484  -0.258  0.00  0.00    +0.004 C 
ATOM     30  C   UNL     1      -0.038  -0.044  -0.185  0.00  0.00    +0.001 C 
ENDBRANCH  27  30
ENDBRANCH  26  27
ENDBRANCH   1  26
BRANCH   4  31
ATOM     31  C   UNL     1      -6.018  -2.715   1.385  0.00  0.00    -0.004 C 
BRANCH  31  32
ATOM     32  C   UNL     1      -7.379  -3.287   0.983  0.00  0.00    -0.018 C 
ATOM     33  C   UNL     1      -7.434  -4.773   1.340  0.00  0.00    +0.007 C 
ATOM     34  C   UNL     1      -8.486  -2.541   1.730  0.00  0.00    +0.007 C 
ENDBRANCH  31  32
ENDBRANCH   4  31
TORSDOF 9
