REMARK  Name = ZINC40034729
REMARK  7 active torsions:
REMARK  status: ('A' for Active; 'I' for Inactive)
REMARK    1  A    between atoms: C_1  and  C_2
REMARK    2  A    between atoms: C_7  and  N_12
REMARK    3  A    between atoms: C_9  and  C_11
REMARK    4  A    between atoms: C_13  and  C_15
REMARK    5  A    between atoms: C_18  and  C_24
REMARK    6  A    between atoms: C_24  and  C_25
REMARK    7  A    between atoms: C_24  and  C_26
REMARK                            x       y       z     vdW  Elec       q    Type
REMARK                         _______ _______ _______ _____ _____    ______ ____
ROOT
ATOM      1  N   UNL     1       0.735  -0.503   3.687  0.00  0.00    -0.308 N 
ATOM      2  C   UNL     1       0.634   0.166   4.853  0.00  0.00    +0.246 C 
ATOM      3  O   UNL     1      -0.045   1.173   4.919  0.00  0.00    -0.270 OA
ATOM      4  H   UNL     1       1.276  -1.306   3.634  0.00  0.00    +0.149 HD
ENDROOT
BRANCH   2   5
ATOM      5  C   UNL     1       1.348  -0.323   6.050  0.00  0.00    +0.056 A 
ATOM      6  C   UNL     1       1.246   0.360   7.264  0.00  0.00    +0.029 A 
ATOM      7  C   UNL     1       1.941  -0.148   8.360  0.00  0.00    +0.065 A 
ATOM      8  C   UNL     1       2.081   0.270   9.758  0.00  0.00    +0.096 A 
ATOM      9  N   UNL     1       2.862  -0.587  10.340  0.00  0.00    -0.080 NA
ATOM     10  O   UNL     1       3.267  -1.573   9.413  0.00  0.00    -0.334 OA
ATOM     11  C   UNL     1       2.714  -1.316   8.211  0.00  0.00    +0.259 A 
ATOM     12  N   UNL     1       2.779  -1.928   7.037  0.00  0.00    -0.218 NA
ATOM     13  C   UNL     1       2.132  -1.480   5.984  0.00  0.00    +0.127 A 
BRANCH   8  14
ATOM     14  C   UNL     1       1.438   1.472  10.399  0.00  0.00    +0.036 C 
ATOM     15  C   UNL     1       0.540   1.016  11.552  0.00  0.00    +0.014 C 
ATOM     16  C   UNL     1       2.524   2.405  10.938  0.00  0.00    +0.014 C 
ENDBRANCH   8  14
ENDBRANCH   2   5
BRANCH   1  22
ATOM     17  C   UNL     1      -0.019   1.526   0.010  0.00  0.00    +0.008 C 
ATOM     18  C   UNL     1       0.002  -0.004   0.002  0.00  0.00    -0.009 C 
ATOM     19  C   UNL     1      -1.433  -0.534   0.013  0.00  0.00    +0.003 C 
ATOM     20  C   UNL     1      -2.149  -0.040   1.272  0.00  0.00    +0.002 C 
ATOM     21  C   UNL     1      -1.409  -0.547   2.511  0.00  0.00    +0.022 C 
ATOM     22  C   UNL     1       0.026  -0.018   2.500  0.00  0.00    +0.076 C 
ATOM     23  C   UNL     1       0.742  -0.511   1.242  0.00  0.00    +0.009 C 
ATOM     24  C   UNL     1       2.178   0.019   1.231  0.00  0.00    +0.009 C 
ENDBRANCH   1  22
TORSDOF 3
