REMARK  Name = ZINC66476599
REMARK  10 active torsions:
REMARK  status: ('A' for Active; 'I' for Inactive)
REMARK    1  A    between atoms: C_1  and  C_2
REMARK    2  A    between atoms: N_5  and  C_8
REMARK    3  A    between atoms: C_8  and  C_9
REMARK    4  A    between atoms: C_9  and  C_11
REMARK    5  A    between atoms: C_9  and  O_27
REMARK    6  A    between atoms: C_11  and  S_12
REMARK    7  A    between atoms: S_12  and  C_13
REMARK    8  A    between atoms: N_18  and  C_19
REMARK    9  A    between atoms: C_24  and  O_25
REMARK   10  A    between atoms: O_25  and  C_26
REMARK                            x       y       z     vdW  Elec       q    Type
REMARK                         _______ _______ _______ _____ _____    ______ ____
ROOT
ATOM      1  C   UNL     1       0.852  -8.207   4.183  0.00  0.00    +0.160 A 
ATOM      2  N   UNL     1       0.441  -8.987   3.202  0.00  0.00    -0.133 NA
ATOM      3  N   UNL     1       0.512 -10.354   3.339  0.00  0.00    -0.125 NA
ATOM      4  C   UNL     1       0.991 -10.878   4.450  0.00  0.00    +0.187 A 
ATOM      5  S   UNL     1       1.386  -9.411   5.390  0.00  0.00    -0.024 S 
ATOM      6  N   UNL     1       1.152 -12.215   4.796  0.00  0.00    -0.289 N 
ATOM      7  H   UNL     1       1.453 -12.453   5.686  0.00  0.00    +0.154 HD
ENDROOT
BRANCH   6   8
ATOM      8  C   UNL     1       0.878 -13.218   3.858  0.00  0.00    +0.075 A 
ATOM      9  C   UNL     1       0.321 -12.890   2.631  0.00  0.00    +0.027 A 
ATOM     10  C   UNL     1       0.052 -13.882   1.707  0.00  0.00    +0.002 A 
ATOM     11  C   UNL     1       0.336 -15.202   2.003  0.00  0.00    +0.004 A 
ATOM     12  C   UNL     1       0.891 -15.537   3.224  0.00  0.00    +0.047 A 
ATOM     13  C   UNL     1       1.170 -14.548   4.153  0.00  0.00    +0.141 A 
BRANCH  13  14
ATOM     14  O   UNL     1       1.721 -14.876   5.353  0.00  0.00    -0.493 OA
ATOM     15  C   UNL     1       1.992 -16.259   5.586  0.00  0.00    +0.277 C 
ENDBRANCH  13  14
ENDBRANCH   6   8
BRANCH   1  16
ATOM     16  S   UNL     1       0.875  -6.448   4.276  0.00  0.00    -0.094 S 
BRANCH  16  17
ATOM     17  C   UNL     1       0.182  -5.915   2.687  0.00  0.00    +0.106 C 
BRANCH  17  18
ATOM     18  C   UNL     1       0.144  -4.387   2.633  0.00  0.00    +0.108 C 
BRANCH  18  19
ATOM     19  O   UNL     1       1.479  -3.876   2.653  0.00  0.00    -0.393 OA
ATOM     20  H   UNL     1       2.025  -4.174   1.913  0.00  0.00    +0.210 HD
ENDBRANCH  18  19
BRANCH  18  21
ATOM     21  C   UNL     1      -0.554  -3.938   1.347  0.00  0.00    -0.046 C 
BRANCH  21  26
ATOM     22  C   UNL     1      -1.834   1.607   0.987  0.00  0.00    +0.007 C 
ATOM     23  C   UNL     1      -1.932   0.081   1.024  0.00  0.00    -0.018 C 
ATOM     24  C   UNL     1      -1.419  -0.433   2.372  0.00  0.00    -0.016 C 
ATOM     25  C   UNL     1      -1.445  -1.963   2.372  0.00  0.00    -0.078 C 
ATOM     26  N   UNL     1      -0.587  -2.471   1.294  0.00  0.00    +0.381 N 
ATOM     27  C   UNL     1      -1.115  -2.041  -0.006  0.00  0.00    -0.078 C 
ATOM     28  C   UNL     1      -1.076  -0.514  -0.098  0.00  0.00    -0.016 C 
ATOM     29  H   UNL     1       0.348  -2.111   1.412  0.00  0.00    -0.082 HD
ENDBRANCH  21  26
ENDBRANCH  18  21
ENDBRANCH  17  18
ENDBRANCH  16  17
ENDBRANCH   1  16
TORSDOF 8
