REMARK  Name = ZINC44918327
REMARK  3 active torsions:
REMARK  status: ('A' for Active; 'I' for Inactive)
REMARK    1  A    between atoms: C_4  and  N_7
REMARK    2  A    between atoms: C_12  and  C_19
REMARK    3  A    between atoms: C_16  and  O_18
REMARK                            x       y       z     vdW  Elec       q    Type
REMARK                         _______ _______ _______ _____ _____    ______ ____
ROOT
ATOM      1  N   UNL     1       3.623  -0.651  -0.037  0.00  0.00    -0.214 N 
ATOM      2  C   UNL     1       3.889  -1.853   0.592  0.00  0.00    +0.164 A 
ATOM      3  C   UNL     1       5.199  -2.152   0.325  0.00  0.00    +0.034 A 
ATOM      4  C   UNL     1       5.718  -1.120  -0.479  0.00  0.00    +0.142 A 
ATOM      5  N   UNL     1       4.782  -0.239  -0.694  0.00  0.00    -0.173 NA
ATOM      6  C   UNL     1       6.025  -3.323   0.764  0.00  0.00    +0.112 C 
ATOM      7  S   UNL     1       5.065  -4.834   0.911  0.00  0.00    -0.138 S 
ATOM      8  C   UNL     1       3.919  -4.558   2.269  0.00  0.00    +0.165 C 
ATOM      9  C   UNL     1       2.872  -3.565   1.952  0.00  0.00    +0.199 C 
ATOM     10  N   UNL     1       2.945  -2.502   1.292  0.00  0.00    -0.197 NA
ENDROOT
BRANCH   1  14
ATOM     11  C   UNL     1      -0.017   1.379   0.010  0.00  0.00    +0.000 A 
ATOM     12  C   UNL     1       1.170   2.089   0.002  0.00  0.00    +0.002 A 
ATOM     13  C   UNL     1       2.377   1.419  -0.013  0.00  0.00    +0.028 A 
ATOM     14  C   UNL     1       2.400   0.031  -0.021  0.00  0.00    +0.068 A 
ATOM     15  C   UNL     1       1.206  -0.680  -0.013  0.00  0.00    +0.028 A 
ATOM     16  C   UNL     1       0.002  -0.004   0.002  0.00  0.00    +0.002 A 
ENDBRANCH   1  14
BRANCH   6  17
ATOM     17  C   UNL     1       7.126  -3.545  -0.241  0.00  0.00    -0.027 A 
ATOM     18  C   UNL     1       6.832  -3.815  -1.569  0.00  0.00    +0.025 A 
ATOM     19  C   UNL     1       7.868  -4.013  -2.461  0.00  0.00    +0.111 A 
ATOM     20  N   UNL     1       9.123  -3.948  -2.063  0.00  0.00    -0.263 NA
ATOM     21  C   UNL     1       9.440  -3.693  -0.808  0.00  0.00    +0.111 A 
ATOM     22  C   UNL     1       8.457  -3.478   0.140  0.00  0.00    +0.025 A 
ENDBRANCH   6  17
BRANCH   9  23
ATOM     23  O   UNL     1       1.650  -3.845   2.450  0.00  0.00    -0.495 OA
ATOM     24  H   UNL     1       0.976  -3.186   2.234  0.00  0.00    +0.293 HD
ENDBRANCH   9  23
TORSDOF 3
