REMARK  Name = ZINC38704907
REMARK  17 active torsions:
REMARK  status: ('A' for Active; 'I' for Inactive)
REMARK    1  A    between atoms: C_1  and  C_2
REMARK    2  A    between atoms: C_2  and  O_3
REMARK    3  A    between atoms: O_3  and  C_4
REMARK    4  A    between atoms: C_7  and  C_12
REMARK    5  A    between atoms: C_9  and  O_10
REMARK    6  A    between atoms: O_10  and  C_11
REMARK    7  A    between atoms: C_15  and  C_30
REMARK    8  A    between atoms: N_22  and  C_23
REMARK    9  A    between atoms: C_23  and  C_24
REMARK   10  A    between atoms: C_24  and  C_25
REMARK   11  A    between atoms: C_25  and  O_26
REMARK   12  A    between atoms: O_26  and  C_27
REMARK   13  A    between atoms: C_27  and  C_28
REMARK   14  A    between atoms: C_27  and  C_29
REMARK   15  A    between atoms: C_31  and  C_38
REMARK   16  A    between atoms: C_33  and  C_37
REMARK   17  A    between atoms: C_35  and  O_36
REMARK                            x       y       z     vdW  Elec       q    Type
REMARK                         _______ _______ _______ _____ _____    ______ ____
ROOT
ATOM      1  C   UNL     1      -1.781  -5.762  -0.098  0.00  0.00    +0.141 C 
ATOM      2  C   UNL     1      -1.776  -6.449  -1.436  0.00  0.00    +0.035 A 
ATOM      3  C   UNL     1      -2.367  -6.578  -2.698  0.00  0.00    +0.102 A 
ATOM      4  N   UNL     1      -1.693  -7.501  -3.356  0.00  0.00    -0.173 NA
ATOM      5  N   UNL     1      -0.736  -7.966  -2.636  0.00  0.00    -0.272 N 
ATOM      6  H   UNL     1      -0.111  -8.653  -2.916  0.00  0.00    +0.189 HD
ATOM      7  C   UNL     1      -0.729  -7.350  -1.417  0.00  0.00    +0.126 A 
ATOM      8  C   UNL     1      -0.064  -7.264  -0.112  0.00  0.00    +0.265 C 
ATOM      9  O   UNL     1       0.897  -7.930   0.223  0.00  0.00    -0.268 OA
ATOM     10  N   UNL     1      -0.668  -6.344   0.663  0.00  0.00    -0.285 N 
ENDROOT
BRANCH   3  11
ATOM     11  C   UNL     1      -3.537  -5.817  -3.202  0.00  0.00    +0.047 A 
ATOM     12  C   UNL     1      -3.496  -5.224  -4.461  0.00  0.00    -0.037 A 
ATOM     13  C   UNL     1      -4.587  -4.517  -4.926  0.00  0.00    +0.007 A 
ATOM     14  C   UNL     1      -5.722  -4.396  -4.144  0.00  0.00    -0.047 A 
ATOM     15  C   UNL     1      -5.774  -4.980  -2.893  0.00  0.00    +0.049 A 
ATOM     16  C   UNL     1      -4.688  -5.697  -2.417  0.00  0.00    +0.127 A 
ATOM     17  C   UNL     1      -6.909  -3.622  -4.660  0.00  0.00    +0.044 C 
ATOM     18  C   UNL     1      -2.261  -5.353  -5.316  0.00  0.00    +0.044 C 
BRANCH  16  19
ATOM     19  O   UNL     1      -4.739  -6.278  -1.190  0.00  0.00    -0.506 OA
ATOM     20  H   UNL     1      -4.485  -5.690  -0.466  0.00  0.00    +0.292 HD
ENDBRANCH  16  19
ENDBRANCH   3  11
BRANCH   1  24
ATOM     21  C   UNL     1      -1.177  -1.558  -0.602  0.00  0.00    +0.162 A 
ATOM     22  C   UNL     1      -0.134  -2.443  -0.825  0.00  0.00    +0.050 A 
ATOM     23  C   UNL     1      -0.332  -3.801  -0.661  0.00  0.00    +0.009 A 
ATOM     24  C   UNL     1      -1.570  -4.280  -0.275  0.00  0.00    -0.019 A 
ATOM     25  C   UNL     1      -2.615  -3.403  -0.051  0.00  0.00    +0.055 A 
ATOM     26  C   UNL     1      -2.421  -2.040  -0.207  0.00  0.00    +0.162 A 
BRANCH  26  27
ATOM     27  O   UNL     1      -3.447  -1.176   0.018  0.00  0.00    -0.491 OA
ATOM     28  C   UNL     1      -4.696  -1.742   0.421  0.00  0.00    +0.277 C 
ENDBRANCH  26  27
BRANCH  21  29
ATOM     29  O   UNL     1      -0.984  -0.222  -0.762  0.00  0.00    -0.489 OA
BRANCH  29  31
ATOM     30  C   UNL     1       0.345   1.725  -1.296  0.00  0.00    +0.048 C 
ATOM     31  C   UNL     1       0.320   0.201  -1.169  0.00  0.00    +0.226 C 
ENDBRANCH  29  31
ENDBRANCH  21  29
ENDBRANCH   1  24
BRANCH  10  32
ATOM     32  C   UNL     1      -0.282  -5.983   2.030  0.00  0.00    +0.111 C 
BRANCH  32  33
ATOM     33  C   UNL     1      -1.032  -6.873   3.023  0.00  0.00    +0.047 C 
BRANCH  33  34
ATOM     34  C   UNL     1      -0.629  -6.497   4.450  0.00  0.00    +0.161 C 
BRANCH  34  35
ATOM     35  O   UNL     1      -1.330  -7.327   5.378  0.00  0.00    -0.377 OA
BRANCH  35  36
ATOM     36  C   UNL     1      -1.024  -7.056   6.747  0.00  0.00    +0.112 C 
ATOM     37  C   UNL     1      -2.241  -7.380   7.616  0.00  0.00    +0.037 C 
ATOM     38  C   UNL     1       0.160  -7.921   7.186  0.00  0.00    +0.037 C 
ENDBRANCH  35  36
ENDBRANCH  34  35
ENDBRANCH  33  34
ENDBRANCH  32  33
ENDBRANCH  10  32
TORSDOF 11
