REMARK  Name = ZINC20459067
REMARK  9 active torsions:
REMARK  status: ('A' for Active; 'I' for Inactive)
REMARK    1  A    between atoms: C_1  and  O_2
REMARK    2  A    between atoms: O_2  and  C_3
REMARK    3  A    between atoms: C_3  and  C_5
REMARK    4  A    between atoms: C_11  and  C_12
REMARK    5  A    between atoms: C_20  and  C_29
REMARK    6  A    between atoms: C_22  and  C_25
REMARK    7  A    between atoms: C_23  and  N_24
REMARK    8  A    between atoms: C_25  and  O_27
REMARK    9  A    between atoms: O_27  and  C_28
REMARK                            x       y       z     vdW  Elec       q    Type
REMARK                         _______ _______ _______ _____ _____    ______ ____
ROOT
ATOM      1  C   UNL     1       0.768   3.716   1.695  0.00  0.00    +0.110 C 
ATOM      2  C   UNL     1       1.596   2.638   1.402  0.00  0.00    +0.100 A 
ATOM      3  N   UNL     1       2.924   2.764   1.090  0.00  0.00    -0.289 N 
ATOM      4  C   UNL     1       3.625   1.646   0.831  0.00  0.00    +0.267 A 
ATOM      5  O   UNL     1       4.808   1.687   0.547  0.00  0.00    -0.266 OA
ATOM      6  C   UNL     1       2.896   0.372   0.905  0.00  0.00    +0.079 A 
ATOM      7  C   UNL     1       3.342  -0.892   0.695  0.00  0.00    +0.028 C 
ATOM      8  S   UNL     1       1.263   0.940   1.346  0.00  0.00    -0.065 S 
ATOM      9  C   UNL     1       3.485   4.140   1.065  0.00  0.00    +0.160 C 
ATOM     10  C   UNL     1       2.599   5.316   1.375  0.00  0.00    +0.085 C 
ATOM     11  C   UNL     1       1.265   5.091   1.680  0.00  0.00    +0.054 C 
ENDROOT
BRANCH   7  12
ATOM     12  C   UNL     1       4.707  -1.117   0.200  0.00  0.00    -0.024 A 
ATOM     13  C   UNL     1       5.255  -0.263  -0.765  0.00  0.00    +0.009 A 
ATOM     14  C   UNL     1       6.538  -0.476  -1.220  0.00  0.00    +0.020 A 
ATOM     15  C   UNL     1       7.282  -1.540  -0.734  0.00  0.00    +0.041 A 
ATOM     16  C   UNL     1       6.745  -2.392   0.217  0.00  0.00    +0.020 A 
ATOM     17  C   UNL     1       5.465  -2.188   0.686  0.00  0.00    +0.009 A 
ATOM     18 CL   UNL     1       8.895  -1.804  -1.318  0.00  0.00    -0.084 Cl
ENDBRANCH   7  12
BRANCH   9  19
ATOM     19  C   UNL     1       4.065   4.364  -0.308  0.00  0.00    -0.020 A 
ATOM     20  C   UNL     1       3.404   3.886  -1.424  0.00  0.00    +0.007 A 
ATOM     21  C   UNL     1       3.933   4.096  -2.683  0.00  0.00    +0.020 A 
ATOM     22  C   UNL     1       5.130   4.774  -2.826  0.00  0.00    +0.041 A 
ATOM     23  C   UNL     1       5.795   5.247  -1.709  0.00  0.00    +0.020 A 
ATOM     24  C   UNL     1       5.262   5.041  -0.450  0.00  0.00    +0.007 A 
ATOM     25 CL   UNL     1       5.799   5.031  -4.408  0.00  0.00    -0.084 Cl
ENDBRANCH   9  19
BRANCH  11  26
ATOM     26  N   UNL     1       0.425   6.144   1.968  0.00  0.00    -0.357 N 
ATOM     27  H   UNL     1       0.809   7.174   1.954  0.00  0.00    +0.142 HD
ATOM     28  H   UNL     1      -0.631   5.954   2.213  0.00  0.00    +0.142 HD
ENDBRANCH  11  26
BRANCH   1  29
ATOM     29  C   UNL     1      -0.592   3.476   2.011  0.00  0.00    +0.343 C 
ATOM     30  O   UNL     1      -1.049   2.352   1.922  0.00  0.00    -0.245 OA
BRANCH  29  32
ATOM     31  C   UNL     1      -2.742   4.181   2.715  0.00  0.00    +0.280 C 
ATOM     32  O   UNL     1      -1.381   4.495   2.412  0.00  0.00    -0.464 OA
ENDBRANCH  29  32
ENDBRANCH   1  29
BRANCH  10  33
ATOM     33  C   UNL     1       3.112   6.615   1.354  0.00  0.00    +0.339 C 
ATOM     34  O   UNL     1       2.365   7.568   1.495  0.00  0.00    -0.245 OA
BRANCH  33  35
ATOM     35  O   UNL     1       4.437   6.816   1.178  0.00  0.00    -0.465 OA
ATOM     36  C   UNL     1       4.893   8.170   1.168  0.00  0.00    +0.280 C 
ENDBRANCH  33  35
ENDBRANCH  10  33
TORSDOF 7
