REMARK  Name = ZINC06901043
REMARK  7 active torsions:
REMARK  status: ('A' for Active; 'I' for Inactive)
REMARK    1  A    between atoms: C_1  and  C_2
REMARK    2  A    between atoms: C_8  and  N_10
REMARK    3  A    between atoms: C_11  and  C_13
REMARK    4  A    between atoms: C_13  and  S_14
REMARK    5  A    between atoms: S_14  and  C_15
REMARK    6  A    between atoms: C_18  and  C_21
REMARK    7  A    between atoms: N_19  and  N_20
REMARK                            x       y       z     vdW  Elec       q    Type
REMARK                         _______ _______ _______ _____ _____    ______ ____
ROOT
ATOM      1  C   UNL     1       2.262  -4.894   3.866  0.00  0.00    +0.209 A 
ATOM      2  N   UNL     1       1.220  -5.499   3.339  0.00  0.00    -0.121 NA
ATOM      3  N   UNL     1       1.341  -6.772   3.462  0.00  0.00    -0.127 NA
ATOM      4  C   UNL     1       2.467  -7.059   4.073  0.00  0.00    +0.183 A 
ATOM      5  N   UNL     1       3.094  -5.865   4.346  0.00  0.00    -0.224 N 
ENDROOT
BRANCH   4   6
ATOM      6  C   UNL     1       2.969  -8.410   4.401  0.00  0.00    +0.039 A 
ATOM      7  C   UNL     1       3.468  -8.682   5.676  0.00  0.00    +0.014 A 
ATOM      8  C   UNL     1       3.932  -9.945   5.978  0.00  0.00    +0.021 A 
ATOM      9  C   UNL     1       3.912 -10.942   5.016  0.00  0.00    +0.042 A 
ATOM     10  C   UNL     1       3.423 -10.678   3.748  0.00  0.00    +0.040 A 
ATOM     11  C   UNL     1       2.952  -9.418   3.435  0.00  0.00    +0.053 A 
ATOM     12 CL   UNL     1       2.341  -9.088   1.844  0.00  0.00    -0.083 Cl
ATOM     13 CL   UNL     1       4.503 -12.527   5.402  0.00  0.00    -0.083 Cl
ENDBRANCH   4   6
BRANCH   5  14
ATOM     14  N   UNL     1       4.296  -5.688   4.969  0.00  0.00    -0.295 N 
ATOM     15  H   UNL     1       4.187  -5.688   5.972  0.00  0.00    +0.163 HD
ATOM     16  H   UNL     1       4.961  -6.388   4.678  0.00  0.00    +0.163 HD
ENDBRANCH   5  14
BRANCH   1  17
ATOM     17  S   UNL     1       2.537  -3.155   3.932  0.00  0.00    -0.075 S 
BRANCH  17  18
ATOM     18  C   UNL     1       1.036  -2.567   3.108  0.00  0.00    +0.173 C 
BRANCH  18  20
ATOM     19  N   UNL     1       0.030  -0.399   2.473  0.00  0.00    -0.312 N 
ATOM     20  C   UNL     1       1.053  -1.062   3.047  0.00  0.00    +0.224 C 
ATOM     21  O   UNL     1       1.988  -0.446   3.516  0.00  0.00    -0.275 OA
ATOM     22  H   UNL     1      -0.717  -0.891   2.099  0.00  0.00    +0.149 HD
BRANCH  19  29
ATOM     23  C   UNL     1      -0.260   0.969  -0.063  0.00  0.00    +0.009 C 
ATOM     24  C   UNL     1      -0.817   1.538   1.243  0.00  0.00    +0.006 C 
ATOM     25  C   UNL     1      -2.254   1.052   1.440  0.00  0.00    +0.005 C 
ATOM     26  C   UNL     1      -2.811   1.620   2.746  0.00  0.00    +0.000 C 
ATOM     27  C   UNL     1      -1.948   1.147   3.917  0.00  0.00    +0.002 C 
ATOM     28  C   UNL     1      -0.511   1.634   3.721  0.00  0.00    +0.022 C 
ATOM     29  C   UNL     1       0.046   1.065   2.415  0.00  0.00    +0.076 C 
ENDBRANCH  19  29
ENDBRANCH  18  20
ENDBRANCH  17  18
ENDBRANCH   1  17
TORSDOF 6
