REMARK  Name = ZINC20763201
REMARK  7 active torsions:
REMARK  status: ('A' for Active; 'I' for Inactive)
REMARK    1  A    between atoms: C_1  and  C_2
REMARK    2  A    between atoms: C_2  and  O_3
REMARK    3  A    between atoms: O_3  and  C_4
REMARK    4  A    between atoms: C_7  and  C_10
REMARK    5  A    between atoms: C_12  and  C_26
REMARK    6  A    between atoms: C_15  and  C_18
REMARK    7  A    between atoms: C_23  and  O_24
REMARK                            x       y       z     vdW  Elec       q    Type
REMARK                         _______ _______ _______ _____ _____    ______ ____
ROOT
ATOM      1  C   UNL     1       5.363  -1.862   1.411  0.00  0.00    +0.040 C 
ATOM      2  N   UNL     1       5.595  -2.673   0.448  0.00  0.00    -0.299 NA
ATOM      3  C   UNL     1       4.812  -2.728  -0.781  0.00  0.00    +0.081 C 
ATOM      4  N   UNL     1       3.517  -2.062  -0.601  0.00  0.00    +0.401 N 
ATOM      5  C   UNL     1       3.711  -0.715  -0.037  0.00  0.00    -0.028 C 
ATOM      6  C   UNL     1       4.236  -0.867   1.394  0.00  0.00    +0.044 C 
ATOM      7  H   UNL     1       3.010  -1.976  -1.573  0.00  0.00    -0.081 HD
ATOM      8  H   UNL     1       2.893  -2.654   0.086  0.00  0.00    -0.081 HD
ENDROOT
BRANCH   5   9
ATOM      9  C   UNL     1       2.397   0.023  -0.020  0.00  0.00    -0.018 A 
ATOM     10  C   UNL     1       1.208  -0.681  -0.013  0.00  0.00    +0.020 A 
ATOM     11  C   UNL     1       0.002  -0.004   0.002  0.00  0.00    +0.018 A 
ATOM     12  C   UNL     1      -0.017   1.379   0.010  0.00  0.00    +0.019 A 
ATOM     13  C   UNL     1       1.169   2.087   0.002  0.00  0.00    +0.047 A 
ATOM     14  C   UNL     1       2.380   1.410  -0.013  0.00  0.00    +0.119 A 
ATOM     15 BR   UNL     1      -1.623  -0.971   0.012  0.00  0.00    -0.050 Br
BRANCH  14  16
ATOM     16  O   UNL     1       3.548   2.104  -0.020  0.00  0.00    -0.507 OA
ATOM     17  H   UNL     1       3.534   3.204  -0.015  0.00  0.00    +0.292 HD
ENDBRANCH  14  16
ENDBRANCH   5   9
BRANCH   3  18
ATOM     18  C   UNL     1       4.581  -4.169  -1.158  0.00  0.00    -0.040 A 
ATOM     19  C   UNL     1       3.433  -4.529  -1.839  0.00  0.00    +0.005 A 
ATOM     20  C   UNL     1       3.223  -5.849  -2.190  0.00  0.00    +0.020 A 
ATOM     21  C   UNL     1       4.156  -6.812  -1.849  0.00  0.00    +0.041 A 
ATOM     22  C   UNL     1       5.302  -6.452  -1.163  0.00  0.00    +0.020 A 
ATOM     23  C   UNL     1       5.514  -5.130  -0.817  0.00  0.00    +0.005 A 
ATOM     24 CL   UNL     1       3.890  -8.472  -2.283  0.00  0.00    -0.084 Cl
ENDBRANCH   3  18
BRANCH   1  28
ATOM     25  C   UNL     1       7.896  -1.990   4.816  0.00  0.00    +0.121 A 
ATOM     26  C   UNL     1       8.120  -2.857   3.752  0.00  0.00    +0.046 A 
ATOM     27  C   UNL     1       7.300  -2.818   2.646  0.00  0.00    +0.013 A 
ATOM     28  C   UNL     1       6.243  -1.907   2.594  0.00  0.00    -0.004 A 
ATOM     29  C   UNL     1       6.024  -1.034   3.663  0.00  0.00    +0.013 A 
ATOM     30  C   UNL     1       6.846  -1.081   4.767  0.00  0.00    +0.046 A 
BRANCH  25  31
ATOM     31  O   UNL     1       8.707  -2.031   5.904  0.00  0.00    -0.492 OA
BRANCH  31  33
ATOM     32  C   UNL     1       9.432  -1.305   8.092  0.00  0.00    +0.048 C 
ATOM     33  C   UNL     1       8.420  -1.112   6.960  0.00  0.00    +0.225 C 
ENDBRANCH  31  33
ENDBRANCH  25  31
ENDBRANCH   1  28
TORSDOF 6
