REMARK  Name = ZINC12520642
REMARK  5 active torsions:
REMARK  status: ('A' for Active; 'I' for Inactive)
REMARK    1  A    between atoms: C_1  and  N_2
REMARK    2  A    between atoms: N_2  and  C_3
REMARK    3  A    between atoms: C_3  and  C_4
REMARK    4  A    between atoms: C_12  and  C_14
REMARK    5  A    between atoms: C_17  and  N_24
REMARK                            x       y       z     vdW  Elec       q    Type
REMARK                         _______ _______ _______ _____ _____    ______ ____
ROOT
ATOM      1  C   UNL     1       0.180   4.973   0.448  0.00  0.00    +0.132 C 
ATOM      2  N   UNL     1      -0.939   4.046   0.259  0.00  0.00    -0.295 N 
ATOM      3  C   UNL     1      -0.703   2.729   0.096  0.00  0.00    +0.267 C 
ATOM      4  O   UNL     1      -1.622   1.974  -0.156  0.00  0.00    -0.268 OA
ENDROOT
BRANCH   3   5
ATOM      5  C   UNL     1       0.669   2.205   0.221  0.00  0.00    +0.155 A 
ATOM      6  C   UNL     1       1.078   0.795   0.197  0.00  0.00    +0.034 A 
ATOM      7  C   UNL     1       0.424  -0.427   0.069  0.00  0.00    +0.045 A 
ATOM      8  C   UNL     1       1.151  -1.585   0.091  0.00  0.00    +0.127 A 
ATOM      9  C   UNL     1       2.532  -1.549   0.240  0.00  0.00    +0.035 A 
ATOM     10  C   UNL     1       3.193  -0.359   0.367  0.00  0.00    +0.030 A 
ATOM     11  C   UNL     1       2.478   0.834   0.348  0.00  0.00    +0.067 A 
ATOM     12  N   UNL     1       2.811   2.160   0.447  0.00  0.00    -0.276 N 
ATOM     13  H   UNL     1       3.744   2.500   0.562  0.00  0.00    +0.189 HD
ATOM     14  N   UNL     1       1.771   2.908   0.372  0.00  0.00    -0.168 NA
BRANCH   8  15
ATOM     15  N   UNL     1       0.462  -2.888  -0.046  0.00  0.00    +0.056 N 
ATOM     16  O   UNL     1       1.105  -3.922  -0.027  0.00  0.00    -0.126 OA
ATOM     17  O   UNL     1      -0.749  -2.925  -0.176  0.00  0.00    -0.126 OA
ENDBRANCH   8  15
ENDBRANCH   3   5
BRANCH   2  18
ATOM     18  C   UNL     1      -2.314   4.551   0.247  0.00  0.00    +0.144 C 
BRANCH  18  19
ATOM     19  C   UNL     1      -2.811   4.689   1.663  0.00  0.00    -0.012 A 
ATOM     20  C   UNL     1      -2.694   5.898   2.322  0.00  0.00    +0.008 A 
ATOM     21  C   UNL     1      -3.150   6.025   3.620  0.00  0.00    +0.020 A 
ATOM     22  C   UNL     1      -3.724   4.941   4.261  0.00  0.00    +0.042 A 
ATOM     23  C   UNL     1      -3.841   3.731   3.603  0.00  0.00    +0.040 A 
ATOM     24  C   UNL     1      -3.389   3.606   2.301  0.00  0.00    +0.047 A 
ATOM     25 CL   UNL     1      -3.542   2.089   1.471  0.00  0.00    -0.083 Cl
ATOM     26 CL   UNL     1      -4.296   5.101   5.893  0.00  0.00    -0.083 Cl
ENDBRANCH  18  19
ENDBRANCH   2  18
TORSDOF 4
