REMARK  Name = ZINC12781587
REMARK  13 active torsions:
REMARK  status: ('A' for Active; 'I' for Inactive)
REMARK    1  A    between atoms: C_1  and  C_2
REMARK    2  A    between atoms: C_2  and  C_3
REMARK    3  A    between atoms: C_6  and  C_9
REMARK    4  A    between atoms: C_9  and  C_11
REMARK    5  A    between atoms: C_9  and  N_64
REMARK    6  A    between atoms: C_11  and  N_12
REMARK    7  A    between atoms: C_13  and  C_15
REMARK    8  A    between atoms: C_15  and  N_16
REMARK    9  A    between atoms: C_19  and  C_23
REMARK   10  A    between atoms: C_19  and  C_25
REMARK   11  A    between atoms: C_23  and  C_24
REMARK   12  A    between atoms: C_31  and  N_64
REMARK   13  A    between atoms: C_32  and  N_64
REMARK                            x       y       z     vdW  Elec       q    Type
REMARK                         _______ _______ _______ _____ _____    ______ ____
ROOT
ATOM      1  N   UNL     1      -4.197   0.974  -5.471  0.00  0.00    -0.315 N 
ATOM      2  C   UNL     1      -3.640   1.511  -4.368  0.00  0.00    +0.231 C 
ATOM      3  O   UNL     1      -2.796   0.895  -3.753  0.00  0.00    -0.274 OA
ATOM      4  H   UNL     1      -4.872   1.467  -5.963  0.00  0.00    +0.149 HD
ENDROOT
BRANCH   1   5
ATOM      5  C   UNL     1      -3.783  -0.355  -5.928  0.00  0.00    +0.093 C 
BRANCH   5   6
ATOM      6  C   UNL     1      -4.652  -0.782  -7.112  0.00  0.00    -0.021 C 
BRANCH   6  10
ATOM      7  C   UNL     1      -8.716  -1.134  -5.842  0.00  0.00    -0.048 A 
ATOM      8  C   UNL     1      -8.297   0.000  -6.513  0.00  0.00    +0.004 A 
ATOM      9  C   UNL     1      -6.982   0.114  -6.923  0.00  0.00    +0.002 A 
ATOM     10  C   UNL     1      -6.086  -0.906  -6.663  0.00  0.00    -0.059 A 
ATOM     11  C   UNL     1      -6.506  -2.042  -5.997  0.00  0.00    +0.002 A 
ATOM     12  C   UNL     1      -7.819  -2.154  -5.581  0.00  0.00    +0.004 A 
BRANCH   7  14
ATOM     13  C   UNL     1     -10.974  -1.919  -6.500  0.00  0.00    +0.009 C 
ATOM     14  C   UNL     1     -10.149  -1.258  -5.394  0.00  0.00    +0.032 C 
ENDBRANCH   7  14
ENDBRANCH   6  10
BRANCH   6  17
ATOM     15  C   UNL     1      -4.965  -2.495  -8.793  0.00  0.00    -0.096 C 
ATOM     16  C   UNL     1      -2.750  -2.034  -7.932  0.00  0.00    -0.096 C 
ATOM     17  N   UNL     1      -4.189  -2.097  -7.601  0.00  0.00    +0.382 N 
ATOM     18  H   UNL     1      -4.330  -2.796  -6.862  0.00  0.00    -0.082 HD
ENDBRANCH   6  17
ENDBRANCH   5   6
ENDBRANCH   1   5
BRANCH   2  19
ATOM     19  C   UNL     1      -4.066   2.878  -3.898  0.00  0.00    +0.213 C 
BRANCH  19  20
ATOM     20  N   UNL     1      -3.319   3.234  -2.689  0.00  0.00    -0.215 N 
ATOM     21  C   UNL     1      -2.137   3.882  -2.692  0.00  0.00    +0.251 C 
ATOM     22  O   UNL     1      -1.514   4.264  -3.659  0.00  0.00    -0.272 OA
ATOM     23  C   UNL     1      -1.748   4.032  -1.235  0.00  0.00    +0.138 C 
ATOM     24  N   UNL     1      -2.861   3.391  -0.512  0.00  0.00    -0.281 N 
ATOM     25  C   UNL     1      -3.727   2.957  -1.445  0.00  0.00    +0.310 C 
ATOM     26  O   UNL     1      -4.764   2.378  -1.187  0.00  0.00    -0.252 OA
ATOM     27  H   UNL     1      -2.951   3.299   0.450  0.00  0.00    +0.152 HD
BRANCH  23  28
ATOM     28  C   UNL     1      -0.452   3.315  -0.956  0.00  0.00    -0.015 A 
ATOM     29  C   UNL     1       0.750   3.986  -1.084  0.00  0.00    +0.006 A 
ATOM     30  C   UNL     1       1.939   3.327  -0.835  0.00  0.00    +0.000 A 
ATOM     31  C   UNL     1       1.926   1.998  -0.455  0.00  0.00    +0.000 A 
ATOM     32  C   UNL     1       0.724   1.327  -0.326  0.00  0.00    +0.000 A 
ATOM     33  C   UNL     1      -0.465   1.986  -0.577  0.00  0.00    +0.006 A 
ENDBRANCH  23  28
BRANCH  23  34
ATOM     34  C   UNL     1      -1.637   5.510  -0.857  0.00  0.00    +0.037 C 
ATOM     35  C   UNL     1      -2.999   6.185  -1.032  0.00  0.00    +0.007 C 
ENDBRANCH  23  34
ENDBRANCH  19  20
ENDBRANCH   2  19
TORSDOF 9
