REMARK  Name = ZINC38685018
REMARK  11 active torsions:
REMARK  status: ('A' for Active; 'I' for Inactive)
REMARK    1  A    between atoms: C_1  and  C_2
REMARK    2  A    between atoms: C_2  and  O_3
REMARK    3  A    between atoms: O_3  and  C_4
REMARK    4  A    between atoms: C_8  and  C_10
REMARK    5  A    between atoms: C_15  and  O_24
REMARK    6  A    between atoms: C_19  and  N_23
REMARK    7  A    between atoms: C_20  and  C_21
REMARK    8  A    between atoms: O_24  and  C_25
REMARK    9  A    between atoms: C_25  and  C_27
REMARK   10  A    between atoms: C_27  and  C_28
REMARK   11  A    between atoms: C_27  and  C_34
REMARK                            x       y       z     vdW  Elec       q    Type
REMARK                         _______ _______ _______ _____ _____    ______ ____
ROOT
ATOM      1  C   UNL     1       4.135  -2.918  -5.261  0.00  0.00    +0.098 C 
ATOM      2  C   UNL     1       4.946  -3.974  -4.557  0.00  0.00    +0.008 A 
ATOM      3  C   UNL     1       6.213  -3.665  -4.096  0.00  0.00    +0.012 A 
ATOM      4  C   UNL     1       6.970  -4.620  -3.448  0.00  0.00    +0.047 A 
ATOM      5  C   UNL     1       6.460  -5.897  -3.256  0.00  0.00    +0.135 A 
ATOM      6  C   UNL     1       5.192  -6.210  -3.716  0.00  0.00    +0.093 A 
ATOM      7  C   UNL     1       4.431  -5.247  -4.368  0.00  0.00    +0.138 A 
ATOM      8  O   UNL     1       3.192  -5.570  -4.812  0.00  0.00    -0.441 OA
ATOM      9  C   UNL     1       2.602  -4.819  -5.758  0.00  0.00    +0.199 C 
ATOM     10  C   UNL     1       3.003  -3.555  -6.017  0.00  0.00    +0.098 C 
ENDROOT
BRANCH   1  15
ATOM     11  C   UNL     1       3.399   0.269  -3.370  0.00  0.00    +0.121 A 
ATOM     12  C   UNL     1       2.552  -0.193  -2.373  0.00  0.00    +0.045 A 
ATOM     13  C   UNL     1       2.220  -1.532  -2.316  0.00  0.00    +0.004 A 
ATOM     14  C   UNL     1       2.733  -2.413  -3.251  0.00  0.00    +0.005 A 
ATOM     15  C   UNL     1       3.578  -1.956  -4.245  0.00  0.00    -0.031 A 
ATOM     16  C   UNL     1       3.908  -0.615  -4.310  0.00  0.00    +0.050 A 
BRANCH  11  17
ATOM     17  O   UNL     1       3.726   1.587  -3.429  0.00  0.00    -0.492 OA
BRANCH  17  19
ATOM     18  C   UNL     1       3.643   3.876  -2.656  0.00  0.00    +0.048 C 
ATOM     19  C   UNL     1       3.166   2.440  -2.429  0.00  0.00    +0.225 C 
ENDBRANCH  17  19
ENDBRANCH  11  17
ENDBRANCH   1  15
BRANCH   9  20
ATOM     20  N   UNL     1       1.563  -5.351  -6.480  0.00  0.00    -0.328 N 
ATOM     21  H   UNL     1       1.265  -6.257  -6.304  0.00  0.00    +0.145 HD
ATOM     22  H   UNL     1       1.128  -4.821  -7.166  0.00  0.00    +0.145 HD
ENDBRANCH   9  20
BRANCH  10  23
ATOM     23  C   UNL     1       2.332  -2.806  -7.037  0.00  0.00    +0.101 C 
ATOM     24  N   UNL     1       1.799  -2.213  -7.846  0.00  0.00    -0.191 NA
ENDBRANCH  10  23
BRANCH   5  25
ATOM     25  O   UNL     1       7.205  -6.838  -2.619  0.00  0.00    -0.425 OA
BRANCH  25  26
ATOM     26  C   UNL     1       7.668  -7.871  -3.341  0.00  0.00    +0.324 C 
ATOM     27  O   UNL     1       7.508  -7.891  -4.539  0.00  0.00    -0.249 OA
BRANCH  26  28
ATOM     28  C   UNL     1       8.388  -9.006  -2.659  0.00  0.00    +0.158 C 
BRANCH  28  29
ATOM     29  C   UNL     1       8.802 -10.028  -3.686  0.00  0.00    -0.029 A 
ATOM     30  C   UNL     1       8.426 -11.350  -3.536  0.00  0.00    +0.005 A 
ATOM     31  C   UNL     1       8.806 -12.287  -4.478  0.00  0.00    +0.000 A 
ATOM     32  C   UNL     1       9.561 -11.903  -5.570  0.00  0.00    +0.000 A 
ATOM     33  C   UNL     1       9.937 -10.582  -5.720  0.00  0.00    +0.000 A 
ATOM     34  C   UNL     1       9.553  -9.643  -4.780  0.00  0.00    +0.005 A 
ENDBRANCH  28  29
BRANCH  28  35
ATOM     35  C   UNL     1       9.611  -8.475  -1.957  0.00  0.00    -0.029 A 
ATOM     36  C   UNL     1      10.508  -7.676  -2.640  0.00  0.00    +0.005 A 
ATOM     37  C   UNL     1      11.630  -7.189  -1.996  0.00  0.00    +0.000 A 
ATOM     38  C   UNL     1      11.855  -7.501  -0.668  0.00  0.00    +0.000 A 
ATOM     39  C   UNL     1      10.957  -8.298   0.016  0.00  0.00    +0.000 A 
ATOM     40  C   UNL     1       9.832  -8.782  -0.627  0.00  0.00    +0.005 A 
ENDBRANCH  28  35
ENDBRANCH  26  28
ENDBRANCH  25  26
ENDBRANCH   5  25
TORSDOF 10
