REMARK  Name = ZINC08923469
REMARK  8 active torsions:
REMARK  status: ('A' for Active; 'I' for Inactive)
REMARK    1  A    between atoms: C_1  and  C_2
REMARK    2  A    between atoms: C_2  and  C_3
REMARK    3  A    between atoms: C_2  and  N_57
REMARK    4  A    between atoms: C_11  and  O_32
REMARK    5  A    between atoms: C_13  and  C_16
REMARK    6  A    between atoms: C_19  and  O_22
REMARK    7  A    between atoms: O_22  and  C_23
REMARK    8  A    between atoms: C_23  and  C_25
REMARK                            x       y       z     vdW  Elec       q    Type
REMARK                         _______ _______ _______ _____ _____    ______ ____
ROOT
ATOM      1  C   UNL     1      -2.752   7.115   0.289  0.00  0.00    -0.073 C 
ATOM      2  C   UNL     1      -2.653   5.692   0.845  0.00  0.00    +0.018 C 
ATOM      3  C   UNL     1      -2.170   4.776  -0.274  0.00  0.00    -0.027 A 
ATOM      4  C   UNL     1      -2.255   5.182  -1.563  0.00  0.00    -0.021 A 
ATOM      5  S   UNL     1      -1.595   3.835  -2.508  0.00  0.00    -0.080 S 
ATOM      6  C   UNL     1      -1.227   2.765  -1.224  0.00  0.00    +0.080 A 
ATOM      7  C   UNL     1      -1.604   3.457  -0.065  0.00  0.00    +0.067 A 
ATOM      8  C   UNL     1      -1.401   2.766   1.234  0.00  0.00    +0.220 C 
ATOM      9  N   UNL     1      -0.700   1.666   1.235  0.00  0.00    -0.223 NA
ATOM     10  C   UNL     1      -0.021   1.113   0.070  0.00  0.00    +0.224 C 
ATOM     11  N   UNL     1      -0.694   1.500  -1.185  0.00  0.00    -0.313 N 
ATOM     12  C   UNL     1      -2.795   6.489  -2.051  0.00  0.00    -0.035 C 
ATOM     13  H   UNL     1      -0.755   0.896  -1.940  0.00  0.00    +0.149 HD
ATOM     14  N   UNL     1      -3.566   7.104  -0.944  0.00  0.00    +0.384 N 
ATOM     15  H   UNL     1      -4.414   6.549  -0.779  0.00  0.00    -0.081 HD
ENDROOT
BRANCH  10  16
ATOM     16  C   UNL     1       1.399   1.616   0.042  0.00  0.00    -0.005 A 
ATOM     17  C   UNL     1       2.058   1.757  -1.165  0.00  0.00    +0.011 A 
ATOM     18  C   UNL     1       3.358   2.223  -1.193  0.00  0.00    +0.047 A 
ATOM     19  C   UNL     1       4.006   2.540  -0.008  0.00  0.00    +0.132 A 
ATOM     20  C   UNL     1       3.344   2.393   1.203  0.00  0.00    +0.047 A 
ATOM     21  C   UNL     1       2.042   1.931   1.225  0.00  0.00    +0.011 A 
BRANCH  19  22
ATOM     22  O   UNL     1       5.287   2.993  -0.032  0.00  0.00    -0.422 OA
BRANCH  22  23
ATOM     23  C   UNL     1       6.235   2.173   0.461  0.00  0.00    +0.344 C 
ATOM     24  O   UNL     1       5.944   1.044   0.805  0.00  0.00    -0.245 OA
BRANCH  23  25
ATOM     25  C   UNL     1       7.629   2.646   0.585  0.00  0.00    +0.059 A 
ATOM     26  C   UNL     1       7.968   3.940   0.186  0.00  0.00    +0.016 A 
ATOM     27  C   UNL     1       9.270   4.378   0.310  0.00  0.00    +0.021 A 
ATOM     28  C   UNL     1      10.242   3.533   0.818  0.00  0.00    +0.041 A 
ATOM     29  C   UNL     1       9.913   2.245   1.210  0.00  0.00    +0.021 A 
ATOM     30  C   UNL     1       8.614   1.798   1.097  0.00  0.00    +0.016 A 
ATOM     31 CL   UNL     1      11.880   4.089   0.964  0.00  0.00    -0.084 Cl
ENDBRANCH  23  25
ENDBRANCH  22  23
ENDBRANCH  19  22
ENDBRANCH  10  16
BRANCH  14  33
ATOM     32  C   UNL     1      -2.717   9.337  -1.576  0.00  0.00    -0.014 C 
ATOM     33  C   UNL     1      -3.958   8.483  -1.305  0.00  0.00    -0.074 C 
ATOM     34  C   UNL     1      -4.832   8.441  -2.560  0.00  0.00    -0.014 C 
ENDBRANCH  14  33
BRANCH   8  35
ATOM     35  O   UNL     1      -1.925   3.261   2.379  0.00  0.00    -0.492 OA
ATOM     36  H   UNL     1      -1.730   2.731   3.163  0.00  0.00    +0.294 HD
ENDBRANCH   8  35
TORSDOF 6
