REMARK  Name = ZINC13598345
REMARK  6 active torsions:
REMARK  status: ('A' for Active; 'I' for Inactive)
REMARK    1  A    between atoms: C_1  and  C_2
REMARK    2  A    between atoms: C_3  and  C_24
REMARK    3  A    between atoms: C_11  and  C_13
REMARK    4  A    between atoms: C_13  and  C_15
REMARK    5  A    between atoms: C_13  and  S_16
REMARK    6  A    between atoms: S_16  and  C_17
REMARK                            x       y       z     vdW  Elec       q    Type
REMARK                         _______ _______ _______ _____ _____    ______ ____
ROOT
ATOM      1  C   UNL     1      -0.018   1.503   0.010  0.00  0.00    +0.045 C 
ATOM      2  C   UNL     1       0.002  -0.004   0.002  0.00  0.00    -0.026 A 
ATOM      3  C   UNL     1       0.006  -0.677  -1.160  0.00  0.00    -0.008 A 
ATOM      4  S   UNL     1       0.032  -2.385  -0.648  0.00  0.00    -0.073 S 
ATOM      5  C   UNL     1       0.037  -2.144   1.110  0.00  0.00    +0.116 A 
ATOM      6  C   UNL     1       0.024  -0.745   1.250  0.00  0.00    +0.075 A 
ATOM      7  C   UNL     1       0.029  -0.257   2.597  0.00  0.00    +0.260 A 
ATOM      8  O   UNL     1       0.014   0.942   2.821  0.00  0.00    -0.267 OA
ATOM      9  N   UNL     1       0.051  -1.142   3.611  0.00  0.00    -0.309 N 
ATOM     10  H   UNL     1       0.054  -0.817   4.525  0.00  0.00    +0.170 HD
ATOM     11  C   UNL     1       0.067  -2.480   3.380  0.00  0.00    +0.124 A 
ATOM     12  N   UNL     1       0.053  -2.956   2.163  0.00  0.00    -0.225 NA
ATOM     13  C   UNL     1      -0.009  -0.122  -2.561  0.00  0.00    +0.052 C 
ENDROOT
BRANCH  11  14
ATOM     14  C   UNL     1       0.090  -3.432   4.547  0.00  0.00    +0.117 C 
ATOM     15  C   UNL     1       1.535  -3.832   4.850  0.00  0.00    +0.027 C 
BRANCH  14  16
ATOM     16  S   UNL     1      -0.875  -4.913   4.139  0.00  0.00    -0.073 S 
BRANCH  16  17
ATOM     17  C   UNL     1      -0.876  -5.847   5.633  0.00  0.00    +0.211 A 
ATOM     18  N   UNL     1      -1.473  -7.031   5.810  0.00  0.00    -0.188 NA
ATOM     19  H   UNL     1      -0.235  -6.548   8.604  0.00  0.00    +0.192 HD
ATOM     20  C   UNL     1      -1.276  -7.446   7.043  0.00  0.00    +0.209 A 
ATOM     21  N   UNL     1      -0.537  -6.516   7.683  0.00  0.00    -0.246 N 
ATOM     22  N   UNL     1      -0.287  -5.496   6.751  0.00  0.00    -0.144 NA
ATOM     23  N   UNL     1      -1.745  -8.628   7.587  0.00  0.00    -0.328 N 
ATOM     24  H   UNL     1      -2.271  -9.236   7.045  0.00  0.00    +0.145 HD
ATOM     25  H   UNL     1      -1.547  -8.848   8.511  0.00  0.00    +0.145 HD
ENDBRANCH  16  17
ENDBRANCH  14  16
ENDBRANCH  11  14
TORSDOF 3
