REMARK  Name = ZINC36813214
REMARK  4 active torsions:
REMARK  status: ('A' for Active; 'I' for Inactive)
REMARK    1  A    between atoms: C_1  and  N_2
REMARK    2  A    between atoms: N_2  and  C_3
REMARK    3  A    between atoms: N_2  and  C_15
REMARK    4  A    between atoms: C_12  and  N_13
REMARK                            x       y       z     vdW  Elec       q    Type
REMARK                         _______ _______ _______ _____ _____    ______ ____
ROOT
ATOM      1  C   UNL     1       0.023  -0.706   1.203  0.00  0.00    +0.061 A 
ATOM      2  C   UNL     1       1.244  -1.052   1.824  0.00  0.00    +0.022 A 
ATOM      3  C   UNL     1       2.477  -0.701   1.254  0.00  0.00    +0.027 A 
ATOM      4  C   UNL     1       3.634  -1.052   1.882  0.00  0.00    +0.019 A 
ATOM      5  C   UNL     1       3.608  -1.756   3.085  0.00  0.00    +0.017 A 
ATOM      6  C   UNL     1       2.430  -2.112   3.664  0.00  0.00    +0.027 A 
ATOM      7  C   UNL     1       1.215  -1.768   3.046  0.00  0.00    +0.048 A 
ATOM      8  N   UNL     1       0.044  -2.105   3.596  0.00  0.00    -0.359 N 
ATOM      9  C   UNL     1      -1.100  -1.791   3.033  0.00  0.00    +0.107 A 
ATOM     10  C   UNL     1      -1.157  -1.084   1.834  0.00  0.00    +0.063 A 
ATOM     11 BR   UNL     1       5.295  -0.579   1.112  0.00  0.00    -0.050 Br
ATOM     12  H   UNL     1       0.039  -2.595   4.434  0.00  0.00    +0.165 HD
ENDROOT
BRANCH  10  13
ATOM     13  N   UNL     1      -2.397  -0.761   1.264  0.00  0.00    -0.355 N 
ATOM     14  H   UNL     1      -2.433  -0.271   0.427  0.00  0.00    +0.142 HD
ATOM     15  H   UNL     1      -3.218  -1.026   1.706  0.00  0.00    +0.142 HD
ENDBRANCH  10  13
BRANCH   1  17
ATOM     16  C   UNL     1      -0.018   1.461   0.010  0.00  0.00    +0.129 C 
ATOM     17  N   UNL     1       0.002  -0.004   0.002  0.00  0.00    -0.328 N 
BRANCH  17  18
ATOM     18  C   UNL     1      -0.000  -0.730  -1.271  0.00  0.00    +0.078 C 
ATOM     19  C   UNL     1      -1.257  -0.365  -2.066  0.00  0.00    +0.050 C 
ATOM     20  C   UNL     1      -1.212  -1.066  -3.426  0.00  0.00    +0.161 C 
ATOM     21  O   UNL     1      -0.022  -0.684  -4.119  0.00  0.00    -0.380 OA
ATOM     22  C   UNL     1       1.186  -1.042  -3.445  0.00  0.00    +0.161 C 
ATOM     23  C   UNL     1       1.237  -0.340  -2.085  0.00  0.00    +0.050 C 
ENDBRANCH  17  18
ENDBRANCH   1  17
TORSDOF 3
