REMARK  Name = ZINC21239666
REMARK  5 active torsions:
REMARK  status: ('A' for Active; 'I' for Inactive)
REMARK    1  A    between atoms: C_1  and  O_2
REMARK    2  A    between atoms: O_2  and  C_3
REMARK    3  A    between atoms: C_6  and  C_10
REMARK    4  A    between atoms: C_8  and  O_9
REMARK    5  A    between atoms: C_21  and  C_24
REMARK                            x       y       z     vdW  Elec       q    Type
REMARK                         _______ _______ _______ _____ _____    ______ ____
ROOT
ATOM      1  C   UNL     1       1.532   0.033   6.141  0.00  0.00    +0.063 C 
ATOM      2  C   UNL     1       1.550  -1.493   6.246  0.00  0.00    +0.109 C 
ATOM      3  C   UNL     1       2.601  -2.039   5.314  0.00  0.00    +0.218 C 
ATOM      4  O   UNL     1       2.428  -3.106   4.765  0.00  0.00    -0.275 OA
ATOM      5  N   UNL     1       3.731  -1.346   5.089  0.00  0.00    -0.289 N 
ATOM      6  C   UNL     1       3.965  -0.147   5.714  0.00  0.00    +0.018 C 
ATOM      7  C   UNL     1       2.944   0.559   6.243  0.00  0.00    +0.020 C 
ATOM      8  C   UNL     1       3.162   1.785   6.894  0.00  0.00    +0.162 C 
ATOM      9  O   UNL     1       2.216   2.399   7.346  0.00  0.00    -0.292 OA
ATOM     10  C   UNL     1       4.550   2.350   7.038  0.00  0.00    +0.088 C 
ATOM     11  C   UNL     1       5.556   1.194   7.070  0.00  0.00    +0.032 C 
ATOM     12  C   UNL     1       5.383   0.361   5.798  0.00  0.00    +0.059 C 
ATOM     13  H   UNL     1       4.487  -1.737   4.393  0.00  0.00    +0.155 HD
ENDROOT
BRANCH   1  17
ATOM     14  C   UNL     1      -0.148   1.182   2.380  0.00  0.00    +0.161 A 
ATOM     15  C   UNL     1       0.993   0.398   2.422  0.00  0.00    +0.049 A 
ATOM     16  C   UNL     1       1.534   0.028   3.639  0.00  0.00    +0.008 A 
ATOM     17  C   UNL     1       0.938   0.438   4.817  0.00  0.00    -0.036 A 
ATOM     18  C   UNL     1      -0.201   1.221   4.783  0.00  0.00    +0.053 A 
ATOM     19  C   UNL     1      -0.745   1.600   3.566  0.00  0.00    +0.159 A 
BRANCH  14  21
ATOM     20  C   UNL     1      -0.013   1.086   0.008  0.00  0.00    +0.277 C 
ATOM     21  O   UNL     1      -0.682   1.547   1.184  0.00  0.00    -0.491 OA
ENDBRANCH  14  21
BRANCH  19  22
ATOM     22  O   UNL     1      -1.862   2.374   3.531  0.00  0.00    -0.503 OA
ATOM     23  H   UNL     1      -2.333   2.704   4.468  0.00  0.00    +0.292 HD
ENDBRANCH  19  22
ENDBRANCH   1  17
BRANCH  11  24
ATOM     24  C   UNL     1       6.958   1.745   7.127  0.00  0.00    -0.044 A 
ATOM     25  C   UNL     1       7.423   2.556   6.109  0.00  0.00    +0.004 A 
ATOM     26  C   UNL     1       8.707   3.065   6.163  0.00  0.00    +0.000 A 
ATOM     27  C   UNL     1       9.529   2.755   7.231  0.00  0.00    +0.000 A 
ATOM     28  C   UNL     1       9.065   1.939   8.246  0.00  0.00    +0.000 A 
ATOM     29  C   UNL     1       7.780   1.434   8.194  0.00  0.00    +0.004 A 
ENDBRANCH  11  24
TORSDOF 4
