REMARK  Name = ZINC26283900
REMARK  7 active torsions:
REMARK  status: ('A' for Active; 'I' for Inactive)
REMARK    1  A    between atoms: C_1  and  C_2
REMARK    2  A    between atoms: C_2  and  C_4
REMARK    3  A    between atoms: C_2  and  N_11
REMARK    4  A    between atoms: N_14  and  C_15
REMARK    5  A    between atoms: N_18  and  C_21
REMARK    6  A    between atoms: C_21  and  C_22
REMARK    7  A    between atoms: N_24  and  C_25
REMARK                            x       y       z     vdW  Elec       q    Type
REMARK                         _______ _______ _______ _____ _____    ______ ____
ROOT
ATOM      1  C   UNL     1       4.098  -2.475  -2.256  0.00  0.00    +0.071 C 
ATOM      2  C   UNL     1       4.686  -1.143  -2.731  0.00  0.00    +0.004 C 
ATOM      3  C   UNL     1       6.192  -1.304  -2.948  0.00  0.00    -0.076 C 
ATOM      4  N   UNL     1       6.436  -2.337  -3.961  0.00  0.00    +0.386 N 
ATOM      5  C   UNL     1       5.940  -3.632  -3.482  0.00  0.00    -0.076 C 
ATOM      6  C   UNL     1       4.424  -3.561  -3.285  0.00  0.00    +0.004 C 
ATOM      7  H   UNL     1       5.958  -2.090  -4.814  0.00  0.00    -0.081 HD
ENDROOT
BRANCH   1  11
ATOM      8  N   UNL     1       0.778  -1.750  -0.853  0.00  0.00    -0.293 N 
ATOM      9  C   UNL     1       2.115  -1.866  -0.979  0.00  0.00    +0.300 C 
ATOM     10  O   UNL     1       2.842  -1.535  -0.063  0.00  0.00    -0.253 OA
ATOM     11  N   UNL     1       2.645  -2.349  -2.120  0.00  0.00    -0.297 N 
ATOM     12  H   UNL     1       0.198  -2.015  -1.584  0.00  0.00    +0.151 HD
ATOM     13  H   UNL     1       2.065  -2.614  -2.850  0.00  0.00    +0.151 HD
BRANCH   8  15
ATOM     14  C   UNL     1       0.098   0.298   0.296  0.00  0.00    +0.033 C 
ATOM     15  C   UNL     1       0.201  -1.226   0.387  0.00  0.00    +0.103 C 
BRANCH  15  16
ATOM     16  C   UNL     1      -1.172  -1.811   0.590  0.00  0.00    -0.014 A 
ATOM     17  C   UNL     1      -1.919  -2.217  -0.501  0.00  0.00    +0.006 A 
ATOM     18  C   UNL     1      -3.178  -2.755  -0.315  0.00  0.00    +0.000 A 
ATOM     19  C   UNL     1      -3.692  -2.887   0.962  0.00  0.00    +0.001 A 
ATOM     20  C   UNL     1      -2.947  -2.481   2.052  0.00  0.00    +0.015 A 
ATOM     21  C   UNL     1      -1.684  -1.948   1.867  0.00  0.00    +0.023 A 
ATOM     22 BR   UNL     1      -0.661  -1.399   3.360  0.00  0.00    -0.050 Br
ENDBRANCH  15  16
ENDBRANCH   8  15
ENDBRANCH   1  11
BRANCH   4  23
ATOM     23  C   UNL     1       7.879  -2.433  -4.222  0.00  0.00    +0.019 C 
BRANCH  23  24
ATOM     24  C   UNL     1       8.122  -3.405  -5.348  0.00  0.00    +0.201 C 
ATOM     25  O   UNL     1       7.186  -3.962  -5.881  0.00  0.00    -0.278 OA
ATOM     26  N   UNL     1       9.380  -3.654  -5.763  0.00  0.00    -0.287 N 
ATOM     27  H   UNL     1      10.133  -3.267  -5.289  0.00  0.00    +0.155 HD
BRANCH  26  28
ATOM     28  C   UNL     1       9.600  -4.471  -6.877  0.00  0.00    +0.033 A 
ATOM     29  C   UNL     1       8.695  -4.470  -7.931  0.00  0.00    +0.023 A 
ATOM     30  C   UNL     1       8.915  -5.278  -9.029  0.00  0.00    +0.002 A 
ATOM     31  C   UNL     1      10.035  -6.087  -9.081  0.00  0.00    +0.000 A 
ATOM     32  C   UNL     1      10.938  -6.091  -8.033  0.00  0.00    +0.002 A 
ATOM     33  C   UNL     1      10.727  -5.281  -6.935  0.00  0.00    +0.023 A 
ENDBRANCH  26  28
ENDBRANCH  23  24
ENDBRANCH   4  23
TORSDOF 6
