REMARK  Name = ZINC59418515
REMARK  11 active torsions:
REMARK  status: ('A' for Active; 'I' for Inactive)
REMARK    1  A    between atoms: C_1  and  C_2
REMARK    2  A    between atoms: C_2  and  O_3
REMARK    3  A    between atoms: O_3  and  C_4
REMARK    4  A    between atoms: C_4  and  C_6
REMARK    5  A    between atoms: C_7  and  C_36
REMARK    6  A    between atoms: C_14  and  C_15
REMARK    7  A    between atoms: C_18  and  O_24
REMARK    8  A    between atoms: C_19  and  N_21
REMARK    9  A    between atoms: C_26  and  C_28
REMARK   10  A    between atoms: C_31  and  S_34
REMARK   11  A    between atoms: S_34  and  C_35
REMARK                            x       y       z     vdW  Elec       q    Type
REMARK                         _______ _______ _______ _____ _____    ______ ____
ROOT
ATOM      1  C   UNL     1       2.149  -2.855   2.371  0.00  0.00    +0.085 C 
ATOM      2  C   UNL     1       2.067  -4.160   2.770  0.00  0.00    +0.053 C 
ATOM      3  N   UNL     1       2.467  -4.521   3.982  0.00  0.00    -0.228 NA
ATOM      4  C   UNL     1       2.961  -3.706   4.880  0.00  0.00    +0.178 A 
ATOM      5  N   UNL     1       3.130  -2.355   4.683  0.00  0.00    -0.275 N 
ATOM      6  C   UNL     1       3.645  -1.620   5.678  0.00  0.00    +0.268 A 
ATOM      7  O   UNL     1       3.812  -0.421   5.550  0.00  0.00    -0.266 OA
ATOM      8  C   UNL     1       4.001  -2.305   6.928  0.00  0.00    +0.081 A 
ATOM      9  C   UNL     1       4.531  -1.796   8.070  0.00  0.00    +0.028 C 
ATOM     10  S   UNL     1       3.547  -3.988   6.539  0.00  0.00    -0.046 S 
ATOM     11  C   UNL     1       2.713  -1.847   3.346  0.00  0.00    +0.162 C 
ATOM     12  C   UNL     1       1.515  -5.196   1.825  0.00  0.00    +0.066 C 
ENDROOT
BRANCH   9  13
ATOM     13  C   UNL     1       4.945  -2.698   9.153  0.00  0.00    -0.021 A 
ATOM     14  C   UNL     1       5.206  -4.047   8.883  0.00  0.00    +0.011 A 
ATOM     15  C   UNL     1       5.594  -4.888   9.901  0.00  0.00    +0.048 A 
ATOM     16  C   UNL     1       5.726  -4.399  11.196  0.00  0.00    +0.147 A 
ATOM     17  C   UNL     1       5.468  -3.061  11.470  0.00  0.00    +0.168 A 
ATOM     18  C   UNL     1       5.086  -2.210  10.458  0.00  0.00    +0.044 A 
BRANCH  17  19
ATOM     19  N   UNL     1       5.612  -2.549  12.852  0.00  0.00    +0.060 N 
ATOM     20  O   UNL     1       5.387  -1.385  13.091  0.00  0.00    -0.126 OA
ATOM     21  O   UNL     1       5.952  -3.294  13.740  0.00  0.00    -0.126 OA
ENDBRANCH  17  19
BRANCH  16  22
ATOM     22  O   UNL     1       6.109  -5.233  12.197  0.00  0.00    -0.504 OA
ATOM     23  H   UNL     1       7.066  -5.279  12.327  0.00  0.00    +0.292 HD
ENDBRANCH  16  22
ENDBRANCH   9  13
BRANCH  11  24
ATOM     24  C   UNL     1       3.909  -1.196   2.700  0.00  0.00    -0.020 A 
ATOM     25  C   UNL     1       5.127  -1.850   2.685  0.00  0.00    +0.007 A 
ATOM     26  C   UNL     1       6.225  -1.256   2.094  0.00  0.00    +0.015 A 
ATOM     27  C   UNL     1       6.104   0.001   1.514  0.00  0.00    +0.008 A 
ATOM     28  C   UNL     1       4.878   0.655   1.530  0.00  0.00    +0.015 A 
ATOM     29  C   UNL     1       3.784   0.053   2.118  0.00  0.00    +0.007 A 
BRANCH  27  30
ATOM     30  S   UNL     1       7.502   0.762   0.759  0.00  0.00    -0.129 S 
ATOM     31  C   UNL     1       6.865   2.351   0.158  0.00  0.00    +0.090 C 
ENDBRANCH  27  30
ENDBRANCH  11  24
BRANCH   1  32
ATOM     32  C   UNL     1       1.728  -2.463   1.089  0.00  0.00    +0.339 C 
ATOM     33  O   UNL     1       1.408  -3.305   0.269  0.00  0.00    -0.245 OA
BRANCH  32  34
ATOM     34  O   UNL     1       1.677  -1.152   0.767  0.00  0.00    -0.462 OA
BRANCH  34  36
ATOM     35  C   UNL     1       1.247   0.694  -0.733  0.00  0.00    +0.048 C 
ATOM     36  C   UNL     1       1.239  -0.826  -0.554  0.00  0.00    +0.229 C 
ENDBRANCH  34  36
ENDBRANCH  32  34
ENDBRANCH   1  32
TORSDOF 8
