REMARK  Name = ZINC14478090
REMARK  5 active torsions:
REMARK  status: ('A' for Active; 'I' for Inactive)
REMARK    1  A    between atoms: C_1  and  N_2
REMARK    2  A    between atoms: N_5  and  S_8
REMARK    3  A    between atoms: S_8  and  C_11
REMARK    4  A    between atoms: C_24  and  C_27
REMARK    5  A    between atoms: C_32  and  N_33
REMARK                            x       y       z     vdW  Elec       q    Type
REMARK                         _______ _______ _______ _____ _____    ______ ____
ROOT
ATOM      1  C   UNL     1       3.733  -3.173  -0.155  0.00  0.00    +0.106 A 
ATOM      2  C   UNL     1       4.304  -2.886  -1.382  0.00  0.00    +0.030 A 
ATOM      3  C   UNL     1       5.557  -2.310  -1.437  0.00  0.00    +0.025 A 
ATOM      4  C   UNL     1       6.242  -2.015  -0.264  0.00  0.00    +0.031 A 
ATOM      5  C   UNL     1       5.666  -2.290   0.968  0.00  0.00    -0.018 A 
ATOM      6  C   UNL     1       4.407  -2.872   1.011  0.00  0.00    +0.034 A 
ATOM      7  C   UNL     1       6.353  -1.952   2.247  0.00  0.00    +0.049 C 
ATOM      8  C   UNL     1       6.941  -3.169   2.914  0.00  0.00    -0.023 C 
ATOM      9  C   UNL     1       8.073  -2.863   3.498  0.00  0.00    -0.030 C 
ATOM     10  C   UNL     1       8.405  -1.401   3.299  0.00  0.00    +0.033 C 
ATOM     11  C   UNL     1       7.522  -0.980   2.102  0.00  0.00    +0.029 C 
ATOM     12  C   UNL     1       8.323  -1.175   0.831  0.00  0.00    +0.107 C 
ATOM     13  N   UNL     1       7.511  -1.452  -0.335  0.00  0.00    -0.336 N 
ATOM     14  H   UNL     1       7.879  -1.257  -1.211  0.00  0.00    +0.147 HD
ENDROOT
BRANCH  12  15
ATOM     15  C   UNL     1       9.100   0.087   0.557  0.00  0.00    +0.003 A 
ATOM     16  C   UNL     1       8.723   1.275   1.155  0.00  0.00    +0.008 A 
ATOM     17  C   UNL     1       9.435   2.432   0.903  0.00  0.00    +0.000 A 
ATOM     18  C   UNL     1      10.526   2.402   0.054  0.00  0.00    +0.002 A 
ATOM     19  C   UNL     1      10.904   1.214  -0.543  0.00  0.00    +0.033 A 
ATOM     20  C   UNL     1      10.194   0.055  -0.288  0.00  0.00    +0.131 A 
BRANCH  20  21
ATOM     21  N   UNL     1      10.601  -1.218  -0.923  0.00  0.00    +0.057 N 
ATOM     22  O   UNL     1      11.616  -1.269  -1.578  0.00  0.00    -0.126 OA
ATOM     23  O   UNL     1       9.920  -2.207  -0.787  0.00  0.00    -0.126 OA
ENDBRANCH  20  21
ENDBRANCH  12  15
BRANCH   1  24
ATOM     24  S   UNL     1       2.138  -3.917  -0.081  0.00  0.00    +0.061 S 
ATOM     25  O   UNL     1       2.056  -4.577   1.175  0.00  0.00    -0.153 OA
ATOM     26  O   UNL     1       1.950  -4.598  -1.314  0.00  0.00    -0.153 OA
BRANCH  24  31
ATOM     27  C   UNL     1      -0.018   1.375  -0.033  0.00  0.00    +0.105 C 
ATOM     28  N   UNL     1       0.015  -0.094  -0.022  0.00  0.00    -0.303 NA
ATOM     29  C   UNL     1       0.614  -0.616  -1.257  0.00  0.00    +0.101 C 
ATOM     30  C   UNL     1       0.466  -2.141  -1.288  0.00  0.00    +0.125 C 
ATOM     31  N   UNL     1       1.027  -2.690  -0.044  0.00  0.00    -0.174 NA
ATOM     32  C   UNL     1       0.574  -2.120   1.234  0.00  0.00    +0.125 C 
ATOM     33  C   UNL     1       0.718  -0.596   1.165  0.00  0.00    +0.101 C 
ENDBRANCH  24  31
ENDBRANCH   1  24
TORSDOF 4
