REMARK  Name = ZINC04741692
REMARK  6 active torsions:
REMARK  status: ('A' for Active; 'I' for Inactive)
REMARK    1  A    between atoms: C_4  and  C_7
REMARK    2  A    between atoms: C_13  and  S_15
REMARK    3  A    between atoms: S_15  and  C_16
REMARK    4  A    between atoms: C_16  and  C_17
REMARK    5  A    between atoms: N_19  and  C_20
REMARK    6  A    between atoms: C_25  and  C_26
REMARK                            x       y       z     vdW  Elec       q    Type
REMARK                         _______ _______ _______ _____ _____    ______ ____
ROOT
ATOM      1  C   UNL     1       6.913   2.049  -0.026  0.00  0.00    +0.173 C 
ENDROOT
BRANCH   1   2
ATOM      2  C   UNL     1       8.098   2.980  -0.039  0.00  0.00    +0.228 C 
ATOM      3  O   UNL     1       9.224   2.529  -0.066  0.00  0.00    -0.275 OA
ATOM      4  N   UNL     1       7.908   4.314  -0.021  0.00  0.00    -0.284 N 
ATOM      5  H   UNL     1       7.010   4.677  -0.080  0.00  0.00    +0.155 HD
BRANCH   4   6
ATOM      6  C   UNL     1       9.000   5.172   0.084  0.00  0.00    +0.046 A 
ATOM      7  C   UNL     1      10.177   4.735   0.676  0.00  0.00    +0.024 A 
ATOM      8  C   UNL     1      11.258   5.587   0.779  0.00  0.00    +0.002 A 
ATOM      9  C   UNL     1      11.178   6.882   0.293  0.00  0.00    +0.001 A 
ATOM     10  C   UNL     1      10.018   7.334  -0.298  0.00  0.00    +0.015 A 
ATOM     11  C   UNL     1       8.918   6.481  -0.414  0.00  0.00    +0.058 A 
BRANCH  11  12
ATOM     12  C   UNL     1       7.675   6.956  -1.052  0.00  0.00    +0.243 C 
ATOM     13  O   UNL     1       6.689   6.245  -1.067  0.00  0.00    -0.270 OA
ATOM     14  N   UNL     1       7.633   8.178  -1.618  0.00  0.00    -0.325 N 
ATOM     15  H   UNL     1       8.420   8.746  -1.606  0.00  0.00    +0.145 HD
ATOM     16  H   UNL     1       6.816   8.491  -2.037  0.00  0.00    +0.145 HD
ENDBRANCH  11  12
ENDBRANCH   4   6
ENDBRANCH   1   2
BRANCH   1  17
ATOM     17  S   UNL     1       7.494   0.331  -0.056  0.00  0.00    -0.078 S 
BRANCH  17  24
ATOM     18  C   UNL     1       3.698  -0.687   0.008  0.00  0.00    +0.079 A 
ATOM     19  C   UNL     1       3.723  -2.074  -0.007  0.00  0.00    +0.098 A 
ATOM     20  C   UNL     1       4.965  -2.725  -0.039  0.00  0.00    +0.253 A 
ATOM     21  O   UNL     1       5.027  -3.944  -0.053  0.00  0.00    -0.268 OA
ATOM     22  N   UNL     1       6.090  -1.980  -0.053  0.00  0.00    -0.302 N 
ATOM     23  H   UNL     1       6.958  -2.414  -0.075  0.00  0.00    +0.171 HD
ATOM     24  C   UNL     1       6.011  -0.620  -0.037  0.00  0.00    +0.170 A 
ATOM     25  N   UNL     1       4.848  -0.002  -0.012  0.00  0.00    -0.223 NA
BRANCH  18  29
ATOM     26  C   UNL     1      -0.016   1.379   0.102  0.00  0.00    +0.000 A 
ATOM     27  C   UNL     1       1.169   2.092   0.081  0.00  0.00    +0.001 A 
ATOM     28  C   UNL     1       2.378   1.427   0.051  0.00  0.00    +0.010 A 
ATOM     29  C   UNL     1       2.403   0.033   0.041  0.00  0.00    +0.001 A 
ATOM     30  C   UNL     1       1.205  -0.681   0.062  0.00  0.00    +0.010 A 
ATOM     31  C   UNL     1       0.003  -0.004   0.092  0.00  0.00    +0.001 A 
ENDBRANCH  18  29
ENDBRANCH  17  24
ENDBRANCH   1  17
TORSDOF 6
