REMARK  Name = ZINC08729087
REMARK  6 active torsions:
REMARK  status: ('A' for Active; 'I' for Inactive)
REMARK    1  A    between atoms: C_1  and  C_2
REMARK    2  A    between atoms: C_2  and  C_4
REMARK    3  A    between atoms: C_2  and  N_71
REMARK    4  A    between atoms: N_6  and  C_7
REMARK    5  A    between atoms: C_22  and  C_24
REMARK    6  A    between atoms: C_24  and  N_73
REMARK                            x       y       z     vdW  Elec       q    Type
REMARK                         _______ _______ _______ _____ _____    ______ ____
ROOT
ATOM      1  C   UNL     1       9.076  -4.120   0.197  0.00  0.00    -0.059 C 
ATOM      2  C   UNL     1       8.627  -3.189   1.326  0.00  0.00    +0.088 C 
ATOM      3  N   UNL     1       8.652  -1.799   0.850  0.00  0.00    -0.318 N 
ATOM      4  C   UNL     1       7.763  -1.625  -0.306  0.00  0.00    +0.088 C 
ATOM      5  C   UNL     1       8.211  -2.556  -1.435  0.00  0.00    -0.059 C 
ATOM      6  C   UNL     1       8.321  -0.921   1.867  0.00  0.00    +0.133 A 
ATOM      7  C   UNL     1       9.258   0.052   2.313  0.00  0.00    +0.051 A 
ATOM      8  C   UNL     1      10.620   0.298   1.838  0.00  0.00    -0.025 A 
ATOM      9  C   UNL     1      11.307   1.292   2.436  0.00  0.00    -0.004 A 
ATOM     10  S   UNL     1      10.198   1.954   3.651  0.00  0.00    -0.073 S 
ATOM     11  C   UNL     1       8.810   0.891   3.353  0.00  0.00    +0.114 A 
ATOM     12  N   UNL     1       7.601   0.768   3.866  0.00  0.00    -0.227 NA
ATOM     13  C   UNL     1       6.775  -0.154   3.410  0.00  0.00    +0.116 A 
ATOM     14  N   UNL     1       7.130  -0.978   2.441  0.00  0.00    -0.219 NA
ATOM     15  C   UNL     1      12.705   1.739   2.134  0.00  0.00    +0.043 C 
ATOM     16  C   UNL     1      13.389   0.655   1.289  0.00  0.00    +0.005 C 
ATOM     17  C   UNL     1      12.445   0.250   0.152  0.00  0.00    +0.005 C 
ATOM     18  C   UNL     1      11.254  -0.523   0.717  0.00  0.00    +0.037 C 
ATOM     19  N   UNL     1       8.160  -3.952  -0.951  0.00  0.00    +0.389 N 
ATOM     20  H   UNL     1       7.202  -4.165  -0.648  0.00  0.00    -0.081 HD
ENDROOT
BRANCH  19  22
ATOM     21  C   UNL     1       7.669  -4.591  -3.265  0.00  0.00    -0.004 C 
ATOM     22  C   UNL     1       8.538  -4.879  -2.039  0.00  0.00    +0.016 C 
BRANCH  22  23
ATOM     23  C   UNL     1       8.303  -6.294  -1.577  0.00  0.00    +0.199 C 
ATOM     24  O   UNL     1       7.468  -6.524  -0.727  0.00  0.00    -0.278 OA
ATOM     25  N   UNL     1       9.020  -7.304  -2.108  0.00  0.00    -0.314 N 
ATOM     26  H   UNL     1       9.687  -7.120  -2.788  0.00  0.00    +0.149 HD
BRANCH  25  27
ATOM     27  C   UNL     1       8.791  -8.680  -1.659  0.00  0.00    +0.073 C 
ATOM     28  C   UNL     1      10.021  -9.550  -1.394  0.00  0.00    +0.024 C 
ATOM     29  C   UNL     1       9.151  -9.808  -2.627  0.00  0.00    +0.024 C 
ENDBRANCH  25  27
ENDBRANCH  22  23
ENDBRANCH  19  22
BRANCH  13  30
ATOM     30  C   UNL     1       5.399  -0.273   4.012  0.00  0.00    -0.001 C 
BRANCH  30  36
ATOM     31  C   UNL     1       3.077   0.322   3.674  0.00  0.00    -0.078 C 
ATOM     32  C   UNL     1       2.126   1.126   2.785  0.00  0.00    -0.019 C 
ATOM     33  C   UNL     1       2.442   2.618   2.927  0.00  0.00    -0.004 C 
ATOM     34  C   UNL     1       3.906   2.859   2.550  0.00  0.00    -0.019 C 
ATOM     35  C   UNL     1       4.806   2.005   3.446  0.00  0.00    -0.078 C 
ATOM     36  N   UNL     1       4.468   0.579   3.245  0.00  0.00    +0.384 N 
ATOM     37  H   UNL     1       4.556   0.354   2.247  0.00  0.00    -0.081 HD
ENDBRANCH  30  36
ENDBRANCH  13  30
TORSDOF 5
