REMARK  Name = ZINC34957025
REMARK  6 active torsions:
REMARK  status: ('A' for Active; 'I' for Inactive)
REMARK    1  A    between atoms: C_1  and  C_2
REMARK    2  A    between atoms: C_3  and  C_18
REMARK    3  A    between atoms: C_4  and  N_8
REMARK    4  A    between atoms: N_5  and  C_7
REMARK    5  A    between atoms: C_10  and  C_17
REMARK    6  A    between atoms: C_13  and  C_16
REMARK                            x       y       z     vdW  Elec       q    Type
REMARK                         _______ _______ _______ _____ _____    ______ ____
ROOT
ATOM      1  C   UNL     1       1.490   0.877   0.872  0.00  0.00    +0.068 C 
ATOM      2  C   UNL     1       0.654  -0.273   0.372  0.00  0.00    +0.072 A 
ATOM      3  C   UNL     1       1.118  -1.363  -0.407  0.00  0.00    +0.076 A 
ATOM      4  C   UNL     1       0.016  -2.189  -0.645  0.00  0.00    +0.130 A 
ATOM      5  N   UNL     1      -1.043  -1.619  -0.038  0.00  0.00    -0.253 N 
ATOM      6  N   UNL     1      -0.620  -0.441   0.586  0.00  0.00    -0.174 NA
ATOM      7  C   UNL     1      -2.410  -2.147  -0.029  0.00  0.00    +0.174 C 
ENDROOT
BRANCH   4   8
ATOM      8  N   UNL     1       0.014  -3.364  -1.363  0.00  0.00    -0.314 N 
ATOM      9  C   UNL     1       0.125  -3.346  -2.829  0.00  0.00    +0.109 C 
ATOM     10  C   UNL     1       1.285  -4.256  -3.246  0.00  0.00    +0.004 C 
ATOM     11  C   UNL     1       1.076  -5.649  -2.649  0.00  0.00    +0.009 C 
ATOM     12  C   UNL     1       1.063  -5.554  -1.121  0.00  0.00    +0.004 C 
ATOM     13  C   UNL     1      -0.093  -4.660  -0.679  0.00  0.00    +0.109 C 
ATOM     14  C   UNL     1       2.384  -4.954  -0.636  0.00  0.00    +0.009 C 
ATOM     15  C   UNL     1       1.331  -4.355  -4.772  0.00  0.00    +0.009 C 
ENDBRANCH   4   8
BRANCH   3  16
ATOM     16  C   UNL     1       2.444  -1.573  -0.858  0.00  0.00    +0.264 C 
ATOM     17  O   UNL     1       3.296  -0.734  -0.649  0.00  0.00    -0.296 OA
ENDBRANCH   3  16
TORSDOF 2
