REMARK  Name = ZINC01418923
REMARK  8 active torsions:
REMARK  status: ('A' for Active; 'I' for Inactive)
REMARK    1  A    between atoms: N_9  and  C_10
REMARK    2  A    between atoms: C_10  and  C_11
REMARK    3  A    between atoms: N_13  and  C_14
REMARK    4  A    between atoms: N_13  and  C_22
REMARK    5  A    between atoms: C_14  and  C_15
REMARK    6  A    between atoms: C_22  and  C_24
REMARK    7  A    between atoms: C_22  and  C_31
REMARK    8  A    between atoms: N_33  and  C_34
REMARK                            x       y       z     vdW  Elec       q    Type
REMARK                         _______ _______ _______ _____ _____    ______ ____
ROOT
ATOM      1  C   UNL     1      -4.476   4.360  -0.049  0.00  0.00    +0.238 C 
ATOM      2  O   UNL     1      -3.289   4.546  -0.215  0.00  0.00    -0.274 OA
ATOM      3  N   UNL     1      -5.284   4.177  -1.111  0.00  0.00    -0.280 N 
ENDROOT
BRANCH   1   4
ATOM      4  C   UNL     1      -5.046   4.334   1.346  0.00  0.00    +0.241 C 
BRANCH   4  13
ATOM      5  C   UNL     1      -1.614   1.642   4.297  0.00  0.00    +0.002 A 
ATOM      6  C   UNL     1      -2.562   1.113   3.430  0.00  0.00    +0.002 A 
ATOM      7  C   UNL     1      -3.389   1.936   2.719  0.00  0.00    +0.029 A 
ATOM      8  C   UNL     1      -3.291   3.315   2.870  0.00  0.00    +0.090 A 
ATOM      9  C   UNL     1      -2.333   3.857   3.745  0.00  0.00    +0.113 A 
ATOM     10  C   UNL     1      -1.493   2.991   4.459  0.00  0.00    +0.032 A 
ATOM     11  N   UNL     1      -2.448   5.199   3.697  0.00  0.00    -0.129 NA
ATOM     12  N   UNL     1      -3.381   5.538   2.879  0.00  0.00    -0.064 NA
ATOM     13  N   UNL     1      -3.955   4.386   2.321  0.00  0.00    -0.235 N 
ENDBRANCH   4  13
ENDBRANCH   1   4
BRANCH   3  14
ATOM     14  C   UNL     1      -6.738   4.266  -0.950  0.00  0.00    +0.144 C 
BRANCH  14  15
ATOM     15  C   UNL     1      -7.179   5.692  -1.158  0.00  0.00    -0.030 A 
ATOM     16  C   UNL     1      -6.483   6.725  -0.559  0.00  0.00    +0.008 A 
ATOM     17  C   UNL     1      -6.884   8.033  -0.753  0.00  0.00    +0.038 A 
ATOM     18  C   UNL     1      -7.991   8.308  -1.538  0.00  0.00    +0.123 A 
ATOM     19  C   UNL     1      -8.691   7.272  -2.133  0.00  0.00    +0.038 A 
ATOM     20  C   UNL     1      -8.284   5.965  -1.942  0.00  0.00    +0.008 A 
ATOM     21  F   UNL     1      -8.387   9.586  -1.724  0.00  0.00    -0.205 F 
ENDBRANCH  14  15
ENDBRANCH   3  14
BRANCH   3  22
ATOM     22  C   UNL     1      -4.710   3.888  -2.428  0.00  0.00    +0.193 C 
BRANCH  22  23
ATOM     23  C   UNL     1      -4.008   2.555  -2.388  0.00  0.00    -0.018 A 
ATOM     24  C   UNL     1      -4.627   1.465  -1.806  0.00  0.00    +0.007 A 
ATOM     25  C   UNL     1      -3.986   0.241  -1.774  0.00  0.00    +0.020 A 
ATOM     26  C   UNL     1      -2.720   0.110  -2.316  0.00  0.00    +0.041 A 
ATOM     27  C   UNL     1      -2.098   1.202  -2.894  0.00  0.00    +0.020 A 
ATOM     28  C   UNL     1      -2.743   2.425  -2.930  0.00  0.00    +0.007 A 
ATOM     29 CL   UNL     1      -1.911  -1.426  -2.270  0.00  0.00    -0.084 Cl
ENDBRANCH  22  23
BRANCH  22  30
ATOM     30  C   UNL     1      -5.809   3.847  -3.458  0.00  0.00    +0.242 C 
ATOM     31  O   UNL     1      -6.901   4.308  -3.198  0.00  0.00    -0.273 OA
ATOM     32  N   UNL     1      -5.580   3.296  -4.666  0.00  0.00    -0.284 N 
ATOM     33  H   UNL     1      -4.702   2.944  -4.880  0.00  0.00    +0.155 HD
BRANCH  32  34
ATOM     34  C   UNL     1      -6.610   3.234  -5.614  0.00  0.00    +0.037 A 
ATOM     35  C   UNL     1      -7.839   2.688  -5.269  0.00  0.00    +0.027 A 
ATOM     36  C   UNL     1      -8.857   2.630  -6.202  0.00  0.00    +0.051 A 
ATOM     37  C   UNL     1      -8.651   3.107  -7.486  0.00  0.00    +0.166 A 
ATOM     38  C   UNL     1      -7.418   3.650  -7.837  0.00  0.00    +0.168 A 
ATOM     39  C   UNL     1      -6.399   3.713  -6.900  0.00  0.00    +0.072 A 
ATOM     40  O   UNL     1      -7.469   4.043  -9.143  0.00  0.00    -0.453 OA
ATOM     41  C   UNL     1      -8.608   3.365  -9.704  0.00  0.00    +0.466 C 
ATOM     42  O   UNL     1      -9.476   3.160  -8.574  0.00  0.00    -0.453 OA
ENDBRANCH  32  34
ENDBRANCH  22  30
ENDBRANCH   3  22
TORSDOF 8
