REMARK  Name = ZINC09320044
REMARK  3 active torsions:
REMARK  status: ('A' for Active; 'I' for Inactive)
REMARK    1  A    between atoms: C_4  and  N_7
REMARK    2  A    between atoms: C_22  and  C_28
REMARK    3  A    between atoms: N_30  and  C_31
REMARK                            x       y       z     vdW  Elec       q    Type
REMARK                         _______ _______ _______ _____ _____    ______ ____
ROOT
ATOM      1  N   UNL     1      -1.571   3.435   2.012  0.00  0.00    -0.210 N 
ATOM      2  C   UNL     1      -0.287   3.922   1.922  0.00  0.00    +0.232 C 
ATOM      3  O   UNL     1       0.211   4.828   2.555  0.00  0.00    -0.274 OA
ATOM      4  C   UNL     1       0.333   3.104   0.900  0.00  0.00    +0.113 C 
ATOM      5  C   UNL     1       1.607   2.793   0.290  0.00  0.00    +0.100 C 
ATOM      6  C   UNL     1       2.858   2.901   1.095  0.00  0.00    -0.021 A 
ATOM      7  C   UNL     1       3.002   3.869   2.067  0.00  0.00    +0.006 A 
ATOM      8  C   UNL     1       4.174   3.962   2.795  0.00  0.00    +0.000 A 
ATOM      9  C   UNL     1       5.215   3.082   2.556  0.00  0.00    +0.001 A 
ATOM     10  C   UNL     1       5.088   2.107   1.590  0.00  0.00    +0.008 A 
ATOM     11  C   UNL     1       3.908   2.004   0.851  0.00  0.00    -0.019 A 
ATOM     12  C   UNL     1       3.775   0.955  -0.179  0.00  0.00    +0.022 C 
ATOM     13  C   UNL     1       2.564   0.673  -0.697  0.00  0.00    +0.054 C 
ATOM     14  C   UNL     1       0.070   1.003  -0.104  0.00  0.00    +0.156 C 
ATOM     15  C   UNL     1      -0.324   1.699   1.199  0.00  0.00    +0.118 C 
ATOM     16  C   UNL     1      -1.710   2.206   1.428  0.00  0.00    +0.232 C 
ATOM     17  O   UNL     1      -2.747   1.642   1.152  0.00  0.00    -0.274 OA
ATOM     18  N   UNL     1       1.381   1.623  -0.510  0.00  0.00    -0.383 NA
ATOM     19  H   UNL     1       1.217   1.989  -1.456  0.00  0.00    +0.127 HD
ENDROOT
BRANCH   1  23
ATOM     20  C   UNL     1      -4.697   5.481   3.862  0.00  0.00    +0.000 A 
ATOM     21  C   UNL     1      -4.924   4.241   3.295  0.00  0.00    +0.002 A 
ATOM     22  C   UNL     1      -3.891   3.561   2.681  0.00  0.00    +0.024 A 
ATOM     23  C   UNL     1      -2.622   4.123   2.634  0.00  0.00    +0.044 A 
ATOM     24  C   UNL     1      -2.396   5.366   3.209  0.00  0.00    +0.024 A 
ATOM     25  C   UNL     1      -3.434   6.044   3.817  0.00  0.00    +0.002 A 
ENDBRANCH   1  23
BRANCH  14  26
ATOM     26  C   UNL     1      -0.744   1.521  -1.262  0.00  0.00    +0.237 C 
ATOM     27  O   UNL     1      -0.294   2.389  -1.980  0.00  0.00    -0.273 OA
ATOM     28  N   UNL     1      -1.972   1.020  -1.500  0.00  0.00    -0.284 N 
ATOM     29  H   UNL     1      -2.302   0.274  -0.975  0.00  0.00    +0.155 HD
BRANCH  28  30
ATOM     30  C   UNL     1      -2.773   1.576  -2.506  0.00  0.00    +0.037 A 
ATOM     31  C   UNL     1      -3.640   0.768  -3.229  0.00  0.00    +0.027 A 
ATOM     32  C   UNL     1      -4.430   1.315  -4.222  0.00  0.00    +0.051 A 
ATOM     33  C   UNL     1      -4.360   2.671  -4.499  0.00  0.00    +0.166 A 
ATOM     34  C   UNL     1      -3.491   3.484  -3.775  0.00  0.00    +0.168 A 
ATOM     35  C   UNL     1      -2.704   2.935  -2.776  0.00  0.00    +0.072 A 
ATOM     36  O   UNL     1      -3.608   4.764  -4.233  0.00  0.00    -0.453 OA
ATOM     37  C   UNL     1      -4.253   4.657  -5.516  0.00  0.00    +0.466 C 
ATOM     38  O   UNL     1      -5.021   3.443  -5.411  0.00  0.00    -0.453 OA
ENDBRANCH  28  30
ENDBRANCH  14  26
TORSDOF 3
