REMARK  Name = ZINC36814039
REMARK  8 active torsions:
REMARK  status: ('A' for Active; 'I' for Inactive)
REMARK    1  A    between atoms: C_1  and  C_2
REMARK    2  A    between atoms: C_2  and  C_3
REMARK    3  A    between atoms: C_2  and  C_4
REMARK    4  A    between atoms: C_4  and  O_5
REMARK    5  A    between atoms: O_5  and  C_6
REMARK    6  A    between atoms: C_7  and  N_21
REMARK    7  A    between atoms: C_10  and  O_12
REMARK    8  A    between atoms: O_12  and  C_13
REMARK                            x       y       z     vdW  Elec       q    Type
REMARK                         _______ _______ _______ _____ _____    ______ ____
ROOT
ATOM      1  C   UNL     1       0.473  -0.629   3.612  0.00  0.00    +0.239 A 
ATOM      2  C   UNL     1      -0.195  -0.312   4.793  0.00  0.00    +0.087 A 
ATOM      3  C   UNL     1       0.375  -0.669   6.010  0.00  0.00    +0.033 A 
ATOM      4  C   UNL     1       1.594  -1.331   6.000  0.00  0.00    +0.069 A 
ATOM      5  C   UNL     1       2.202  -1.614   4.786  0.00  0.00    +0.224 A 
ATOM      6  N   UNL     1       1.631  -1.266   3.643  0.00  0.00    -0.176 NA
ENDROOT
BRANCH   2   7
ATOM      7  N   UNL     1      -1.426   0.359   4.755  0.00  0.00    -0.354 N 
ATOM      8  H   UNL     1      -1.818   0.606   3.903  0.00  0.00    +0.142 HD
ATOM      9  H   UNL     1      -1.885   0.577   5.582  0.00  0.00    +0.142 HD
ENDBRANCH   2   7
BRANCH   1  10
ATOM     10  O   UNL     1      -0.073  -0.285   2.417  0.00  0.00    -0.475 OA
BRANCH  10  11
ATOM     11  C   UNL     1       0.657  -0.644   1.243  0.00  0.00    +0.233 C 
BRANCH  11  13
ATOM     12  C   UNL     1      -0.175   1.351  -0.011  0.00  0.00    +0.010 C 
ATOM     13  C   UNL     1      -0.109  -0.178   0.003  0.00  0.00    +0.020 C 
ATOM     14  C   UNL     1       0.609  -0.669  -1.255  0.00  0.00    +0.010 C 
ENDBRANCH  11  13
ENDBRANCH  10  11
ENDBRANCH   1  10
BRANCH   5  15
ATOM     15  O   UNL     1       3.395  -2.262   4.769  0.00  0.00    -0.438 OA
BRANCH  15  16
ATOM     16  C   UNL     1       3.914  -2.612   3.563  0.00  0.00    +0.133 A 
ATOM     17  C   UNL     1       4.526  -1.655   2.766  0.00  0.00    +0.066 A 
ATOM     18  C   UNL     1       5.053  -2.013   1.540  0.00  0.00    +0.046 A 
ATOM     19  C   UNL     1       4.972  -3.325   1.107  0.00  0.00    +0.040 A 
ATOM     20  C   UNL     1       4.363  -4.280   1.900  0.00  0.00    +0.046 A 
ATOM     21  C   UNL     1       3.839  -3.928   3.130  0.00  0.00    +0.066 A 
ATOM     22 CL   UNL     1       4.262  -5.925   1.355  0.00  0.00    -0.083 Cl
ATOM     23 CL   UNL     1       5.818  -0.816   0.541  0.00  0.00    -0.083 Cl
ENDBRANCH  15  16
ENDBRANCH   5  15
TORSDOF 6
