REMARK  Name = ZINC65571027
REMARK  6 active torsions:
REMARK  status: ('A' for Active; 'I' for Inactive)
REMARK    1  A    between atoms: C_1  and  C_2
REMARK    2  A    between atoms: C_10  and  C_11
REMARK    3  A    between atoms: C_11  and  C_12
REMARK    4  A    between atoms: C_11  and  N_13
REMARK    5  A    between atoms: C_14  and  C_16
REMARK    6  A    between atoms: N_18  and  C_19
REMARK                            x       y       z     vdW  Elec       q    Type
REMARK                         _______ _______ _______ _____ _____    ______ ____
ROOT
ATOM      1  N   UNL     1      -0.910  -1.156   3.290  0.00  0.00    -0.298 N 
ATOM      2  C   UNL     1      -1.460  -0.644   4.409  0.00  0.00    +0.300 C 
ATOM      3  O   UNL     1      -1.153   0.470   4.781  0.00  0.00    -0.265 OA
ATOM      4  H   UNL     1      -1.155  -2.047   2.993  0.00  0.00    +0.150 HD
ENDROOT
BRANCH   2   5
ATOM      5  C   UNL     1      -2.446  -1.448   5.192  0.00  0.00    +0.303 C 
ATOM      6  O   UNL     1      -2.752  -2.562   4.820  0.00  0.00    -0.265 OA
ATOM      7  N   UNL     1      -2.996  -0.936   6.311  0.00  0.00    -0.275 N 
ATOM      8  H   UNL     1      -2.703  -0.073   6.644  0.00  0.00    +0.155 HD
BRANCH   7   9
ATOM      9  C   UNL     1      -3.987  -1.648   6.991  0.00  0.00    +0.072 A 
ATOM     10  C   UNL     1      -3.940  -3.036   7.037  0.00  0.00    +0.026 A 
ATOM     11  C   UNL     1      -4.921  -3.738   7.710  0.00  0.00    +0.005 A 
ATOM     12  C   UNL     1      -5.951  -3.063   8.339  0.00  0.00    +0.041 A 
ATOM     13  C   UNL     1      -6.004  -1.680   8.296  0.00  0.00    +0.160 A 
ATOM     14  C   UNL     1      -5.020  -0.969   7.628  0.00  0.00    +0.179 A 
ATOM     15  F   UNL     1      -5.067   0.380   7.591  0.00  0.00    -0.201 F 
ATOM     16  F   UNL     1      -7.012  -1.023   8.911  0.00  0.00    -0.202 F 
ENDBRANCH   7   9
ENDBRANCH   2   5
BRANCH   1  17
ATOM     17  C   UNL     1       0.058  -0.368   2.523  0.00  0.00    +0.137 C 
ATOM     18  C   UNL     1       1.455  -0.555   3.119  0.00  0.00    +0.036 C 
BRANCH  17  28
ATOM     19  C   UNL     1       0.034   1.486   0.029  0.00  0.00    +0.048 C 
ATOM     20  C   UNL     1       0.047  -0.021   0.021  0.00  0.00    +0.000 A 
ATOM     21  C   UNL     1       0.058  -0.896  -1.157  0.00  0.00    +0.023 A 
ATOM     22  C   UNL     1       0.059  -0.678  -2.534  0.00  0.00    +0.012 A 
ATOM     23  C   UNL     1       0.070  -1.745  -3.389  0.00  0.00    +0.001 A 
ATOM     24  C   UNL     1       0.080  -3.041  -2.895  0.00  0.00    +0.004 A 
ATOM     25  C   UNL     1       0.079  -3.276  -1.537  0.00  0.00    +0.047 A 
ATOM     26  C   UNL     1       0.068  -2.207  -0.651  0.00  0.00    +0.136 A 
ATOM     27  O   UNL     1       0.064  -2.116   0.694  0.00  0.00    -0.458 OA
ATOM     28  C   UNL     1       0.058  -0.831   1.089  0.00  0.00    +0.129 A 
ENDBRANCH  17  28
ENDBRANCH   1  17
TORSDOF 4
