REMARK  Name = ZINC13124016
REMARK  10 active torsions:
REMARK  status: ('A' for Active; 'I' for Inactive)
REMARK    1  A    between atoms: C_4  and  C_7
REMARK    2  A    between atoms: C_7  and  N_8
REMARK    3  A    between atoms: C_9  and  C_28
REMARK    4  A    between atoms: C_12  and  S_13
REMARK    5  A    between atoms: S_13  and  C_14
REMARK    6  A    between atoms: C_14  and  C_15
REMARK    7  A    between atoms: N_17  and  N_18
REMARK    8  A    between atoms: C_19  and  C_21
REMARK    9  A    between atoms: C_26  and  O_27
REMARK   10  A    between atoms: C_33  and  O_34
REMARK                            x       y       z     vdW  Elec       q    Type
REMARK                         _______ _______ _______ _____ _____    ______ ____
ROOT
ATOM      1  N   UNL     1       3.696  -0.843   1.630  0.00  0.00    -0.298 N 
ATOM      2  C   UNL     1       4.808  -0.285   2.220  0.00  0.00    +0.169 A 
ATOM      3  N   UNL     1       5.294  -1.181   3.047  0.00  0.00    -0.128 NA
ATOM      4  N   UNL     1       4.574  -2.245   3.016  0.00  0.00    -0.122 NA
ATOM      5  C   UNL     1       3.580  -2.092   2.170  0.00  0.00    +0.193 A 
ENDROOT
BRANCH   2   6
ATOM      6  C   UNL     1       5.351   1.066   1.969  0.00  0.00    +0.061 A 
ATOM      7  C   UNL     1       5.062   1.727   0.774  0.00  0.00    +0.015 A 
ATOM      8  C   UNL     1       5.572   2.988   0.546  0.00  0.00    +0.001 A 
ATOM      9  C   UNL     1       6.370   3.601   1.497  0.00  0.00    +0.004 A 
ATOM     10  C   UNL     1       6.663   2.956   2.683  0.00  0.00    +0.046 A 
ATOM     11  C   UNL     1       6.154   1.691   2.930  0.00  0.00    +0.128 A 
BRANCH  11  12
ATOM     12  O   UNL     1       6.436   1.059   4.099  0.00  0.00    -0.506 OA
ATOM     13  H   UNL     1       7.237   0.518   4.070  0.00  0.00    +0.292 HD
ENDBRANCH  11  12
ENDBRANCH   2   6
BRANCH   1  14
ATOM     14  C   UNL     1       2.818  -0.223   0.635  0.00  0.00    +0.161 C 
BRANCH  14  18
ATOM     15  C   UNL     1       3.958  -1.512  -3.275  0.00  0.00    +0.000 A 
ATOM     16  C   UNL     1       3.477  -2.428  -2.358  0.00  0.00    +0.000 A 
ATOM     17  C   UNL     1       3.108  -2.011  -1.093  0.00  0.00    +0.005 A 
ATOM     18  C   UNL     1       3.221  -0.678  -0.744  0.00  0.00    -0.028 A 
ATOM     19  C   UNL     1       3.702   0.238  -1.661  0.00  0.00    +0.005 A 
ATOM     20  C   UNL     1       4.070  -0.179  -2.926  0.00  0.00    +0.000 A 
ENDBRANCH  14  18
ENDBRANCH   1  14
BRANCH   5  21
ATOM     21  S   UNL     1       2.332  -3.279   1.799  0.00  0.00    -0.077 S 
BRANCH  21  22
ATOM     22  C   UNL     1       2.753  -4.700   2.844  0.00  0.00    +0.174 C 
BRANCH  22  23
ATOM     23  C   UNL     1       1.751  -5.803   2.621  0.00  0.00    +0.239 C 
ATOM     24  O   UNL     1       0.841  -5.645   1.835  0.00  0.00    -0.273 OA
ATOM     25  N   UNL     1       1.864  -6.964   3.296  0.00  0.00    -0.233 N 
ATOM     26  H   UNL     1       2.592  -7.090   3.925  0.00  0.00    +0.173 HD
BRANCH  25  27
ATOM     27  N   UNL     1       0.932  -7.989   3.089  0.00  0.00    -0.230 N 
ATOM     28  C   UNL     1       1.046  -9.150   3.763  0.00  0.00    +0.264 C 
ATOM     29  O   UNL     1       1.958  -9.308   4.552  0.00  0.00    -0.269 OA
ATOM     30  H   UNL     1       0.205  -7.863   2.459  0.00  0.00    +0.173 HD
BRANCH  28  31
ATOM     31  C   UNL     1       0.064 -10.230   3.545  0.00  0.00    +0.079 A 
ATOM     32  C   UNL     1      -0.982 -10.055   2.635  0.00  0.00    +0.017 A 
ATOM     33  C   UNL     1      -1.895 -11.067   2.436  0.00  0.00    +0.001 A 
ATOM     34  C   UNL     1      -1.782 -12.258   3.134  0.00  0.00    +0.004 A 
ATOM     35  C   UNL     1      -0.754 -12.444   4.036  0.00  0.00    +0.046 A 
ATOM     36  C   UNL     1       0.179 -11.439   4.244  0.00  0.00    +0.129 A 
BRANCH  36  37
ATOM     37  O   UNL     1       1.194 -11.623   5.125  0.00  0.00    -0.506 OA
ATOM     38  H   UNL     1       0.985 -11.349   6.029  0.00  0.00    +0.292 HD
ENDBRANCH  36  37
ENDBRANCH  28  31
ENDBRANCH  25  27
ENDBRANCH  22  23
ENDBRANCH  21  22
ENDBRANCH   5  21
TORSDOF 10
