REMARK  Name = ZINC14655718
REMARK  11 active torsions:
REMARK  status: ('A' for Active; 'I' for Inactive)
REMARK    1  A    between atoms: C_1  and  C_2
REMARK    2  A    between atoms: C_2  and  O_3
REMARK    3  A    between atoms: O_3  and  C_4
REMARK    4  A    between atoms: C_9  and  C_10
REMARK    5  A    between atoms: N_12  and  C_13
REMARK    6  A    between atoms: C_13  and  N_15
REMARK    7  A    between atoms: N_15  and  N_16
REMARK    8  A    between atoms: C_17  and  C_19
REMARK    9  A    between atoms: C_19  and  O_20
REMARK   10  A    between atoms: O_20  and  C_21
REMARK   11  A    between atoms: C_26  and  C_27
REMARK                            x       y       z     vdW  Elec       q    Type
REMARK                         _______ _______ _______ _____ _____    ______ ____
ROOT
ATOM      1  C   UNL     1       3.541   5.996   0.001  0.00  0.00    +0.153 C 
ATOM      2  S   UNL     1       5.041   5.171  -0.017  0.00  0.00    -0.017 S 
ENDROOT
BRANCH   1   5
ATOM      3  C   UNL     1       2.416   3.950   0.000  0.00  0.00    +0.253 C 
ATOM      4  O   UNL     1       3.481   3.365  -0.012  0.00  0.00    -0.270 OA
ATOM      5  N   UNL     1       2.388   5.298   0.007  0.00  0.00    -0.263 N 
ATOM      6  H   UNL     1       1.538   5.765   0.017  0.00  0.00    +0.157 HD
BRANCH   3  12
ATOM      7  C   UNL     1       1.180   1.785   0.000  0.00  0.00    +0.133 A 
ATOM      8  C   UNL     1      -0.013   1.076   0.008  0.00  0.00    +0.047 A 
ATOM      9  C   UNL     1      -1.218   1.749   0.017  0.00  0.00    +0.019 A 
ATOM     10  C   UNL     1      -1.247   3.135   0.030  0.00  0.00    +0.019 A 
ATOM     11  C   UNL     1      -0.072   3.855   0.022  0.00  0.00    +0.032 A 
ATOM     12  C   UNL     1       1.155   3.186   0.008  0.00  0.00    +0.080 A 
ATOM     13 BR   UNL     1      -2.907   4.041   0.050  0.00  0.00    -0.050 Br
BRANCH   7  14
ATOM     14  O   UNL     1       2.365   1.124  -0.015  0.00  0.00    -0.491 OA
BRANCH  14  16
ATOM     15  C   UNL     1       3.734  -0.867  -0.038  0.00  0.00    +0.048 C 
ATOM     16  C   UNL     1       2.312  -0.304  -0.022  0.00  0.00    +0.226 C 
ENDBRANCH  14  16
ENDBRANCH   7  14
ENDBRANCH   3  12
ENDBRANCH   1   5
BRANCH   1  17
ATOM     17  N   UNL     1       3.512   7.343   0.007  0.00  0.00    -0.245 N 
ATOM     18  H   UNL     1       4.342   7.846   0.003  0.00  0.00    +0.172 HD
BRANCH  17  19
ATOM     19  N   UNL     1       2.284   8.018   0.022  0.00  0.00    -0.232 N 
ATOM     20  C   UNL     1       2.256   9.365   0.029  0.00  0.00    +0.267 C 
ATOM     21  O   UNL     1       3.293   9.994   0.023  0.00  0.00    -0.271 OA
ATOM     22  H   UNL     1       1.455   7.515   0.027  0.00  0.00    +0.173 HD
BRANCH  20  23
ATOM     23  C   UNL     1       0.935  10.091   0.044  0.00  0.00    +0.326 C 
BRANCH  23  24
ATOM     24  O   UNL     1       1.167  11.501   0.050  0.00  0.00    -0.482 OA
BRANCH  24  25
ATOM     25  C   UNL     1       0.072  12.306   0.063  0.00  0.00    +0.124 A 
ATOM     26  C   UNL     1      -1.199  11.750   0.072  0.00  0.00    +0.047 A 
ATOM     27  C   UNL     1      -2.311  12.570   0.087  0.00  0.00    +0.023 A 
ATOM     28  C   UNL     1      -2.157  13.945   0.093  0.00  0.00    +0.041 A 
ATOM     29  C   UNL     1      -0.890  14.502   0.084  0.00  0.00    +0.027 A 
ATOM     30  C   UNL     1       0.224  13.685   0.075  0.00  0.00    -0.007 A 
ATOM     31  C   UNL     1       1.603  14.292   0.072  0.00  0.00    +0.047 C 
ATOM     32 CL   UNL     1      -3.556  14.974   0.111  0.00  0.00    -0.084 Cl
ENDBRANCH  24  25
ENDBRANCH  23  24
ENDBRANCH  20  23
ENDBRANCH  17  19
ENDBRANCH   1  17
TORSDOF 9
