REMARK  Name = ZINC06550318
REMARK  3 active torsions:
REMARK  status: ('A' for Active; 'I' for Inactive)
REMARK    1  A    between atoms: C_6  and  C_7
REMARK    2  A    between atoms: C_10  and  C_22
REMARK    3  A    between atoms: C_15  and  C_17
REMARK                            x       y       z     vdW  Elec       q    Type
REMARK                         _______ _______ _______ _____ _____    ______ ____
ROOT
ATOM      1  C   UNL     1      -1.293  -0.775   0.010  0.00  0.00    +0.106 C 
ATOM      2  C   UNL     1      -1.589  -1.268   1.431  0.00  0.00    +0.058 C 
ATOM      3  C   UNL     1      -2.933  -2.006   1.454  0.00  0.00    +0.143 C 
ATOM      4  N   UNL     1      -2.956  -2.980   0.363  0.00  0.00    -0.225 N 
ATOM      5  C   UNL     1      -2.133  -2.940  -0.713  0.00  0.00    +0.215 A 
ATOM      6  N   UNL     1      -2.422  -3.956  -1.481  0.00  0.00    -0.190 NA
ATOM      7  C   UNL     1      -3.418  -4.660  -0.933  0.00  0.00    +0.256 A 
ATOM      8  N   UNL     1      -3.774  -4.098   0.195  0.00  0.00    -0.144 NA
ATOM      9  N   UNL     1      -1.180  -1.943  -0.884  0.00  0.00    -0.307 N 
ATOM     10  H   UNL     1      -0.479  -2.012  -1.551  0.00  0.00    +0.149 HD
ENDROOT
BRANCH   1  16
ATOM     11  C   UNL     1      -0.017   1.378   0.010  0.00  0.00    +0.008 A 
ATOM     12  C   UNL     1       1.170   2.086   0.002  0.00  0.00    +0.038 A 
ATOM     13  C   UNL     1       2.379   1.410  -0.013  0.00  0.00    +0.123 A 
ATOM     14  C   UNL     1       2.396   0.026  -0.021  0.00  0.00    +0.038 A 
ATOM     15  C   UNL     1       1.208  -0.680  -0.013  0.00  0.00    +0.008 A 
ATOM     16  C   UNL     1       0.002  -0.004   0.002  0.00  0.00    -0.027 A 
ATOM     17  F   UNL     1       3.540   2.101  -0.021  0.00  0.00    -0.205 F 
ENDBRANCH   1  16
BRANCH   3  18
ATOM     18  C   UNL     1      -3.098  -2.717   2.772  0.00  0.00    -0.023 A 
ATOM     19  C   UNL     1      -2.180  -3.676   3.159  0.00  0.00    +0.007 A 
ATOM     20  C   UNL     1      -2.330  -4.328   4.368  0.00  0.00    +0.020 A 
ATOM     21  C   UNL     1      -3.399  -4.021   5.192  0.00  0.00    +0.041 A 
ATOM     22  C   UNL     1      -4.316  -3.061   4.804  0.00  0.00    +0.020 A 
ATOM     23  C   UNL     1      -4.162  -2.405   3.597  0.00  0.00    +0.007 A 
ATOM     24 CL   UNL     1      -3.588  -4.840   6.711  0.00  0.00    -0.084 Cl
ENDBRANCH   3  18
BRANCH   7  25
ATOM     25  C   UNL     1      -4.034  -5.904  -1.520  0.00  0.00    +0.454 C 
ATOM     26  F   UNL     1      -3.202  -6.405  -2.528  0.00  0.00    -0.163 F 
ATOM     27  F   UNL     1      -4.184  -6.868  -0.518  0.00  0.00    -0.163 F 
ATOM     28  F   UNL     1      -5.286  -5.594  -2.061  0.00  0.00    -0.163 F 
ENDBRANCH   7  25
TORSDOF 3
