REMARK  Name = ZINC40051553
REMARK  6 active torsions:
REMARK  status: ('A' for Active; 'I' for Inactive)
REMARK    1  A    between atoms: C_1  and  C_2
REMARK    2  A    between atoms: C_5  and  N_9
REMARK    3  A    between atoms: C_6  and  C_8
REMARK    4  A    between atoms: C_19  and  N_20
REMARK    5  A    between atoms: N_20  and  C_21
REMARK    6  A    between atoms: C_26  and  C_27
REMARK                            x       y       z     vdW  Elec       q    Type
REMARK                         _______ _______ _______ _____ _____    ______ ____
ROOT
ATOM      1  N   UNL     1       0.137  -4.212   0.738  0.00  0.00    -0.202 N 
ATOM      2  C   UNL     1      -1.049  -4.838   0.666  0.00  0.00    +0.258 C 
ATOM      3  O   UNL     1      -2.070  -4.210   0.875  0.00  0.00    -0.269 OA
ATOM      4  C   UNL     1      -1.134  -6.267   0.338  0.00  0.00    +0.046 A 
ATOM      5  C   UNL     1      -2.363  -6.923   0.261  0.00  0.00    +0.014 A 
ATOM      6  C   UNL     1      -2.401  -8.265  -0.050  0.00  0.00    +0.001 A 
ATOM      7  C   UNL     1      -1.230  -8.971  -0.287  0.00  0.00    +0.001 A 
ATOM      8  C   UNL     1      -0.004  -8.341  -0.215  0.00  0.00    +0.009 A 
ATOM      9  C   UNL     1       0.054  -6.988   0.097  0.00  0.00    +0.000 A 
ATOM     10  C   UNL     1       1.340  -6.265   0.186  0.00  0.00    +0.059 C 
ATOM     11  C   UNL     1       2.535  -6.913  -0.039  0.00  0.00    +0.085 C 
ATOM     12  C   UNL     1       1.306  -4.835   0.515  0.00  0.00    +0.259 C 
ATOM     13  O   UNL     1       2.347  -4.209   0.591  0.00  0.00    -0.269 OA
ENDROOT
BRANCH   1  18
ATOM     14  C   UNL     1       0.212   1.316   2.017  0.00  0.00    +0.044 C 
ATOM     15  C   UNL     1       0.192  -0.152   1.677  0.00  0.00    -0.050 A 
ATOM     16  C   UNL     1       0.106  -0.553   0.357  0.00  0.00    +0.005 A 
ATOM     17  C   UNL     1       0.088  -1.898   0.042  0.00  0.00    +0.024 A 
ATOM     18  C   UNL     1       0.156  -2.847   1.054  0.00  0.00    +0.047 A 
ATOM     19  C   UNL     1       0.243  -2.441   2.378  0.00  0.00    -0.028 A 
ATOM     20  C   UNL     1       0.266  -1.094   2.686  0.00  0.00    +0.008 A 
ATOM     21  C   UNL     1       0.317  -3.467   3.479  0.00  0.00    +0.046 C 
ENDBRANCH   1  18
BRANCH  11  22
ATOM     22  N   UNL     1       3.687  -6.198  -0.138  0.00  0.00    -0.320 N 
ATOM     23  H   UNL     1       3.659  -5.228  -0.132  0.00  0.00    +0.152 HD
BRANCH  22  24
ATOM     24  C   UNL     1       4.913  -6.860  -0.248  0.00  0.00    +0.037 A 
ATOM     25  C   UNL     1       4.955  -8.249  -0.262  0.00  0.00    +0.023 A 
ATOM     26  C   UNL     1       6.167  -8.900  -0.372  0.00  0.00    +0.002 A 
ATOM     27  C   UNL     1       7.339  -8.172  -0.467  0.00  0.00    +0.000 A 
ATOM     28  C   UNL     1       7.301  -6.790  -0.453  0.00  0.00    +0.008 A 
ATOM     29  C   UNL     1       6.091  -6.132  -0.349  0.00  0.00    +0.006 A 
BRANCH  29  30
ATOM     30  C   UNL     1       6.050  -4.625  -0.340  0.00  0.00    +0.214 C 
ATOM     31  C   UNL     1       5.580  -4.160  -1.706  0.00  0.00    +0.247 C 
ATOM     32  O   UNL     1       4.513  -4.505  -2.167  0.00  0.00    -0.273 OA
ATOM     33  N   UNL     1       6.418  -3.339  -2.384  0.00  0.00    -0.263 N 
ATOM     34  C   UNL     1       7.591  -2.981  -1.838  0.00  0.00    +0.178 C 
ATOM     35  N   UNL     1       8.011  -3.386  -0.636  0.00  0.00    -0.123 NA
ATOM     36  N   UNL     1       7.365  -4.136   0.104  0.00  0.00    -0.299 N 
ATOM     37  S   UNL     1       8.611  -1.941  -2.737  0.00  0.00    -0.015 S 
ATOM     38  H   UNL     1       7.721  -4.398   0.968  0.00  0.00    +0.181 HD
ATOM     39  H   UNL     1       6.170  -3.010  -3.263  0.00  0.00    +0.157 HD
ENDBRANCH  29  30
ENDBRANCH  22  24
ENDBRANCH  11  22
TORSDOF 4
