REMARK  Name = ZINC02725254
REMARK  6 active torsions:
REMARK  status: ('A' for Active; 'I' for Inactive)
REMARK    1  A    between atoms: C_1  and  C_2
REMARK    2  A    between atoms: C_2  and  O_3
REMARK    3  A    between atoms: O_3  and  C_4
REMARK    4  A    between atoms: C_9  and  N_10
REMARK    5  A    between atoms: N_13  and  C_14
REMARK    6  A    between atoms: C_14  and  C_23
REMARK                            x       y       z     vdW  Elec       q    Type
REMARK                         _______ _______ _______ _____ _____    ______ ____
ROOT
ATOM      1  N   UNL     1       0.960  -0.677   3.487  0.00  0.00    -0.266 N 
ATOM      2  C   UNL     1       0.976  -0.201   2.227  0.00  0.00    +0.310 C 
ATOM      3  O   UNL     1       1.873   0.537   1.867  0.00  0.00    -0.252 OA
ATOM      4  N   UNL     1      -0.004  -0.541   1.366  0.00  0.00    -0.220 N 
ATOM      5  H   UNL     1       0.204  -1.198   3.800  0.00  0.00    +0.156 HD
ATOM      6  H   UNL     1      -0.719  -1.129   1.653  0.00  0.00    +0.158 HD
ENDROOT
BRANCH   4   7
ATOM      7  C   UNL     1       0.013  -0.023  -0.004  0.00  0.00    +0.436 C 
ATOM      8  O   UNL     1      -0.018   1.417  -0.001  0.00  0.00    -0.426 OA
ATOM      9  C   UNL     1       1.289   1.810  -0.007  0.00  0.00    +0.169 A 
ATOM     10  C   UNL     1       1.886   3.022   0.301  0.00  0.00    +0.049 A 
ATOM     11  C   UNL     1       3.259   3.159   0.212  0.00  0.00    +0.004 A 
ATOM     12  C   UNL     1       4.040   2.089  -0.182  0.00  0.00    +0.004 A 
ATOM     13  C   UNL     1       3.451   0.877  -0.492  0.00  0.00    +0.049 A 
ATOM     14  C   UNL     1       2.076   0.732  -0.405  0.00  0.00    +0.169 A 
ATOM     15  O   UNL     1       1.262  -0.336  -0.649  0.00  0.00    -0.426 OA
BRANCH   7  16
ATOM     16  C   UNL     1      -1.162  -0.584  -0.807  0.00  0.00    +0.490 C 
ATOM     17  F   UNL     1      -1.095  -0.113  -2.123  0.00  0.00    -0.162 F 
ATOM     18  F   UNL     1      -1.101  -1.982  -0.809  0.00  0.00    -0.162 F 
ATOM     19  F   UNL     1      -2.365  -0.171  -0.225  0.00  0.00    -0.162 F 
ENDBRANCH   7  16
ENDBRANCH   4   7
BRANCH   1  25
ATOM     20  C   UNL     1       1.849  -0.438   5.727  0.00  0.00    +0.142 A 
ATOM     21  C   UNL     1       2.917  -0.184   6.572  0.00  0.00    +0.047 A 
ATOM     22  C   UNL     1       4.167   0.086   6.045  0.00  0.00    +0.004 A 
ATOM     23  C   UNL     1       4.354   0.103   4.675  0.00  0.00    +0.002 A 
ATOM     24  C   UNL     1       3.295  -0.155   3.825  0.00  0.00    +0.027 A 
ATOM     25  C   UNL     1       2.037  -0.421   4.347  0.00  0.00    +0.077 A 
BRANCH  20  26
ATOM     26  O   UNL     1       0.620  -0.705   6.244  0.00  0.00    -0.490 OA
BRANCH  26  28
ATOM     27  C   UNL     1      -0.944  -1.023   8.059  0.00  0.00    +0.048 C 
ATOM     28  C   UNL     1       0.501  -0.706   7.668  0.00  0.00    +0.226 C 
ENDBRANCH  26  28
ENDBRANCH  20  26
ENDBRANCH   1  25
TORSDOF 5
