REMARK  Name = ZINC36971075
REMARK  7 active torsions:
REMARK  status: ('A' for Active; 'I' for Inactive)
REMARK    1  A    between atoms: C_1  and  C_2
REMARK    2  A    between atoms: C_5  and  C_9
REMARK    3  A    between atoms: C_7  and  C_8
REMARK    4  A    between atoms: C_9  and  C_11
REMARK    5  A    between atoms: C_9  and  N_12
REMARK    6  A    between atoms: N_12  and  C_13
REMARK    7  A    between atoms: C_16  and  N_20
REMARK                            x       y       z     vdW  Elec       q    Type
REMARK                         _______ _______ _______ _____ _____    ______ ____
ROOT
ATOM      1  N   UNL     1      -0.828  -4.769  -1.077  0.00  0.00    -0.336 N 
ATOM      2  H   UNL     1      -1.024  -4.212  -1.846  0.00  0.00    +0.147 HD
ENDROOT
BRANCH   1   3
ATOM      3  C   UNL     1      -1.391  -6.044  -0.977  0.00  0.00    +0.046 A 
ATOM      4  C   UNL     1      -1.115  -6.842   0.126  0.00  0.00    +0.026 A 
ATOM      5  C   UNL     1      -1.674  -8.102   0.222  0.00  0.00    +0.034 A 
ATOM      6  C   UNL     1      -2.507  -8.569  -0.778  0.00  0.00    +0.128 A 
ATOM      7  C   UNL     1      -2.784  -7.778  -1.877  0.00  0.00    +0.054 A 
ATOM      8  C   UNL     1      -2.233  -6.515  -1.978  0.00  0.00    +0.064 A 
ATOM      9 CL   UNL     1      -2.587  -5.519  -3.355  0.00  0.00    -0.082 Cl
BRANCH   6  10
ATOM     10  N   UNL     1      -3.103  -9.920  -0.671  0.00  0.00    +0.056 N 
ATOM     11  O   UNL     1      -2.861 -10.613   0.290  0.00  0.00    -0.126 OA
ATOM     12  O   UNL     1      -3.831 -10.330  -1.544  0.00  0.00    -0.126 OA
ENDBRANCH   6  10
ENDBRANCH   1   3
BRANCH   1  13
ATOM     13  C   UNL     1       0.059  -4.275  -0.021  0.00  0.00    +0.098 C 
ATOM     14  C   UNL     1       1.485  -4.766  -0.282  0.00  0.00    +0.033 C 
BRANCH  13  19
ATOM     15  C   UNL     1      -0.018   1.503   0.010  0.00  0.00    +0.044 C 
ATOM     16  C   UNL     1       0.002  -0.004   0.002  0.00  0.00    -0.048 A 
ATOM     17  C   UNL     1       0.006  -0.689  -1.199  0.00  0.00    +0.004 A 
ATOM     18  C   UNL     1       0.025  -2.071  -1.207  0.00  0.00    +0.006 A 
ATOM     19  C   UNL     1       0.040  -2.768  -0.013  0.00  0.00    -0.027 A 
ATOM     20  C   UNL     1       0.037  -2.084   1.188  0.00  0.00    +0.009 A 
ATOM     21  C   UNL     1       0.023  -0.702   1.195  0.00  0.00    -0.047 A 
ATOM     22  C   UNL     1       0.025   0.045   2.504  0.00  0.00    +0.044 C 
ENDBRANCH  13  19
ENDBRANCH   1  13
TORSDOF 4
