REMARK  Name = ZINC02111788
REMARK  11 active torsions:
REMARK  status: ('A' for Active; 'I' for Inactive)
REMARK    1  A    between atoms: C_1  and  C_2
REMARK    2  A    between atoms: C_2  and  C_4
REMARK    3  A    between atoms: C_2  and  N_10
REMARK    4  A    between atoms: C_4  and  C_5
REMARK    5  A    between atoms: C_5  and  C_6
REMARK    6  A    between atoms: C_6  and  C_7
REMARK    7  A    between atoms: C_7  and  C_8
REMARK    8  A    between atoms: C_7  and  C_9
REMARK    9  A    between atoms: C_11  and  C_13
REMARK   10  A    between atoms: C_18  and  N_19
REMARK   11  A    between atoms: C_22  and  C_38
REMARK                            x       y       z     vdW  Elec       q    Type
REMARK                         _______ _______ _______ _____ _____    ______ ____
ROOT
ATOM      1  N   UNL     1       4.864  -0.846  -1.313  0.00  0.00    -0.191 N 
ATOM      2  C   UNL     1       5.190  -1.719  -0.334  0.00  0.00    +0.257 C 
ATOM      3  O   UNL     1       4.957  -2.908  -0.305  0.00  0.00    -0.272 OA
ATOM      4  C   UNL     1       5.907  -0.901   0.714  0.00  0.00    +0.153 C 
ATOM      5  C   UNL     1       7.295  -1.434   0.980  0.00  0.00    +0.053 A 
ATOM      6  C   UNL     1       8.407  -0.671   0.876  0.00  0.00    -0.015 A 
ATOM      7  C   UNL     1       9.528  -1.527   1.222  0.00  0.00    +0.003 A 
ATOM      8  C   UNL     1      10.904  -1.292   1.301  0.00  0.00    +0.010 A 
ATOM      9  C   UNL     1      11.694  -2.354   1.666  0.00  0.00    +0.001 A 
ATOM     10  C   UNL     1      11.164  -3.603   1.946  0.00  0.00    +0.002 A 
ATOM     11  C   UNL     1       9.806  -3.862   1.878  0.00  0.00    +0.026 A 
ATOM     12  C   UNL     1       8.980  -2.802   1.510  0.00  0.00    +0.047 A 
ATOM     13  N   UNL     1       7.628  -2.708   1.351  0.00  0.00    -0.356 N 
ATOM     14  H   UNL     1       6.998  -3.434   1.481  0.00  0.00    +0.166 HD
ATOM     15  C   UNL     1       8.463   0.776   0.458  0.00  0.00    +0.056 C 
ATOM     16  C   UNL     1       7.061   1.402   0.514  0.00  0.00    +0.115 C 
ATOM     17  N   UNL     1       6.107   0.400   0.034  0.00  0.00    -0.265 N 
ATOM     18  C   UNL     1       5.350   0.381  -1.063  0.00  0.00    +0.317 C 
ATOM     19  O   UNL     1       5.124   1.357  -1.752  0.00  0.00    -0.252 OA
ATOM     20  C   UNL     1       5.081  -0.763   1.995  0.00  0.00    +0.048 C 
ENDROOT
BRANCH   1  26
ATOM     21  C   UNL     1       2.722  -1.063  -2.429  0.00  0.00    +0.059 A 
ATOM     22  C   UNL     1       1.988  -1.394  -3.570  0.00  0.00    +0.015 A 
ATOM     23  C   UNL     1       2.639  -1.838  -4.701  0.00  0.00    +0.001 A 
ATOM     24  C   UNL     1       4.019  -1.957  -4.712  0.00  0.00    +0.002 A 
ATOM     25  C   UNL     1       4.757  -1.633  -3.591  0.00  0.00    +0.025 A 
ATOM     26  C   UNL     1       4.119  -1.179  -2.446  0.00  0.00    +0.058 A 
BRANCH  21  28
ATOM     27  N   UNL     1       0.688  -0.476  -1.203  0.00  0.00    -0.309 N 
ATOM     28  C   UNL     1       2.031  -0.587  -1.215  0.00  0.00    +0.246 C 
ATOM     29  O   UNL     1       2.674  -0.294  -0.225  0.00  0.00    -0.270 OA
ATOM     30  H   UNL     1       0.175  -0.710  -1.993  0.00  0.00    +0.149 HD
BRANCH  27  32
ATOM     31  C   UNL     1      -0.019   1.526   0.010  0.00  0.00    +0.028 C 
ATOM     32  C   UNL     1       0.002  -0.004   0.002  0.00  0.00    +0.070 C 
BRANCH  32  33
ATOM     33  C   UNL     1      -1.433  -0.534   0.013  0.00  0.00    +0.022 C 
BRANCH  33  34
ATOM     34  C   UNL     1      -1.413  -2.059   0.130  0.00  0.00    +0.002 C 
BRANCH  34  35
ATOM     35  C   UNL     1      -2.849  -2.589   0.141  0.00  0.00    +0.003 C 
BRANCH  35  36
ATOM     36  C   UNL     1      -2.829  -4.114   0.258  0.00  0.00    -0.017 C 
ATOM     37  C   UNL     1      -2.240  -4.514   1.613  0.00  0.00    +0.007 C 
ATOM     38  C   UNL     1      -4.256  -4.653   0.144  0.00  0.00    +0.007 C 
ENDBRANCH  35  36
ENDBRANCH  34  35
ENDBRANCH  33  34
ENDBRANCH  32  33
ENDBRANCH  27  32
ENDBRANCH  21  28
ENDBRANCH   1  26
TORSDOF 7
