REMARK  Name = ZINC15085831
REMARK  12 active torsions:
REMARK  status: ('A' for Active; 'I' for Inactive)
REMARK    1  A    between atoms: C_1  and  C_2
REMARK    2  A    between atoms: C_8  and  C_12
REMARK    3  A    between atoms: C_12  and  C_13
REMARK    4  A    between atoms: C_13  and  N_61
REMARK    5  A    between atoms: C_14  and  C_15
REMARK    6  A    between atoms: C_14  and  N_61
REMARK    7  A    between atoms: C_18  and  C_21
REMARK    8  A    between atoms: C_21  and  C_22
REMARK    9  A    between atoms: C_24  and  O_33
REMARK   10  A    between atoms: C_27  and  O_28
REMARK   11  A    between atoms: O_28  and  C_29
REMARK   12  A    between atoms: O_33  and  C_34
REMARK                            x       y       z     vdW  Elec       q    Type
REMARK                         _______ _______ _______ _____ _____    ______ ____
ROOT
ATOM      1  C   UNL     1      -6.423   0.256  -2.734  0.00  0.00    +0.044 C 
ATOM      2  N   UNL     1      -7.067  -0.073  -1.682  0.00  0.00    -0.096 NA
ATOM      3  O   UNL     1      -8.388  -0.500  -1.949  0.00  0.00    -0.390 OA
ATOM      4  C   UNL     1      -8.466  -0.819  -3.354  0.00  0.00    +0.214 C 
ATOM      5  C   UNL     1      -7.332   0.064  -3.933  0.00  0.00    +0.099 C 
ENDROOT
BRANCH   1   6
ATOM      6  C   UNL     1      -5.002   0.756  -2.777  0.00  0.00    -0.027 C 
BRANCH   6   7
ATOM      7  N   UNL     1      -4.466   0.806  -1.404  0.00  0.00    +0.383 N 
ATOM      8  H   UNL     1      -5.042   1.441  -0.839  0.00  0.00    -0.085 HD
ATOM      9  H   UNL     1      -4.492  -0.135  -0.995  0.00  0.00    -0.085 HD
BRANCH   7  10
ATOM     10  C   UNL     1      -3.073   1.293  -1.416  0.00  0.00    -0.077 C 
BRANCH  10  11
ATOM     11  C   UNL     1      -2.545   1.335   0.020  0.00  0.00    +0.018 C 
BRANCH  11  19
ATOM     12  C   UNL     1      -1.368   6.941   0.051  0.00  0.00    +0.044 C 
ATOM     13  C   UNL     1      -0.644   5.620   0.038  0.00  0.00    -0.050 A 
ATOM     14  C   UNL     1       0.744   5.595   0.024  0.00  0.00    +0.005 A 
ATOM     15  C   UNL     1       1.426   4.399   0.012  0.00  0.00    +0.026 A 
ATOM     16  C   UNL     1       0.719   3.200   0.012  0.00  0.00    +0.047 A 
ATOM     17  C   UNL     1      -0.687   3.230   0.026  0.00  0.00    +0.003 A 
ATOM     18  C   UNL     1      -1.358   4.455   0.039  0.00  0.00    +0.013 A 
ATOM     19  C   UNL     1      -1.122   1.831   0.017  0.00  0.00    -0.024 A 
ATOM     20  C   UNL     1      -0.013   1.076   0.008  0.00  0.00    +0.087 A 
ATOM     21  N   UNL     1       1.097   1.877   0.002  0.00  0.00    -0.360 N 
ATOM     22  H   UNL     1       2.013   1.559  -0.009  0.00  0.00    +0.165 HD
ENDBRANCH  11  19
ENDBRANCH  10  11
ENDBRANCH   7  10
ENDBRANCH   6   7
ENDBRANCH   1   6
BRANCH   4  23
ATOM     23  C   UNL     1      -9.822  -0.415  -3.934  0.00  0.00    +0.086 C 
BRANCH  23  24
ATOM     24  C   UNL     1     -10.904  -1.266  -3.322  0.00  0.00    +0.005 A 
ATOM     25  C   UNL     1     -11.340  -2.404  -3.976  0.00  0.00    +0.057 A 
ATOM     26  C   UNL     1     -12.331  -3.193  -3.413  0.00  0.00    +0.166 A 
ATOM     27  C   UNL     1     -12.898  -2.835  -2.195  0.00  0.00    +0.211 A 
ATOM     28  C   UNL     1     -12.464  -1.688  -1.541  0.00  0.00    +0.211 A 
ATOM     29  C   UNL     1     -11.465  -0.904  -2.108  0.00  0.00    +0.169 A 
ATOM     30  O   UNL     1     -13.167  -1.556  -0.377  0.00  0.00    -0.449 OA
ATOM     31  C   UNL     1     -13.746  -2.850  -0.129  0.00  0.00    +0.467 C 
ATOM     32  O   UNL     1     -13.874  -3.424  -1.443  0.00  0.00    -0.449 OA
BRANCH  29  33
ATOM     33  O   UNL     1     -11.037   0.219  -1.469  0.00  0.00    -0.491 OA
ATOM     34  C   UNL     1     -11.717   1.438  -1.776  0.00  0.00    +0.277 C 
ENDBRANCH  29  33
BRANCH  26  35
ATOM     35  O   UNL     1     -12.754  -4.315  -4.056  0.00  0.00    -0.491 OA
ATOM     36  C   UNL     1     -12.128  -4.623  -5.303  0.00  0.00    +0.277 C 
ENDBRANCH  26  35
ENDBRANCH  23  24
ENDBRANCH   4  23
TORSDOF 9
