REMARK  Name = ZINC13739472
REMARK  4 active torsions:
REMARK  status: ('A' for Active; 'I' for Inactive)
REMARK    1  A    between atoms: C_4  and  C_7
REMARK    2  A    between atoms: C_10  and  C_27
REMARK    3  A    between atoms: N_12  and  C_13
REMARK    4  A    between atoms: C_16  and  C_19
REMARK                            x       y       z     vdW  Elec       q    Type
REMARK                         _______ _______ _______ _____ _____    ______ ____
ROOT
ATOM      1  C   UNL     1       3.118   3.994  -1.278  0.00  0.00    +0.134 C 
ATOM      2  C   UNL     1       4.600   4.394  -1.419  0.00  0.00    +0.087 C 
ATOM      3  C   UNL     1       5.352   3.115  -1.128  0.00  0.00    +0.069 C 
ATOM      4  N   UNL     1       4.513   2.172  -0.867  0.00  0.00    -0.183 NA
ATOM      5  N   UNL     1       3.178   2.566  -0.930  0.00  0.00    -0.216 N 
ENDROOT
BRANCH   1   9
ATOM      6  C   UNL     1       1.052   4.558  -4.974  0.00  0.00    +0.000 A 
ATOM      7  C   UNL     1       0.872   5.455  -3.937  0.00  0.00    +0.000 A 
ATOM      8  C   UNL     1       1.540   5.272  -2.741  0.00  0.00    +0.005 A 
ATOM      9  C   UNL     1       2.389   4.193  -2.582  0.00  0.00    -0.025 A 
ATOM     10  C   UNL     1       2.574   3.300  -3.620  0.00  0.00    +0.005 A 
ATOM     11  C   UNL     1       1.901   3.479  -4.814  0.00  0.00    +0.000 A 
ENDBRANCH   1   9
BRANCH   5  12
ATOM     12  C   UNL     1       2.081   1.744  -0.697  0.00  0.00    +0.052 A 
ATOM     13  C   UNL     1       0.791   2.264  -0.786  0.00  0.00    +0.025 A 
ATOM     14  C   UNL     1      -0.289   1.460  -0.559  0.00  0.00    +0.010 A 
ATOM     15  C   UNL     1      -0.100   0.110  -0.235  0.00  0.00    -0.024 A 
ATOM     16  C   UNL     1       1.199  -0.409  -0.146  0.00  0.00    +0.010 A 
ATOM     17  C   UNL     1       2.274   0.402  -0.375  0.00  0.00    +0.025 A 
BRANCH  15  18
ATOM     18  C   UNL     1      -1.257  -0.757   0.011  0.00  0.00    +0.028 C 
ATOM     19  C   UNL     1      -2.328  -0.282   0.698  0.00  0.00    +0.077 C 
ATOM     20  C   UNL     1      -2.492   0.996   1.418  0.00  0.00    +0.256 C 
ATOM     21  O   UNL     1      -1.599   1.822   1.466  0.00  0.00    -0.269 OA
ATOM     22  N   UNL     1      -3.659   1.199   2.007  0.00  0.00    -0.270 N 
ATOM     23  C   UNL     1      -4.645   0.281   1.951  0.00  0.00    +0.118 C 
ATOM     24  S   UNL     1      -6.210   0.359   2.642  0.00  0.00    -0.027 S 
ATOM     25  S   UNL     1      -3.928  -1.030   0.975  0.00  0.00    -0.061 S 
ATOM     26  H   UNL     1      -3.808   2.026   2.491  0.00  0.00    +0.156 HD
ENDBRANCH  15  18
ENDBRANCH   5  12
BRANCH   3  27
ATOM     27  C   UNL     1       6.819   2.970  -1.136  0.00  0.00    -0.002 A 
ATOM     28  C   UNL     1       7.631   4.067  -1.434  0.00  0.00    +0.010 A 
ATOM     29  C   UNL     1       9.003   3.925  -1.435  0.00  0.00    +0.001 A 
ATOM     30  C   UNL     1       9.575   2.697  -1.151  0.00  0.00    +0.000 A 
ATOM     31  C   UNL     1       8.777   1.605  -0.860  0.00  0.00    +0.001 A 
ATOM     32  C   UNL     1       7.404   1.734  -0.850  0.00  0.00    +0.010 A 
ENDBRANCH   3  27
TORSDOF 4
