REMARK  Name = ZINC03425828
REMARK  7 active torsions:
REMARK  status: ('A' for Active; 'I' for Inactive)
REMARK    1  A    between atoms: C_3  and  O_26
REMARK    2  A    between atoms: C_6  and  C_7
REMARK    3  A    between atoms: N_9  and  N_10
REMARK    4  A    between atoms: C_11  and  C_13
REMARK    5  A    between atoms: C_14  and  C_15
REMARK    6  A    between atoms: C_20  and  O_21
REMARK    7  A    between atoms: O_21  and  C_22
REMARK                            x       y       z     vdW  Elec       q    Type
REMARK                         _______ _______ _______ _____ _____    ______ ____
ROOT
ATOM      1  N   UNL     1       1.178  -0.662  -0.013  0.00  0.00    -0.231 N 
ATOM      2  C   UNL     1       0.002  -0.004   0.002  0.00  0.00    +0.253 C 
ATOM      3  O   UNL     1      -1.044  -0.627   0.009  0.00  0.00    -0.269 OA
ATOM      4  H   UNL     1       2.012  -0.166  -0.018  0.00  0.00    +0.173 HD
ENDROOT
BRANCH   1   7
ATOM      5  C   UNL     1       2.373  -2.721  -0.035  0.00  0.00    +0.260 C 
ATOM      6  O   UNL     1       3.418  -2.099  -0.042  0.00  0.00    -0.269 OA
ATOM      7  N   UNL     1       1.197  -2.063  -0.021  0.00  0.00    -0.230 N 
ATOM      8  H   UNL     1       0.364  -2.559  -0.015  0.00  0.00    +0.173 HD
BRANCH   5  14
ATOM      9  C   UNL     1       1.194  -4.914  -0.030  0.00  0.00    +0.016 A 
ATOM     10  C   UNL     1       1.217  -6.290  -0.043  0.00  0.00    +0.046 A 
ATOM     11  C   UNL     1       2.431  -6.967  -0.059  0.00  0.00    +0.117 A 
ATOM     12  C   UNL     1       3.626  -6.258  -0.066  0.00  0.00    +0.046 A 
ATOM     13  C   UNL     1       3.612  -4.881  -0.059  0.00  0.00    +0.016 A 
ATOM     14  C   UNL     1       2.393  -4.197  -0.043  0.00  0.00    +0.038 A 
BRANCH  11  15
ATOM     15  O   UNL     1       2.449  -8.324  -0.067  0.00  0.00    -0.507 OA
ATOM     16  H   UNL     1       2.463  -8.722   0.814  0.00  0.00    +0.292 HD
ENDBRANCH  11  15
ENDBRANCH   5  14
ENDBRANCH   1   7
BRANCH   2  17
ATOM     17  C   UNL     1      -0.018   1.458   0.010  0.00  0.00    +0.069 C 
ATOM     18  C   UNL     1      -1.196   2.117   0.019  0.00  0.00    +0.017 C 
BRANCH  18  19
ATOM     19  C   UNL     1      -1.216   3.587   0.027  0.00  0.00    +0.018 A 
ATOM     20  C   UNL     1      -0.016   4.307   0.025  0.00  0.00    +0.026 A 
ATOM     21  C   UNL     1      -0.043   5.685   0.033  0.00  0.00    +0.019 A 
ATOM     22  C   UNL     1      -1.254   6.361   0.042  0.00  0.00    +0.019 A 
ATOM     23  C   UNL     1      -2.445   5.662   0.044  0.00  0.00    +0.047 A 
ATOM     24  C   UNL     1      -2.438   4.276   0.031  0.00  0.00    +0.134 A 
ATOM     25 BR   UNL     1       1.578   6.658   0.030  0.00  0.00    -0.050 Br
BRANCH  24  26
ATOM     26  O   UNL     1      -3.609   3.589   0.028  0.00  0.00    -0.434 OA
BRANCH  26  27
ATOM     27  C   UNL     1      -4.813   4.359   0.032  0.00  0.00    +0.541 C 
ATOM     28  F   UNL     1      -4.851   5.160   1.178  0.00  0.00    -0.166 F 
ATOM     29  F   UNL     1      -4.851   5.171  -1.107  0.00  0.00    -0.166 F 
ENDBRANCH  26  27
ENDBRANCH  24  26
ENDBRANCH  18  19
ENDBRANCH   2  17
TORSDOF 7
