REMARK  Name = ZINC10002838
REMARK  11 active torsions:
REMARK  status: ('A' for Active; 'I' for Inactive)
REMARK    1  A    between atoms: C_1  and  C_2
REMARK    2  A    between atoms: C_2  and  C_3
REMARK    3  A    between atoms: C_2  and  C_4
REMARK    4  A    between atoms: C_4  and  C_6
REMARK    5  A    between atoms: C_4  and  N_26
REMARK    6  A    between atoms: N_8  and  N_9
REMARK    7  A    between atoms: C_10  and  C_11
REMARK    8  A    between atoms: C_14  and  O_18
REMARK    9  A    between atoms: O_18  and  C_19
REMARK   10  A    between atoms: C_19  and  C_20
REMARK   11  A    between atoms: C_27  and  C_29
REMARK                            x       y       z     vdW  Elec       q    Type
REMARK                         _______ _______ _______ _____ _____    ______ ____
ROOT
ATOM      1  C   UNL     1       7.543  -0.008  -0.344  0.00  0.00    +0.253 C 
ATOM      2  O   UNL     1       7.254   1.078  -0.801  0.00  0.00    -0.272 OA
ATOM      3  N   UNL     1       8.820  -0.436  -0.378  0.00  0.00    -0.205 N 
ATOM      4  H   UNL     1       9.063  -1.271   0.052  0.00  0.00    +0.177 HD
ENDROOT
BRANCH   3   5
ATOM      5  N   UNL     1       9.797   0.325  -1.033  0.00  0.00    -0.188 NA
ATOM      6  C   UNL     1      11.027  -0.087  -1.066  0.00  0.00    +0.138 C 
BRANCH   6   7
ATOM      7  C   UNL     1      12.055   0.714  -1.756  0.00  0.00    -0.004 A 
ATOM      8  C   UNL     1      11.705   1.914  -2.381  0.00  0.00    +0.013 A 
ATOM      9  C   UNL     1      12.669   2.662  -3.021  0.00  0.00    +0.047 A 
ATOM     10  C   UNL     1      13.986   2.220  -3.054  0.00  0.00    +0.135 A 
ATOM     11  C   UNL     1      14.337   1.025  -2.439  0.00  0.00    +0.060 A 
ATOM     12  C   UNL     1      13.380   0.273  -1.792  0.00  0.00    +0.028 A 
ATOM     13 BR   UNL     1      16.131   0.429  -2.489  0.00  0.00    -0.046 Br
BRANCH  10  14
ATOM     14  O   UNL     1      14.932   2.958  -3.691  0.00  0.00    -0.486 OA
BRANCH  14  15
ATOM     15  C   UNL     1      14.502   4.176  -4.303  0.00  0.00    +0.264 C 
BRANCH  15  16
ATOM     16  C   UNL     1      15.680   4.853  -4.955  0.00  0.00    -0.010 A 
ATOM     17  C   UNL     1      16.441   5.758  -4.239  0.00  0.00    +0.007 A 
ATOM     18  C   UNL     1      17.524   6.375  -4.836  0.00  0.00    +0.000 A 
ATOM     19  C   UNL     1      17.839   6.096  -6.153  0.00  0.00    +0.000 A 
ATOM     20  C   UNL     1      17.075   5.196  -6.871  0.00  0.00    +0.000 A 
ATOM     21  C   UNL     1      15.995   4.574  -6.272  0.00  0.00    +0.007 A 
ENDBRANCH  15  16
ENDBRANCH  14  15
ENDBRANCH  10  14
ENDBRANCH   6   7
ENDBRANCH   3   5
BRANCH   1  22
ATOM     22  C   UNL     1       6.472  -0.879   0.262  0.00  0.00    +0.163 C 
BRANCH  22  23
ATOM     23  N   UNL     1       5.157  -0.425  -0.196  0.00  0.00    -0.300 N 
ATOM     24  C   UNL     1       4.119  -1.285  -0.226  0.00  0.00    +0.245 C 
ATOM     25  O   UNL     1       4.276  -2.438   0.128  0.00  0.00    -0.270 OA
ATOM     26  H   UNL     1       5.032   0.495  -0.478  0.00  0.00    +0.150 HD
BRANCH  24  27
ATOM     27  C   UNL     1       2.792  -0.827  -0.688  0.00  0.00    +0.037 A 
ATOM     28  C   UNL     1       1.716  -1.715  -0.719  0.00  0.00    +0.013 A 
ATOM     29  C   UNL     1       0.479  -1.281  -1.151  0.00  0.00    +0.001 A 
ATOM     30  C   UNL     1       0.305   0.031  -1.552  0.00  0.00    +0.000 A 
ATOM     31  C   UNL     1       1.367   0.917  -1.523  0.00  0.00    +0.001 A 
ATOM     32  C   UNL     1       2.609   0.496  -1.093  0.00  0.00    +0.013 A 
ENDBRANCH  24  27
ENDBRANCH  22  23
BRANCH  22  34
ATOM     33  C   UNL     1       6.211   0.642   2.227  0.00  0.00    +0.009 C 
ATOM     34  C   UNL     1       6.541  -0.786   1.787  0.00  0.00    +0.012 C 
ATOM     35  C   UNL     1       5.531  -1.755   2.404  0.00  0.00    +0.009 C 
ENDBRANCH  22  34
ENDBRANCH   1  22
TORSDOF 9
