REMARK  Name = ZINC02131572
REMARK  8 active torsions:
REMARK  status: ('A' for Active; 'I' for Inactive)
REMARK    1  A    between atoms: C_1  and  C_2
REMARK    2  A    between atoms: C_2  and  CA_3
REMARK    3  A    between atoms: CA_3  and  C_5
REMARK    4  A    between atoms: CA_3  and  N_7
REMARK    5  A    between atoms: C_8  and  C_10
REMARK    6  A    between atoms: C_10  and  C_11
REMARK    7  A    between atoms: C_12  and  C_32
REMARK    8  A    between atoms: C_24  and  C_25
REMARK                            x       y       z     vdW  Elec       q    Type
REMARK                         _______ _______ _______ _____ _____    ______ ____
ROOT
ATOM      1  C   UNL     1      -0.005  -0.695  -1.166  0.00  0.00    +0.049 A 
ATOM      2  C   UNL     1       0.002  -0.004   0.002  0.00  0.00    -0.029 A 
ATOM      3  C   UNL     1       0.024  -0.764   1.256  0.00  0.00    +0.022 A 
ATOM      4  C   UNL     1       0.026  -0.108   2.488  0.00  0.00    +0.024 A 
ATOM      5  C   UNL     1       0.047  -0.856   3.654  0.00  0.00    +0.029 A 
ATOM      6  C   UNL     1       0.066  -2.264   3.602  0.00  0.00    +0.139 A 
ATOM      7  C   UNL     1       0.064  -2.909   2.374  0.00  0.00    +0.093 A 
ATOM      8  C   UNL     1       0.043  -2.172   1.202  0.00  0.00    +0.143 A 
ATOM      9  O   UNL     1       0.040  -2.796   0.003  0.00  0.00    -0.422 OA
ATOM     10  C   UNL     1       0.020  -2.106  -1.147  0.00  0.00    +0.341 A 
ATOM     11  O   UNL     1       0.018  -2.712  -2.203  0.00  0.00    -0.245 OA
ATOM     12  O   UNL     1       0.083  -2.713   4.874  0.00  0.00    -0.462 OA
ATOM     13  C   UNL     1       0.076  -1.695   5.750  0.00  0.00    +0.204 A 
ATOM     14  C   UNL     1       0.055  -0.515   5.090  0.00  0.00    +0.028 A 
ATOM     15  C   UNL     1      -0.018   1.503   0.010  0.00  0.00    +0.045 C 
ENDROOT
BRANCH  14  16
ATOM     16  C   UNL     1       0.041   0.842   5.687  0.00  0.00    -0.014 A 
ATOM     17  C   UNL     1       0.951   1.805   5.254  0.00  0.00    +0.010 A 
ATOM     18  C   UNL     1       0.931   3.068   5.810  0.00  0.00    +0.016 A 
ATOM     19  C   UNL     1       0.016   3.377   6.801  0.00  0.00    +0.018 A 
ATOM     20  C   UNL     1      -0.887   2.422   7.238  0.00  0.00    +0.016 A 
ATOM     21  C   UNL     1      -0.879   1.158   6.686  0.00  0.00    +0.010 A 
ATOM     22 BR   UNL     1      -0.001   5.108   7.562  0.00  0.00    -0.050 Br
ENDBRANCH  14  16
BRANCH   1  23
ATOM     23  C   UNL     1      -0.034   0.043  -2.480  0.00  0.00    +0.138 C 
BRANCH  23  25
ATOM     24  N   UNL     1       1.597   0.960  -4.097  0.00  0.00    -0.302 N 
ATOM     25  C   UNL     1       1.377   0.308  -2.938  0.00  0.00    +0.218 C 
ATOM     26  O   UNL     1       2.313  -0.065  -2.265  0.00  0.00    -0.275 OA
ATOM     27  H   UNL     1       0.848   1.259  -4.636  0.00  0.00    +0.150 HD
BRANCH  24  28
ATOM     28  CA  UNL     1       2.969   1.218  -4.543  0.00  0.00    +0.186 C 
BRANCH  28  29
ATOM     29  C   UNL     1       2.990   1.372  -6.042  0.00  0.00    +0.376 C 
ATOM     30  O   UNL     1       1.964   1.275  -6.673  0.00  0.00    -0.244 OA
ATOM     31  OXT UNL     1       4.148   1.615  -6.675  0.00  0.00    -0.244 OA
ENDBRANCH  28  29
BRANCH  28  33
ATOM     32  C   UNL     1       3.580   2.305  -2.377  0.00  0.00    +0.006 C 
ATOM     33  C   UNL     1       3.484   2.503  -3.891  0.00  0.00    +0.030 C 
ENDBRANCH  28  33
ENDBRANCH  24  28
ENDBRANCH  23  25
ENDBRANCH   1  23
TORSDOF 6
