REMARK  Name = ZINC39667133
REMARK  7 active torsions:
REMARK  status: ('A' for Active; 'I' for Inactive)
REMARK    1  A    between atoms: C_1  and  C_2
REMARK    2  A    between atoms: C_5  and  C_9
REMARK    3  A    between atoms: C_6  and  C_8
REMARK    4  A    between atoms: C_9  and  C_10
REMARK    5  A    between atoms: C_10  and  N_11
REMARK    6  A    between atoms: C_12  and  C_14
REMARK    7  A    between atoms: C_25  and  C_27
REMARK                            x       y       z     vdW  Elec       q    Type
REMARK                         _______ _______ _______ _____ _____    ______ ____
ROOT
ATOM      1  C   UNL     1      -2.457  -8.541   0.185  0.00  0.00    +0.100 C 
ATOM      2  C   UNL     1      -1.576  -9.039   1.353  0.00  0.00    +0.121 C 
ATOM      3  N   UNL     1      -2.530  -9.295   2.458  0.00  0.00    -0.297 N 
ATOM      4  C   UNL     1      -3.712  -9.894   1.794  0.00  0.00    +0.115 C 
ATOM      5  C   UNL     1      -3.857  -9.107   0.477  0.00  0.00    -0.004 C 
ATOM      6  C   UNL     1      -4.861  -7.971   0.650  0.00  0.00    -0.010 C 
ATOM      7  C   UNL     1      -6.255  -8.559   0.883  0.00  0.00    -0.082 C 
ATOM      8  N   UNL     1      -6.630  -9.400  -0.260  0.00  0.00    +0.379 N 
ATOM      9  C   UNL     1      -5.714 -10.543  -0.364  0.00  0.00    -0.082 C 
ATOM     10  C   UNL     1      -4.296 -10.038  -0.649  0.00  0.00    -0.010 C 
ATOM     11  C   UNL     1      -2.360  -9.040   3.771  0.00  0.00    +0.260 C 
ATOM     12  O   UNL     1      -1.369  -8.454   4.152  0.00  0.00    -0.271 OA
ATOM     13  H   UNL     1      -7.572  -9.738  -0.133  0.00  0.00    -0.086 HD
ATOM     14  H   UNL     1      -6.582  -8.855  -1.108  0.00  0.00    -0.086 HD
ENDROOT
BRANCH  11  15
ATOM     15  C   UNL     1      -3.402  -9.484   4.765  0.00  0.00    +0.296 C 
ATOM     16  C   UNL     1      -3.401 -11.015   4.867  0.00  0.00    +0.283 C 
ATOM     17  O   UNL     1      -4.390 -11.401   5.828  0.00  0.00    -0.484 OA
ATOM     18  C   UNL     1      -4.401 -10.715   7.003  0.00  0.00    +0.162 A 
ATOM     19  C   UNL     1      -5.063 -11.251   8.098  0.00  0.00    +0.049 A 
ATOM     20  C   UNL     1      -5.085 -10.564   9.297  0.00  0.00    +0.004 A 
ATOM     21  C   UNL     1      -4.448  -9.342   9.409  0.00  0.00    +0.004 A 
ATOM     22  C   UNL     1      -3.786  -8.803   8.322  0.00  0.00    +0.049 A 
ATOM     23  C   UNL     1      -3.758  -9.488   7.116  0.00  0.00    +0.163 A 
ATOM     24  O   UNL     1      -3.095  -8.948   6.057  0.00  0.00    -0.473 OA
ENDBRANCH  11  15
BRANCH   1  26
ATOM     25  N   UNL     1      -2.650  -6.382  -1.007  0.00  0.00    -0.315 N 
ATOM     26  C   UNL     1      -2.494  -7.035   0.162  0.00  0.00    +0.218 C 
ATOM     27  O   UNL     1      -2.385  -6.409   1.196  0.00  0.00    -0.275 OA
ATOM     28  H   UNL     1      -2.738  -6.882  -1.833  0.00  0.00    +0.149 HD
BRANCH  25  29
ATOM     29  C   UNL     1      -2.687  -4.918  -1.029  0.00  0.00    +0.109 C 
BRANCH  29  30
ATOM     30  C   UNL     1      -2.871  -4.434  -2.469  0.00  0.00    +0.054 C 
BRANCH  30  35
ATOM     31  C   UNL     1      -3.014   1.342  -2.554  0.00  0.00    +0.044 C 
ATOM     32  C   UNL     1      -2.977  -0.164  -2.532  0.00  0.00    -0.050 A 
ATOM     33  C   UNL     1      -4.156  -0.884  -2.484  0.00  0.00    +0.003 A 
ATOM     34  C   UNL     1      -4.122  -2.266  -2.464  0.00  0.00    +0.004 A 
ATOM     35  C   UNL     1      -2.908  -2.928  -2.492  0.00  0.00    -0.043 A 
ATOM     36  C   UNL     1      -1.729  -2.208  -2.541  0.00  0.00    -0.047 A 
ATOM     37  C   UNL     1      -1.764  -0.826  -2.566  0.00  0.00    +0.007 A 
ATOM     38  C   UNL     1      -0.407  -2.929  -2.571  0.00  0.00    +0.044 C 
ENDBRANCH  30  35
ENDBRANCH  29  30
ENDBRANCH  25  29
ENDBRANCH   1  26
TORSDOF 5
