REMARK  Name = ZINC64131532
REMARK  13 active torsions:
REMARK  status: ('A' for Active; 'I' for Inactive)
REMARK    1  A    between atoms: C_1  and  C_2
REMARK    2  A    between atoms: C_7  and  C_8
REMARK    3  A    between atoms: C_8  and  C_20
REMARK    4  A    between atoms: N_12  and  C_15
REMARK    5  A    between atoms: C_15  and  C_16
REMARK    6  A    between atoms: C_16  and  C_17
REMARK    7  A    between atoms: C_17  and  O_18
REMARK    8  A    between atoms: O_18  and  C_19
REMARK    9  A    between atoms: C_20  and  C_21
REMARK   10  A    between atoms: N_23  and  C_24
REMARK   11  A    between atoms: N_23  and  C_25
REMARK   12  A    between atoms: C_25  and  C_26
REMARK   13  A    between atoms: C_26  and  C_27
REMARK                            x       y       z     vdW  Elec       q    Type
REMARK                         _______ _______ _______ _____ _____    ______ ____
ROOT
ATOM      1  C   UNL     1      -0.087   0.203   2.405  0.00  0.00    +0.089 C 
ATOM      2  C   UNL     1       0.214  -0.664   3.644  0.00  0.00    +0.117 C 
ATOM      3  C   UNL     1       1.464  -0.036   4.221  0.00  0.00    +0.223 C 
ATOM      4  O   UNL     1       2.045  -0.415   5.215  0.00  0.00    -0.275 OA
ATOM      5  N   UNL     1       1.825   1.005   3.461  0.00  0.00    -0.241 N 
ATOM      6  C   UNL     1       1.024   1.230   2.412  0.00  0.00    +0.233 C 
ATOM      7  O   UNL     1       1.167   2.116   1.597  0.00  0.00    -0.274 OA
ENDROOT
BRANCH   1  14
ATOM      8  C   UNL     1      -1.974  -1.949   2.015  0.00  0.00    +0.044 C 
ATOM      9  C   UNL     1      -0.935  -1.658   0.963  0.00  0.00    -0.046 A 
ATOM     10  C   UNL     1      -0.888  -2.418  -0.192  0.00  0.00    +0.003 A 
ATOM     11  C   UNL     1       0.065  -2.151  -1.156  0.00  0.00    +0.000 A 
ATOM     12  C   UNL     1       0.971  -1.124  -0.967  0.00  0.00    +0.000 A 
ATOM     13  C   UNL     1       0.924  -0.364   0.186  0.00  0.00    +0.005 A 
ATOM     14  C   UNL     1      -0.032  -0.628   1.149  0.00  0.00    -0.029 A 
ENDBRANCH   1  14
BRANCH   5  15
ATOM     15  C   UNL     1       3.001   1.829   3.752  0.00  0.00    +0.118 C 
BRANCH  15  16
ATOM     16  C   UNL     1       4.224   1.242   3.044  0.00  0.00    +0.047 C 
BRANCH  16  17
ATOM     17  C   UNL     1       5.451   2.103   3.349  0.00  0.00    +0.161 C 
BRANCH  17  18
ATOM     18  O   UNL     1       6.593   1.555   2.688  0.00  0.00    -0.383 OA
ATOM     19  C   UNL     1       7.800   2.288   2.908  0.00  0.00    +0.193 C 
ENDBRANCH  17  18
ENDBRANCH  16  17
ENDBRANCH  15  16
ENDBRANCH   5  15
BRANCH   1  20
ATOM     20  C   UNL     1      -1.450   0.885   2.538  0.00  0.00    +0.117 C 
BRANCH  20  21
ATOM     21  C   UNL     1      -1.439   1.802   3.734  0.00  0.00    +0.217 C 
ATOM     22  O   UNL     1      -0.439   1.901   4.413  0.00  0.00    -0.276 OA
ATOM     23  N   UNL     1      -2.540   2.512   4.049  0.00  0.00    -0.304 N 
ATOM     24  C   UNL     1      -3.748   2.392   3.229  0.00  0.00    +0.132 C 
BRANCH  23  25
ATOM     25  C   UNL     1      -2.529   3.403   5.212  0.00  0.00    +0.111 C 
BRANCH  25  26
ATOM     26  C   UNL     1      -2.066   4.797   4.781  0.00  0.00    +0.065 C 
BRANCH  26  27
ATOM     27  C   UNL     1      -2.054   5.728   5.995  0.00  0.00    +0.175 C 
ATOM     28  N   UNL     1      -3.412   5.865   6.538  0.00  0.00    -0.363 N 
ATOM     29  C   UNL     1      -3.737   7.122   6.463  0.00  0.00    +0.060 A 
ATOM     30  C   UNL     1      -4.948   7.865   6.844  0.00  0.00    +0.030 A 
ATOM     31  C   UNL     1      -5.003   9.196   6.644  0.00  0.00    +0.040 A 
ATOM     32  C   UNL     1      -3.936   9.922   6.078  0.00  0.00    +0.125 A 
ATOM     33  C   UNL     1      -2.780   9.337   5.694  0.00  0.00    +0.065 A 
ATOM     34  C   UNL     1      -2.610   7.889   5.865  0.00  0.00    +0.063 A 
ATOM     35  N   UNL     1      -1.629   7.074   5.594  0.00  0.00    -0.363 N 
ATOM     36  F   UNL     1      -4.074  11.256   5.912  0.00  0.00    -0.205 F 
ATOM     37  H   UNL     1      -3.965   5.149   6.888  0.00  0.00    +0.162 HD
ATOM     38  H   UNL     1      -0.776   7.313   5.199  0.00  0.00    +0.162 HD
ENDBRANCH  26  27
ENDBRANCH  25  26
ENDBRANCH  23  25
ENDBRANCH  20  21
ENDBRANCH   1  20
TORSDOF 10
