REMARK  Name = ZINC62238226
REMARK  3 active torsions:
REMARK  status: ('A' for Active; 'I' for Inactive)
REMARK    1  A    between atoms: C_6  and  C_7
REMARK    2  A    between atoms: C_8  and  C_13
REMARK    3  A    between atoms: C_11  and  N_12
REMARK                            x       y       z     vdW  Elec       q    Type
REMARK                         _______ _______ _______ _____ _____    ______ ____
ROOT
ATOM      1  C   UNL     1      -1.270  -0.765   0.011  0.00  0.00    +0.067 A 
ATOM      2  C   UNL     1      -1.732  -1.608   1.045  0.00  0.00    +0.098 A 
ATOM      3  N   UNL     1      -2.885  -2.097   0.686  0.00  0.00    -0.080 NA
ATOM      4  O   UNL     1      -3.215  -1.590  -0.593  0.00  0.00    -0.339 OA
ATOM      5  C   UNL     1      -2.224  -0.775  -0.990  0.00  0.00    +0.223 A 
ENDROOT
BRANCH   1  11
ATOM      6  C   UNL     1      -0.017   1.390   0.010  0.00  0.00    +0.010 A 
ATOM      7  C   UNL     1       1.170   2.094   0.002  0.00  0.00    +0.022 A 
ATOM      8  C   UNL     1       2.378   1.419  -0.013  0.00  0.00    +0.059 A 
ATOM      9  C   UNL     1       2.403   0.034  -0.022  0.00  0.00    +0.060 A 
ATOM     10  C   UNL     1       1.221  -0.680  -0.014  0.00  0.00    +0.030 A 
ATOM     11  C   UNL     1       0.002  -0.004   0.002  0.00  0.00    -0.010 A 
ATOM     12 CL   UNL     1       3.923  -0.806  -0.042  0.00  0.00    -0.082 Cl
ATOM     13 CL   UNL     1       3.867   2.312  -0.024  0.00  0.00    -0.082 Cl
ENDBRANCH   1  11
BRANCH   2  14
ATOM     14  C   UNL     1      -1.015  -1.893   2.339  0.00  0.00    +0.067 C 
ATOM     15  C   UNL     1      -1.890  -1.454   3.517  0.00  0.00    +0.014 C 
ATOM     16  C   UNL     1      -1.185  -1.819   4.827  0.00  0.00    +0.029 C 
ATOM     17  C   UNL     1      -0.903  -3.324   4.842  0.00  0.00    +0.160 C 
ATOM     18  O   UNL     1      -0.111  -3.670   3.704  0.00  0.00    -0.379 OA
ATOM     19  C   UNL     1      -0.738  -3.395   2.450  0.00  0.00    +0.169 C 
ENDBRANCH   2  14
BRANCH   5  20
ATOM     20  N   UNL     1      -2.166  -0.079  -2.178  0.00  0.00    -0.327 N 
ATOM     21  H   UNL     1      -1.401   0.485  -2.374  0.00  0.00    +0.145 HD
ATOM     22  H   UNL     1      -2.891  -0.152  -2.819  0.00  0.00    +0.145 HD
ENDBRANCH   5  20
TORSDOF 3
