REMARK  Name = ZINC01088173
REMARK  5 active torsions:
REMARK  status: ('A' for Active; 'I' for Inactive)
REMARK    1  A    between atoms: C_4  and  C_7
REMARK    2  A    between atoms: C_12  and  C_27
REMARK    3  A    between atoms: C_14  and  C_25
REMARK    4  A    between atoms: C_15  and  N_24
REMARK    5  A    between atoms: N_16  and  C_17
REMARK                            x       y       z     vdW  Elec       q    Type
REMARK                         _______ _______ _______ _____ _____    ______ ____
ROOT
ATOM      1  C   UNL     1      -3.405   1.235  -0.033  0.00  0.00    +0.032 C 
ATOM      2  C   UNL     1      -2.677   2.114  -1.053  0.00  0.00    +0.060 C 
ATOM      3  C   UNL     1      -3.387   3.440  -1.177  0.00  0.00    +0.025 C 
ATOM      4  C   UNL     1      -4.050   3.974  -0.129  0.00  0.00    +0.025 C 
ATOM      5  C   UNL     1      -4.762   5.297  -0.256  0.00  0.00    +0.098 C 
ATOM      6  C   UNL     1      -4.276   6.062  -1.452  0.00  0.00    +0.077 C 
ATOM      7  C   UNL     1      -3.600   5.442  -2.454  0.00  0.00    +0.107 C 
ATOM      8  N   UNL     1      -3.341   4.093  -2.381  0.00  0.00    -0.260 N 
ATOM      9  C   UNL     1      -4.100   3.313   1.110  0.00  0.00    +0.162 C 
ATOM     10  O   UNL     1      -4.687   3.831   2.039  0.00  0.00    -0.292 OA
ATOM     11  C   UNL     1      -3.440   1.976   1.308  0.00  0.00    +0.088 C 
ENDROOT
BRANCH   8  12
ATOM     12  C   UNL     1      -3.027   3.381  -3.545  0.00  0.00    +0.040 A 
ATOM     13  C   UNL     1      -1.705   3.268  -3.956  0.00  0.00    +0.026 A 
ATOM     14  C   UNL     1      -1.397   2.561  -5.102  0.00  0.00    +0.040 A 
ATOM     15  C   UNL     1      -2.407   1.975  -5.847  0.00  0.00    +0.124 A 
ATOM     16  C   UNL     1      -3.726   2.092  -5.442  0.00  0.00    +0.040 A 
ATOM     17  C   UNL     1      -4.038   2.793  -4.294  0.00  0.00    +0.026 A 
ATOM     18  F   UNL     1      -2.104   1.289  -6.971  0.00  0.00    -0.205 F 
ENDBRANCH   8  12
BRANCH   1  22
ATOM     19  C   UNL     1      -1.312  -2.462   0.412  0.00  0.00    +0.000 A 
ATOM     20  C   UNL     1      -2.626  -2.459  -0.017  0.00  0.00    +0.000 A 
ATOM     21  C   UNL     1      -3.304  -1.263  -0.160  0.00  0.00    +0.004 A 
ATOM     22  C   UNL     1      -2.668  -0.070   0.128  0.00  0.00    -0.044 A 
ATOM     23  C   UNL     1      -1.354  -0.073   0.558  0.00  0.00    +0.004 A 
ATOM     24  C   UNL     1      -0.676  -1.269   0.699  0.00  0.00    +0.000 A 
ENDBRANCH   1  22
BRANCH   5  25
ATOM     25  C   UNL     1      -6.242   5.050  -0.396  0.00  0.00    -0.028 A 
ATOM     26  C   UNL     1      -7.129   5.565   0.530  0.00  0.00    +0.012 A 
ATOM     27  C   UNL     1      -8.454   5.324   0.376  0.00  0.00    +0.045 A 
ATOM     28  S   UNL     1      -8.480   4.343  -1.116  0.00  0.00    -0.105 S 
ATOM     29  C   UNL     1      -6.723   4.325  -1.435  0.00  0.00    +0.049 A 
ENDBRANCH   5  25
BRANCH   7  30
ATOM     30  N   UNL     1      -3.172   6.165  -3.542  0.00  0.00    -0.345 N 
ATOM     31  H   UNL     1      -3.429   7.095  -3.638  0.00  0.00    +0.144 HD
ATOM     32  H   UNL     1      -2.615   5.744  -4.215  0.00  0.00    +0.144 HD
ENDBRANCH   7  30
BRANCH   6  33
ATOM     33  C   UNL     1      -4.530   7.469  -1.539  0.00  0.00    +0.099 C 
ATOM     34  N   UNL     1      -4.731   8.585  -1.608  0.00  0.00    -0.191 NA
ENDBRANCH   6  33
TORSDOF 5
