REMARK  Name = ZINC63372173
REMARK  11 active torsions:
REMARK  status: ('A' for Active; 'I' for Inactive)
REMARK    1  A    between atoms: C_1  and  C_2
REMARK    2  A    between atoms: C_2  and  C_3
REMARK    3  A    between atoms: C_3  and  O_4
REMARK    4  A    between atoms: O_4  and  C_5
REMARK    5  A    between atoms: C_8  and  C_14
REMARK    6  A    between atoms: C_10  and  O_11
REMARK    7  A    between atoms: O_11  and  C_12
REMARK    8  A    between atoms: C_12  and  C_13
REMARK    9  A    between atoms: N_20  and  C_35
REMARK   10  A    between atoms: C_23  and  C_34
REMARK   11  A    between atoms: C_39  and  C_41
REMARK                            x       y       z     vdW  Elec       q    Type
REMARK                         _______ _______ _______ _____ _____    ______ ____
ROOT
ATOM      1  C   UNL     1       3.273  -4.191  -5.439  0.00  0.00    +0.065 C 
ATOM      2  C   UNL     1       2.488  -3.969  -6.748  0.00  0.00    +0.123 C 
ATOM      3  N   UNL     1       3.414  -3.416  -7.740  0.00  0.00    -0.268 N 
ATOM      4  C   UNL     1       3.719  -3.907  -8.949  0.00  0.00    +0.317 C 
ATOM      5  O   UNL     1       3.132  -4.835  -9.472  0.00  0.00    -0.252 OA
ATOM      6  N   UNL     1       4.744  -3.257  -9.516  0.00  0.00    -0.192 N 
ATOM      7  C   UNL     1       5.156  -2.220  -8.757  0.00  0.00    +0.253 C 
ATOM      8  O   UNL     1       6.079  -1.467  -8.983  0.00  0.00    -0.272 OA
ATOM      9  C   UNL     1       4.226  -2.194  -7.565  0.00  0.00    +0.137 C 
ATOM     10  C   UNL     1       5.010  -2.338  -6.262  0.00  0.00    +0.139 C 
ATOM     11  C   UNL     1       4.681  -3.709  -5.683  0.00  0.00    -0.027 C 
ATOM     12  C   UNL     1       5.847  -4.319  -5.484  0.00  0.00    -0.000 A 
ATOM     13  C   UNL     1       6.180  -5.615  -4.872  0.00  0.00    +0.010 A 
ATOM     14  C   UNL     1       7.498  -5.944  -4.847  0.00  0.00    +0.001 A 
ATOM     15  C   UNL     1       8.506  -5.124  -5.364  0.00  0.00    +0.002 A 
ATOM     16  C   UNL     1       8.291  -3.913  -5.937  0.00  0.00    +0.026 A 
ATOM     17  C   UNL     1       6.944  -3.454  -6.014  0.00  0.00    +0.043 A 
ATOM     18  N   UNL     1       6.457  -2.323  -6.485  0.00  0.00    -0.375 N 
ATOM     19  C   UNL     1       3.352  -0.938  -7.568  0.00  0.00    +0.044 C 
ATOM     20  H   UNL     1       6.959  -1.607  -6.906  0.00  0.00    +0.160 HD
ENDROOT
BRANCH   6  21
ATOM     21  C   UNL     1       5.318  -3.610 -10.745  0.00  0.00    +0.046 A 
ATOM     22  C   UNL     1       4.753  -4.619 -11.513  0.00  0.00    +0.024 A 
ATOM     23  C   UNL     1       5.320  -4.965 -12.723  0.00  0.00    +0.002 A 
ATOM     24  C   UNL     1       6.451  -4.307 -13.171  0.00  0.00    +0.003 A 
ATOM     25  C   UNL     1       7.017  -3.301 -12.409  0.00  0.00    -0.049 A 
ATOM     26  C   UNL     1       6.450  -2.947 -11.200  0.00  0.00    +0.027 A 
ATOM     27  C   UNL     1       8.249  -2.587 -12.901  0.00  0.00    +0.044 C 
ENDBRANCH   6  21
BRANCH   1  31
ATOM     28  C   UNL     1       1.490  -1.940  -2.270  0.00  0.00    +0.162 A 
ATOM     29  C   UNL     1       2.063  -1.288  -3.350  0.00  0.00    +0.050 A 
ATOM     30  C   UNL     1       2.639  -2.018  -4.373  0.00  0.00    +0.008 A 
ATOM     31  C   UNL     1       2.644  -3.400  -4.321  0.00  0.00    -0.035 A 
ATOM     32  C   UNL     1       2.074  -4.057  -3.247  0.00  0.00    +0.053 A 
ATOM     33  C   UNL     1       1.500  -3.330  -2.216  0.00  0.00    +0.162 A 
BRANCH  28  34
ATOM     34  O   UNL     1       0.923  -1.223  -1.263  0.00  0.00    -0.488 OA
BRANCH  34  35
ATOM     35  C   UNL     1       0.949   0.201  -1.386  0.00  0.00    +0.229 C 
BRANCH  35  37
ATOM     36  C   UNL     1       0.298   2.354  -0.300  0.00  0.00    +0.007 C 
ATOM     37  C   UNL     1       0.271   0.830  -0.168  0.00  0.00    +0.038 C 
ENDBRANCH  35  37
ENDBRANCH  34  35
ENDBRANCH  28  34
BRANCH  33  38
ATOM     38  O   UNL     1       0.944  -3.975  -1.155  0.00  0.00    -0.489 OA
BRANCH  38  39
ATOM     39  C   UNL     1       0.991  -5.403  -1.167  0.00  0.00    +0.226 C 
ATOM     40  C   UNL     1       0.322  -5.946   0.098  0.00  0.00    +0.048 C 
ENDBRANCH  38  39
ENDBRANCH  33  38
ENDBRANCH   1  31
TORSDOF 7
