REMARK  Name = ZINC43955257
REMARK  8 active torsions:
REMARK  status: ('A' for Active; 'I' for Inactive)
REMARK    1  A    between atoms: C_1  and  C_2
REMARK    2  A    between atoms: C_4  and  C_27
REMARK    3  A    between atoms: C_5  and  C_26
REMARK    4  A    between atoms: C_6  and  S_9
REMARK    5  A    between atoms: C_7  and  C_8
REMARK    6  A    between atoms: S_9  and  N_12
REMARK    7  A    between atoms: N_12  and  C_13
REMARK    8  A    between atoms: C_13  and  C_14
REMARK                            x       y       z     vdW  Elec       q    Type
REMARK                         _______ _______ _______ _____ _____    ______ ____
ROOT
ATOM      1  N   UNL     1       1.419  -2.761   3.380  0.00  0.00    -0.190 NA
ATOM      2  H   UNL     1       1.743  -3.659   3.549  0.00  0.00    +0.148 HD
ENDROOT
BRANCH   1   3
ATOM      3  S   UNL     1      -0.162  -2.519   2.949  0.00  0.00    +0.059 S 
ATOM      4  O   UNL     1      -0.657  -1.483   3.786  0.00  0.00    -0.153 OA
ATOM      5  O   UNL     1      -0.767  -3.803   2.887  0.00  0.00    -0.153 OA
BRANCH   3  11
ATOM      6  C   UNL     1      -0.203  -3.192  -2.234  0.00  0.00    +0.044 C 
ATOM      7  C   UNL     1      -0.181  -2.248  -1.060  0.00  0.00    -0.045 A 
ATOM      8  C   UNL     1      -0.161  -0.882  -1.272  0.00  0.00    +0.007 A 
ATOM      9  C   UNL     1      -0.142  -0.016  -0.194  0.00  0.00    -0.045 A 
ATOM     10  C   UNL     1      -0.142  -0.516   1.095  0.00  0.00    -0.021 A 
ATOM     11  C   UNL     1      -0.162  -1.882   1.306  0.00  0.00    +0.112 A 
ATOM     12  C   UNL     1      -0.186  -2.748   0.229  0.00  0.00    -0.021 A 
ATOM     13  C   UNL     1      -0.214  -4.237   0.460  0.00  0.00    +0.046 C 
ATOM     14  C   UNL     1      -0.119   0.428   2.269  0.00  0.00    +0.046 C 
ATOM     15  C   UNL     1      -0.119   1.473  -0.425  0.00  0.00    +0.044 C 
ENDBRANCH   3  11
ENDBRANCH   1   3
BRANCH   1  16
ATOM     16  C   UNL     1       2.327  -1.619   3.506  0.00  0.00    +0.109 C 
BRANCH  16  17
ATOM     17  C   UNL     1       3.587  -2.049   4.259  0.00  0.00    +0.007 C 
ATOM     18  C   UNL     1       3.217  -2.434   5.693  0.00  0.00    +0.024 C 
ATOM     19  C   UNL     1       4.476  -2.898   6.434  0.00  0.00    +0.107 C 
ATOM     20  N   UNL     1       5.497  -1.846   6.336  0.00  0.00    -0.317 N 
ATOM     21  C   UNL     1       5.862  -1.338   5.006  0.00  0.00    +0.107 C 
ATOM     22  C   UNL     1       4.588  -0.892   4.282  0.00  0.00    +0.024 C 
ATOM     23  C   UNL     1       6.105  -1.341   7.479  0.00  0.00    +0.099 A 
ATOM     24  C   UNL     1       7.170  -0.453   7.358  0.00  0.00    +0.042 A 
ATOM     25  C   UNL     1       7.766   0.042   8.504  0.00  0.00    +0.005 A 
ATOM     26  C   UNL     1       7.275  -0.369   9.736  0.00  0.00    +0.018 A 
ATOM     27  C   UNL     1       6.216  -1.252   9.782  0.00  0.00    +0.084 A 
ATOM     28  N   UNL     1       5.663  -1.704   8.672  0.00  0.00    -0.350 N 
ATOM     29  H   UNL     1       4.917  -2.321   8.733  0.00  0.00    +0.166 HD
ENDBRANCH  16  17
ENDBRANCH   1  16
TORSDOF 4
