REMARK  Name = ZINC64519982
REMARK  5 active torsions:
REMARK  status: ('A' for Active; 'I' for Inactive)
REMARK    1  A    between atoms: C_7  and  C_10
REMARK    2  A    between atoms: C_10  and  C_11
REMARK    3  A    between atoms: C_19  and  C_21
REMARK    4  A    between atoms: C_24  and  C_28
REMARK    5  A    between atoms: C_31  and  N_34
REMARK                            x       y       z     vdW  Elec       q    Type
REMARK                         _______ _______ _______ _____ _____    ______ ____
ROOT
ATOM      1  C   UNL     1      -1.388  -2.165  -1.619  0.00  0.00    +0.220 C 
ATOM      2  O   UNL     1      -1.192  -1.802  -0.478  0.00  0.00    -0.275 OA
ATOM      3  N   UNL     1      -2.204  -3.210  -1.863  0.00  0.00    -0.298 N 
ATOM      4  C   UNL     1      -2.445  -3.665  -3.240  0.00  0.00    +0.126 C 
ATOM      5  C   UNL     1      -2.099  -5.156  -3.331  0.00  0.00    +0.127 C 
ATOM      6  N   UNL     1      -2.762  -5.861  -2.226  0.00  0.00    -0.295 N 
ATOM      7  C   UNL     1      -2.521  -5.406  -0.849  0.00  0.00    +0.127 C 
ATOM      8  C   UNL     1      -2.863  -3.918  -0.757  0.00  0.00    +0.126 C 
ATOM      9  C   UNL     1      -3.578  -6.905  -2.470  0.00  0.00    +0.262 C 
ATOM     10  O   UNL     1      -4.059  -7.528  -1.547  0.00  0.00    -0.271 OA
ENDROOT
BRANCH   9  11
ATOM     11  C   UNL     1      -3.894  -7.299  -3.890  0.00  0.00    +0.298 C 
ATOM     12  N   UNL     1      -4.625  -6.211  -4.577  0.00  0.00    -0.262 NA
ATOM     13  C   UNL     1      -4.128  -6.193  -5.969  0.00  0.00    +0.180 C 
ATOM     14  N   UNL     1      -3.116  -7.272  -6.050  0.00  0.00    -0.177 NA
ATOM     15  O   UNL     1      -2.675  -7.463  -4.649  0.00  0.00    -0.270 OA
ATOM     16  H   UNL     1      -5.621  -6.372  -4.550  0.00  0.00    +0.127 HD
ATOM     17  H   UNL     1      -3.519  -8.120  -6.419  0.00  0.00    +0.156 HD
BRANCH  13  18
ATOM     18  C   UNL     1      -5.258  -6.465  -6.928  0.00  0.00    -0.014 A 
ATOM     19  C   UNL     1      -6.546  -6.080  -6.606  0.00  0.00    +0.008 A 
ATOM     20  C   UNL     1      -7.583  -6.329  -7.486  0.00  0.00    +0.022 A 
ATOM     21  C   UNL     1      -7.331  -6.963  -8.688  0.00  0.00    +0.013 A 
ATOM     22  C   UNL     1      -6.043  -7.347  -9.011  0.00  0.00    +0.022 A 
ATOM     23  C   UNL     1      -5.006  -7.094  -8.133  0.00  0.00    +0.008 A 
BRANCH  21  24
ATOM     24  N   UNL     1      -8.380  -7.216  -9.578  0.00  0.00    -0.393 NA
ATOM     25  C   UNL     1      -8.492  -8.663  -9.800  0.00  0.00    +0.085 C 
ATOM     26  C   UNL     1      -9.689  -8.951 -10.709  0.00  0.00    +0.017 C 
ATOM     27  C   UNL     1      -9.487  -8.241 -12.051  0.00  0.00    +0.003 C 
ATOM     28  C   UNL     1      -9.297  -6.742 -11.800  0.00  0.00    +0.017 C 
ATOM     29  C   UNL     1      -8.114  -6.535 -10.851  0.00  0.00    +0.085 C 
ATOM     30  H   UNL     1      -9.243  -6.870  -9.186  0.00  0.00    +0.126 HD
ENDBRANCH  21  24
ENDBRANCH  13  18
ENDBRANCH   9  11
BRANCH   1  31
ATOM     31  C   UNL     1      -0.719  -1.448  -2.763  0.00  0.00    +0.129 C 
BRANCH  31  38
ATOM     32  C   UNL     1       3.739  -1.175  -1.710  0.00  0.00    +0.001 A 
ATOM     33  C   UNL     1       4.127   0.082  -1.228  0.00  0.00    +0.002 A 
ATOM     34  C   UNL     1       3.261   1.109  -1.091  0.00  0.00    +0.026 A 
ATOM     35  C   UNL     1       1.892   0.947  -1.440  0.00  0.00    +0.043 A 
ATOM     36  N   UNL     1       0.877   1.774  -1.398  0.00  0.00    -0.380 N 
ATOM     37  C   UNL     1      -0.319   1.073  -1.879  0.00  0.00    +0.145 C 
ATOM     38  C   UNL     1       0.134  -0.328  -2.225  0.00  0.00    -0.033 C 
ATOM     39  C   UNL     1       1.458  -0.373  -1.952  0.00  0.00    -0.001 A 
ATOM     40  C   UNL     1       2.462  -1.436  -2.070  0.00  0.00    +0.010 A 
ATOM     41  H   UNL     1       0.910   2.696  -1.099  0.00  0.00    +0.160 HD
ENDBRANCH  31  38
ENDBRANCH   1  31
TORSDOF 5
