REMARK  Name = ZINC01815749
REMARK  13 active torsions:
REMARK  status: ('A' for Active; 'I' for Inactive)
REMARK    1  A    between atoms: C_1  and  C_2
REMARK    2  A    between atoms: C_6  and  C_29
REMARK    3  A    between atoms: C_8  and  O_11
REMARK    4  A    between atoms: O_11  and  P_12
REMARK    5  A    between atoms: P_12  and  N_14
REMARK    6  A    between atoms: P_12  and  O_15
REMARK    7  A    between atoms: O_15  and  C_16
REMARK    8  A    between atoms: C_19  and  C_28
REMARK    9  A    between atoms: C_23  and  C_25
REMARK   10  A    between atoms: C_25  and  C_26
REMARK   11  A    between atoms: C_25  and  C_27
REMARK   12  A    between atoms: C_29  and  C_30
REMARK   13  A    between atoms: C_29  and  C_31
REMARK                            x       y       z     vdW  Elec       q    Type
REMARK                         _______ _______ _______ _____ _____    ______ ____
ROOT
ATOM      1  P   UNL     1      -4.392   4.234   3.857  0.00  0.00    +0.406 P 
ATOM      2  O   UNL     1      -5.679   4.006   3.161  0.00  0.00    -0.240 OA
ENDROOT
BRANCH   1   3
ATOM      3  N   UNL     1      -4.570   3.887   5.494  0.00  0.00    -0.236 NA
ATOM      4  H   UNL     1      -4.936   2.957   5.629  0.00  0.00    +0.130 HD
ATOM      5  H   UNL     1      -3.697   4.007   5.986  0.00  0.00    +0.130 HD
ENDBRANCH   1   3
BRANCH   1   6
ATOM      6  O   UNL     1      -3.950   5.771   3.678  0.00  0.00    -0.293 OA
BRANCH   6  12
ATOM      7  C   UNL     1      -4.563   9.611   6.685  0.00  0.00    +0.007 C 
ATOM      8  C   UNL     1      -5.146   8.828   5.507  0.00  0.00    -0.012 C 
ATOM      9  C   UNL     1      -5.263   9.748   4.291  0.00  0.00    +0.004 C 
ATOM     10  C   UNL     1      -5.846   8.966   3.112  0.00  0.00    +0.006 C 
ATOM     11  C   UNL     1      -4.926   7.790   2.776  0.00  0.00    +0.021 C 
ATOM     12  C   UNL     1      -4.809   6.869   3.993  0.00  0.00    +0.133 C 
ATOM     13  C   UNL     1      -4.226   7.652   5.171  0.00  0.00    +0.035 C 
BRANCH  11  14
ATOM     14  C   UNL     1      -5.509   7.007   1.598  0.00  0.00    -0.012 C 
ATOM     15  C   UNL     1      -6.953   6.613   1.913  0.00  0.00    +0.007 C 
ATOM     16  C   UNL     1      -5.481   7.880   0.342  0.00  0.00    +0.007 C 
ENDBRANCH  11  14
ENDBRANCH   6  12
ENDBRANCH   1   6
BRANCH   1  17
ATOM     17  O   UNL     1      -3.264   3.275   3.224  0.00  0.00    -0.293 OA
BRANCH  17  18
ATOM     18  C   UNL     1      -3.444   1.867   3.058  0.00  0.00    +0.133 C 
ATOM     19  C   UNL     1      -3.519   1.535   1.566  0.00  0.00    +0.035 C 
ATOM     20  C   UNL     1      -2.221   1.968   0.881  0.00  0.00    -0.012 C 
ATOM     21  C   UNL     1      -1.040   1.226   1.510  0.00  0.00    +0.004 C 
ATOM     22  C   UNL     1      -0.965   1.557   3.001  0.00  0.00    +0.006 C 
ATOM     23  C   UNL     1      -2.263   1.124   3.686  0.00  0.00    +0.021 C 
ATOM     24  C   UNL     1      -2.297   1.637  -0.611  0.00  0.00    +0.007 C 
BRANCH  23  25
ATOM     25  C   UNL     1      -2.187   1.456   5.178  0.00  0.00    -0.012 C 
ATOM     26  C   UNL     1      -3.415   0.885   5.890  0.00  0.00    +0.007 C 
ATOM     27  C   UNL     1      -0.920   0.840   5.774  0.00  0.00    +0.007 C 
ENDBRANCH  23  25
ENDBRANCH  17  18
ENDBRANCH   1  17
TORSDOF 7
