REMARK  Name = ZINC27528243
REMARK  6 active torsions:
REMARK  status: ('A' for Active; 'I' for Inactive)
REMARK    1  A    between atoms: C_1  and  C_2
REMARK    2  A    between atoms: C_5  and  S_8
REMARK    3  A    between atoms: S_8  and  N_11
REMARK    4  A    between atoms: N_11  and  C_12
REMARK    5  A    between atoms: C_15  and  N_18
REMARK    6  A    between atoms: N_18  and  C_19
REMARK                            x       y       z     vdW  Elec       q    Type
REMARK                         _______ _______ _______ _____ _____    ______ ____
ROOT
ATOM      1  C   UNL     1      -1.016   0.020   5.469  0.00  0.00    +0.048 A 
ATOM      2  C   UNL     1       0.095   0.630   6.037  0.00  0.00    +0.026 A 
ATOM      3  C   UNL     1       1.363   0.177   5.733  0.00  0.00    +0.025 A 
ATOM      4  C   UNL     1       1.529  -0.882   4.850  0.00  0.00    +0.031 A 
ATOM      5  C   UNL     1       0.418  -1.489   4.277  0.00  0.00    +0.025 A 
ATOM      6  C   UNL     1      -0.850  -1.039   4.586  0.00  0.00    +0.026 A 
ENDROOT
BRANCH   1   7
ATOM      7  N   UNL     1      -2.301   0.476   5.782  0.00  0.00    -0.216 N 
ATOM      8  H   UNL     1      -2.666   1.424   5.359  0.00  0.00    +0.174 HD
BRANCH   7   9
ATOM      9  S   UNL     1      -3.272  -0.410   6.788  0.00  0.00    +0.072 S 
ATOM     10  O   UNL     1      -4.438   0.369   7.018  0.00  0.00    -0.150 OA
ATOM     11  O   UNL     1      -3.328  -1.723   6.246  0.00  0.00    -0.150 OA
BRANCH   9  16
ATOM     12  C   UNL     1      -0.421  -0.852  12.087  0.00  0.00    +0.044 C 
ATOM     13  C   UNL     1      -1.133  -0.742  10.764  0.00  0.00    -0.050 A 
ATOM     14  C   UNL     1      -1.903   0.372  10.483  0.00  0.00    +0.005 A 
ATOM     15  C   UNL     1      -2.556   0.473   9.270  0.00  0.00    +0.029 A 
ATOM     16  C   UNL     1      -2.439  -0.539   8.335  0.00  0.00    +0.109 A 
ATOM     17  C   UNL     1      -1.674  -1.655   8.617  0.00  0.00    +0.029 A 
ATOM     18  C   UNL     1      -1.017  -1.754   9.830  0.00  0.00    +0.005 A 
ENDBRANCH   9  16
ENDBRANCH   7   9
ENDBRANCH   1   7
BRANCH   4  19
ATOM     19  N   UNL     1       2.814  -1.339   4.538  0.00  0.00    -0.313 N 
ATOM     20  H   UNL     1       2.944  -2.195   3.859  0.00  0.00    +0.152 HD
BRANCH  19  21
ATOM     21  C   UNL     1       3.917  -0.716   5.080  0.00  0.00    +0.050 A 
ATOM     22  C   UNL     1       4.537   0.368   4.426  0.00  0.00    +0.020 A 
ATOM     23  C   UNL     1       4.047   0.846   3.199  0.00  0.00    +0.012 A 
ATOM     24  C   UNL     1       4.665   1.894   2.589  0.00  0.00    +0.001 A 
ATOM     25  C   UNL     1       5.779   2.502   3.167  0.00  0.00    +0.002 A 
ATOM     26  C   UNL     1       6.275   2.074   4.358  0.00  0.00    +0.026 A 
ATOM     27  C   UNL     1       5.668   0.987   5.020  0.00  0.00    +0.049 A 
ATOM     28  N   UNL     1       6.154   0.548   6.180  0.00  0.00    -0.354 N 
ATOM     29  C   UNL     1       5.604  -0.476   6.831  0.00  0.00    +0.049 A 
ATOM     30  C   UNL     1       4.467  -1.144   6.305  0.00  0.00    +0.020 A 
ATOM     31  C   UNL     1       3.906  -2.222   7.010  0.00  0.00    +0.012 A 
ATOM     32  C   UNL     1       4.457  -2.615   8.191  0.00  0.00    +0.001 A 
ATOM     33  C   UNL     1       5.574  -1.962   8.711  0.00  0.00    +0.002 A 
ATOM     34  C   UNL     1       6.144  -0.916   8.057  0.00  0.00    +0.026 A 
ATOM     35  H   UNL     1       7.034   1.033   6.627  0.00  0.00    +0.166 HD
ENDBRANCH  19  21
ENDBRANCH   4  19
TORSDOF 5
