REMARK  Name = ZINC35424721
REMARK  5 active torsions:
REMARK  status: ('A' for Active; 'I' for Inactive)
REMARK    1  A    between atoms: C_3  and  C_6
REMARK    2  A    between atoms: C_6  and  N_7
REMARK    3  A    between atoms: C_11  and  C_13
REMARK    4  A    between atoms: C_15  and  C_18
REMARK    5  A    between atoms: C_27  and  C_30
REMARK                            x       y       z     vdW  Elec       q    Type
REMARK                         _______ _______ _______ _____ _____    ______ ____
ROOT
ATOM      1  C   UNL     1       9.027  -1.271   2.496  0.00  0.00    +0.027 A 
ATOM      2  C   UNL     1       9.925  -1.137   1.432  0.00  0.00    +0.029 A 
ATOM      3  C   UNL     1      11.037  -1.952   1.384  0.00  0.00    +0.085 A 
ATOM      4  N   UNL     1      11.262  -2.850   2.325  0.00  0.00    -0.350 N 
ATOM      5  C   UNL     1      10.438  -3.011   3.349  0.00  0.00    +0.099 A 
ATOM      6  C   UNL     1       9.298  -2.226   3.474  0.00  0.00    +0.053 A 
ATOM      7  N   UNL     1      10.720  -3.973   4.313  0.00  0.00    -0.317 N 
ATOM      8  C   UNL     1       9.896  -4.083   5.524  0.00  0.00    +0.107 C 
ATOM      9  C   UNL     1      10.811  -4.019   6.751  0.00  0.00    +0.031 C 
ATOM     10  C   UNL     1      11.896  -5.092   6.630  0.00  0.00    +0.078 C 
ATOM     11  C   UNL     1      12.741  -4.826   5.382  0.00  0.00    +0.031 C 
ATOM     12  C   UNL     1      11.845  -4.902   4.137  0.00  0.00    +0.107 C 
ATOM     13  H   UNL     1      12.053  -3.408   2.263  0.00  0.00    +0.166 HD
ENDROOT
BRANCH   1  16
ATOM     14  C   UNL     1       6.350   1.100   2.073  0.00  0.00    +0.245 A 
ATOM     15  N   UNL     1       7.463   0.535   1.699  0.00  0.00    -0.190 NA
ATOM     16  C   UNL     1       7.818  -0.413   2.584  0.00  0.00    +0.202 A 
ATOM     17  N   UNL     1       6.920  -0.454   3.536  0.00  0.00    -0.056 NA
ATOM     18  O   UNL     1       5.952   0.536   3.220  0.00  0.00    -0.336 OA
BRANCH  14  23
ATOM     19  N   UNL     1       4.190   1.918   1.284  0.00  0.00    -0.287 NA
ATOM     20  C   UNL     1       3.463   3.018   1.954  0.00  0.00    +0.085 C 
ATOM     21  C   UNL     1       4.495   3.637   2.929  0.00  0.00    +0.017 C 
ATOM     22  C   UNL     1       5.806   3.537   2.104  0.00  0.00    +0.030 C 
ATOM     23  C   UNL     1       5.635   2.206   1.341  0.00  0.00    +0.146 C 
BRANCH  19  24
ATOM     24  C   UNL     1       3.739   1.758  -0.105  0.00  0.00    +0.127 C 
BRANCH  24  27
ATOM     25  C   UNL     1      -0.030   1.206  -0.131  0.00  0.00    +0.008 A 
ATOM     26  C   UNL     1       1.159   1.911  -0.117  0.00  0.00    +0.012 A 
ATOM     27  C   UNL     1       2.329   1.227  -0.118  0.00  0.00    +0.004 A 
ATOM     28  S   UNL     1       1.766  -0.467  -0.137  0.00  0.00    -0.100 S 
ATOM     29  C   UNL     1       0.009  -0.148  -0.144  0.00  0.00    +0.045 A 
ENDBRANCH  24  27
ENDBRANCH  19  24
ENDBRANCH  14  23
ENDBRANCH   1  16
BRANCH  10  30
ATOM     30  C   UNL     1      12.777  -5.054   7.851  0.00  0.00    +0.214 C 
ATOM     31  O   UNL     1      12.560  -4.250   8.732  0.00  0.00    -0.276 OA
ATOM     32  N   UNL     1      13.808  -5.916   7.965  0.00  0.00    -0.329 N 
ATOM     33  H   UNL     1      13.982  -6.559   7.261  0.00  0.00    +0.145 HD
ATOM     34  H   UNL     1      14.375  -5.892   8.751  0.00  0.00    +0.145 HD
ENDBRANCH  10  30
TORSDOF 5
