REMARK  Name = ZINC64079509
REMARK  3 active torsions:
REMARK  status: ('A' for Active; 'I' for Inactive)
REMARK    1  A    between atoms: C_3  and  N_13
REMARK    2  A    between atoms: C_5  and  N_7
REMARK    3  A    between atoms: C_14  and  C_16
REMARK                            x       y       z     vdW  Elec       q    Type
REMARK                         _______ _______ _______ _____ _____    ______ ____
ROOT
ATOM      1  N   UNL     1       3.883   2.194  -0.070  0.00  0.00    -0.282 N 
ATOM      2  C   UNL     1       3.999   3.525  -0.250  0.00  0.00    +0.243 C 
ATOM      3  O   UNL     1       3.001   4.223  -0.290  0.00  0.00    -0.270 OA
ATOM      4  H   UNL     1       4.678   1.647   0.025  0.00  0.00    +0.155 HD
ENDROOT
BRANCH   2   5
ATOM      5  C   UNL     1       5.278   4.111  -0.391  0.00  0.00    +0.087 C 
ATOM      6  C   UNL     1       5.394   5.443  -0.571  0.00  0.00    +0.028 C 
ATOM      7  N   UNL     1       4.359   6.350  -0.631  0.00  0.00    -0.319 N 
ATOM      8  C   UNL     1       4.925   7.633  -0.211  0.00  0.00    +0.223 C 
ATOM      9  N   UNL     1       6.300   7.639  -0.799  0.00  0.00    -0.303 N 
ATOM     10  C   UNL     1       6.685   6.216  -0.738  0.00  0.00    +0.157 C 
ATOM     11  C   UNL     1       6.685   8.893  -1.248  0.00  0.00    +0.080 C 
ATOM     12  C   UNL     1       5.778   9.809  -1.582  0.00  0.00    +0.059 C 
ATOM     13  S   UNL     1       4.198   9.023  -1.168  0.00  0.00    -0.090 S 
ATOM     14  H   UNL     1       3.443   6.175  -0.897  0.00  0.00    +0.148 HD
ENDBRANCH   2   5
BRANCH   1  17
ATOM     15  C   UNL     1       1.171  -0.252  -0.503  0.00  0.00    +0.004 A 
ATOM     16  C   UNL     1       2.421   0.334  -0.551  0.00  0.00    +0.023 A 
ATOM     17  C   UNL     1       2.617   1.603  -0.021  0.00  0.00    +0.036 A 
ATOM     18  C   UNL     1       1.554   2.283   0.557  0.00  0.00    +0.049 A 
ATOM     19  C   UNL     1       0.300   1.692   0.604  0.00  0.00    +0.050 A 
ATOM     20  C   UNL     1       0.111   0.423   0.072  0.00  0.00    +0.026 A 
BRANCH  19  21
ATOM     21  N   UNL     1      -0.775   2.375   1.188  0.00  0.00    -0.295 N 
ATOM     22  C   UNL     1      -0.810   2.893   2.475  0.00  0.00    +0.111 A 
ATOM     23  C   UNL     1      -1.997   3.464   2.653  0.00  0.00    +0.103 A 
ATOM     24  N   UNL     1      -2.723   3.313   1.482  0.00  0.00    -0.340 N 
ATOM     25  C   UNL     1      -1.954   2.649   0.596  0.00  0.00    +0.162 A 
ATOM     26  S   UNL     1      -2.400   2.223  -1.001  0.00  0.00    -0.013 S 
ATOM     27  H   UNL     1      -3.625   3.633   1.325  0.00  0.00    +0.167 HD
ENDBRANCH  19  21
ENDBRANCH   1  17
TORSDOF 3
