REMARK  Name = ZINC08837730
REMARK  8 active torsions:
REMARK  status: ('A' for Active; 'I' for Inactive)
REMARK    1  A    between atoms: N_13  and  C_16
REMARK    2  A    between atoms: C_16  and  C_17
REMARK    3  A    between atoms: C_17  and  N_60
REMARK    4  A    between atoms: C_22  and  C_23
REMARK    5  A    between atoms: C_22  and  N_62
REMARK    6  A    between atoms: C_23  and  C_25
REMARK    7  A    between atoms: C_23  and  O_34
REMARK    8  A    between atoms: C_28  and  N_31
REMARK                            x       y       z     vdW  Elec       q    Type
REMARK                         _______ _______ _______ _____ _____    ______ ____
ROOT
ATOM      1  C   UNL     1       5.239   8.162  -1.027  0.00  0.00    -0.098 C 
ATOM      2  C   UNL     1       6.554   8.938  -0.919  0.00  0.00    -0.098 C 
ATOM      3  C   UNL     1       7.381   7.808  -2.894  0.00  0.00    -0.098 C 
ATOM      4  C   UNL     1       6.066   7.032  -3.001  0.00  0.00    -0.098 C 
ATOM      5  N   UNL     1       5.511   6.846  -1.644  0.00  0.00    +0.378 N 
ATOM      6  H   UNL     1       6.196   6.343  -1.068  0.00  0.00    -0.082 HD
ATOM      7  N   UNL     1       7.109   9.123  -2.277  0.00  0.00    +0.379 N 
ATOM      8  H   UNL     1       6.424   9.627  -2.852  0.00  0.00    -0.082 HD
ENDROOT
BRANCH   5   9
ATOM      9  C   UNL     1       4.265   6.053  -1.712  0.00  0.00    -0.059 C 
BRANCH   9  10
ATOM     10  C   UNL     1       3.835   5.685  -0.290  0.00  0.00    +0.098 C 
BRANCH  10  23
ATOM     11  C   UNL     1       0.413   0.564  -0.611  0.00  0.00    +0.001 A 
ATOM     12  C   UNL     1      -0.818   1.153  -0.584  0.00  0.00    +0.008 A 
ATOM     13  C   UNL     1      -0.928   2.551  -0.495  0.00  0.00    -0.016 A 
ATOM     14  C   UNL     1      -2.173   3.204  -0.460  0.00  0.00    +0.008 A 
ATOM     15  C   UNL     1      -2.229   4.565  -0.379  0.00  0.00    +0.001 A 
ATOM     16  C   UNL     1      -1.076   5.340  -0.327  0.00  0.00    +0.014 A 
ATOM     17  C   UNL     1       0.172   4.735  -0.359  0.00  0.00    +0.046 A 
ATOM     18  C   UNL     1       0.249   3.326  -0.444  0.00  0.00    +0.006 A 
ATOM     19  C   UNL     1       1.516   2.700  -0.478  0.00  0.00    +0.046 A 
ATOM     20  C   UNL     1       1.581   1.317  -0.562  0.00  0.00    +0.014 A 
ATOM     21  C   UNL     1       2.720   3.541  -0.423  0.00  0.00    +0.254 C 
ATOM     22  O   UNL     1       3.821   3.024  -0.451  0.00  0.00    -0.270 OA
ATOM     23  N   UNL     1       2.612   4.880  -0.343  0.00  0.00    -0.236 N 
ATOM     24  C   UNL     1       1.421   5.508  -0.308  0.00  0.00    +0.254 C 
ATOM     25  O   UNL     1       1.379   6.721  -0.235  0.00  0.00    -0.270 OA
ENDBRANCH  10  23
ENDBRANCH   9  10
ENDBRANCH   5   9
BRANCH   7  26
ATOM     26  C   UNL     1       8.355   9.917  -2.208  0.00  0.00    -0.042 C 
BRANCH  26  27
ATOM     27  C   UNL     1       9.264   9.391  -1.096  0.00  0.00    +0.128 C 
BRANCH  27  28
ATOM     28  C   UNL     1      10.451  10.307  -0.942  0.00  0.00    -0.021 A 
ATOM     29  C   UNL     1      11.521  10.204  -1.810  0.00  0.00    +0.008 A 
ATOM     30  C   UNL     1      12.607  11.047  -1.672  0.00  0.00    +0.033 A 
ATOM     31  C   UNL     1      12.628  11.987  -0.659  0.00  0.00    +0.126 A 
ATOM     32  C   UNL     1      11.560  12.087   0.213  0.00  0.00    +0.033 A 
ATOM     33  C   UNL     1      10.472  11.247   0.071  0.00  0.00    +0.008 A 
BRANCH  31  34
ATOM     34  N   UNL     1      13.794  12.887  -0.508  0.00  0.00    +0.056 N 
ATOM     35  O   UNL     1      13.812  13.715   0.384  0.00  0.00    -0.126 OA
ATOM     36  O   UNL     1      14.735  12.799  -1.277  0.00  0.00    -0.126 OA
ENDBRANCH  31  34
ENDBRANCH  27  28
BRANCH  27  37
ATOM     37  O   UNL     1       9.716   8.078  -1.431  0.00  0.00    -0.389 OA
ATOM     38  H   UNL     1      10.220   8.034  -2.255  0.00  0.00    +0.210 HD
ENDBRANCH  27  37
ENDBRANCH  26  27
ENDBRANCH   7  26
TORSDOF 8
