REMARK  Name = ZINC16800570
REMARK  6 active torsions:
REMARK  status: ('A' for Active; 'I' for Inactive)
REMARK    1  A    between atoms: C_1  and  C_2
REMARK    2  A    between atoms: C_2  and  C_4
REMARK    3  A    between atoms: C_2  and  S_16
REMARK    4  A    between atoms: N_6  and  C_7
REMARK    5  A    between atoms: N_6  and  C_8
REMARK    6  A    between atoms: S_16  and  C_17
REMARK                            x       y       z     vdW  Elec       q    Type
REMARK                         _______ _______ _______ _____ _____    ______ ____
ROOT
ATOM      1  C   UNL     1       4.033  -6.261   0.849  0.00  0.00    +0.192 A 
ATOM      2  N   UNL     1       3.297  -6.325   1.952  0.00  0.00    -0.207 NA
ATOM      3  C   UNL     1       3.537  -7.208   2.907  0.00  0.00    +0.129 A 
ATOM      4  C   UNL     1       4.617  -8.123   2.752  0.00  0.00    +0.051 A 
ATOM      5  C   UNL     1       5.063  -9.175   3.669  0.00  0.00    -0.025 A 
ATOM      6  C   UNL     1       6.123  -9.912   3.284  0.00  0.00    -0.004 A 
ATOM      7  S   UNL     1       6.588  -9.264   1.701  0.00  0.00    -0.073 S 
ATOM      8  C   UNL     1       5.353  -7.998   1.558  0.00  0.00    +0.115 A 
ATOM      9  N   UNL     1       5.048  -7.091   0.649  0.00  0.00    -0.214 NA
ATOM     10  C   UNL     1       6.766 -11.038   4.035  0.00  0.00    +0.043 C 
ATOM     11  C   UNL     1       6.274 -10.995   5.489  0.00  0.00    +0.005 C 
ATOM     12  C   UNL     1       4.750 -10.840   5.487  0.00  0.00    +0.005 C 
ATOM     13  C   UNL     1       4.372  -9.439   5.004  0.00  0.00    +0.037 C 
ATOM     14  N   UNL     1       2.748  -7.243   4.042  0.00  0.00    -0.343 N 
ATOM     15  H   UNL     1       1.887  -6.796   4.048  0.00  0.00    +0.144 HD
ATOM     16  H   UNL     1       3.056  -7.714   4.832  0.00  0.00    +0.144 HD
ENDROOT
BRANCH   1  17
ATOM     17  S   UNL     1       3.649  -5.055  -0.377  0.00  0.00    -0.073 S 
BRANCH  17  19
ATOM     18  C   UNL     1       1.076  -5.252   0.519  0.00  0.00    +0.029 C 
ATOM     19  C   UNL     1       2.229  -4.252   0.406  0.00  0.00    +0.137 C 
BRANCH  19  20
ATOM     20  C   UNL     1       1.794  -3.076  -0.429  0.00  0.00    +0.229 C 
ATOM     21  O   UNL     1       2.039  -3.051  -1.617  0.00  0.00    -0.274 OA
ATOM     22  N   UNL     1       1.132  -2.050   0.143  0.00  0.00    -0.299 N 
ATOM     23  C   UNL     1       0.836  -2.080   1.578  0.00  0.00    +0.132 C 
BRANCH  22  24
ATOM     24  C   UNL     1       0.709  -0.907  -0.669  0.00  0.00    +0.098 C 
ATOM     25  C   UNL     1       1.373   0.372  -0.132  0.00  0.00    +0.046 C 
ATOM     26  C   UNL     1       0.675   1.594  -0.795  0.00  0.00    +0.168 C 
ATOM     27  S   UNL     1      -1.083   1.046  -0.749  0.00  0.00    -0.029 S 
ATOM     28  O   UNL     1      -1.689   1.328  -2.002  0.00  0.00    -0.174 OA
ATOM     29  O   UNL     1      -1.686   1.528   0.445  0.00  0.00    -0.174 OA
ATOM     30  C   UNL     1      -0.832  -0.770  -0.601  0.00  0.00    +0.188 C 
ENDBRANCH  22  24
ENDBRANCH  19  20
ENDBRANCH  17  19
ENDBRANCH   1  17
TORSDOF 4
