REMARK  Name = ZINC52839136
REMARK  4 active torsions:
REMARK  status: ('A' for Active; 'I' for Inactive)
REMARK    1  A    between atoms: C_2  and  C_12
REMARK    2  A    between atoms: C_13  and  N_21
REMARK    3  A    between atoms: N_14  and  N_20
REMARK    4  A    between atoms: C_15  and  C_17
REMARK                            x       y       z     vdW  Elec       q    Type
REMARK                         _______ _______ _______ _____ _____    ______ ____
ROOT
ATOM      1  C   UNL     1       1.164   3.576   0.010  0.00  0.00    +0.088 A 
ATOM      2  C   UNL     1       1.924   4.395  -0.778  0.00  0.00    +0.139 A 
ATOM      3  N   UNL     1       1.590   5.679  -0.443  0.00  0.00    -0.240 N 
ATOM      4  C   UNL     1       0.642   5.609   0.534  0.00  0.00    +0.110 A 
ATOM      5  N   UNL     1       0.390   4.358   0.792  0.00  0.00    -0.340 N 
ATOM      6  H   UNL     1      -0.250   4.038   1.447  0.00  0.00    +0.167 HD
ENDROOT
BRANCH   1   8
ATOM      7  C   UNL     1      -0.017   1.381   0.010  0.00  0.00    +0.059 A 
ATOM      8  C   UNL     1       1.181   2.094   0.002  0.00  0.00    +0.006 A 
ATOM      9  C   UNL     1       2.396   1.409  -0.014  0.00  0.00    +0.029 A 
ATOM     10  C   UNL     1       2.409   0.029  -0.023  0.00  0.00    +0.064 A 
ATOM     11  C   UNL     1       1.216  -0.682  -0.016  0.00  0.00    +0.176 A 
ATOM     12  C   UNL     1       0.002  -0.004   0.002  0.00  0.00    +0.164 A 
ATOM     13  O   UNL     1      -1.176  -0.686   0.017  0.00  0.00    -0.485 OA
ATOM     14  C   UNL     1      -1.127  -2.064  -0.368  0.00  0.00    +0.270 C 
ATOM     15  C   UNL     1       0.054  -2.724   0.357  0.00  0.00    +0.270 C 
ATOM     16  O   UNL     1       1.253  -2.044  -0.030  0.00  0.00    -0.484 OA
ATOM     17 BR   UNL     1       4.058  -0.897  -0.045  0.00  0.00    -0.046 Br
ENDBRANCH   1   8
BRANCH   4  18
ATOM     18  C   UNL     1      -0.014   6.790   1.202  0.00  0.00    +0.055 C 
ATOM     19  C   UNL     1      -0.398   6.644   2.676  0.00  0.00    +0.012 C 
ATOM     20  C   UNL     1      -1.485   6.650   1.600  0.00  0.00    +0.012 C 
ENDBRANCH   4  18
BRANCH   3  21
ATOM     21  N   UNL     1       2.110   6.819  -0.986  0.00  0.00    -0.295 N 
ATOM     22  H   UNL     1       1.573   7.117  -1.786  0.00  0.00    +0.163 HD
ATOM     23  H   UNL     1       2.170   7.554  -0.296  0.00  0.00    +0.163 HD
ENDBRANCH   3  21
BRANCH   2  24
ATOM     24  N   UNL     1       2.855   4.000  -1.733  0.00  0.00    -0.342 N 
ATOM     25  H   UNL     1       3.016   3.057  -1.892  0.00  0.00    +0.144 HD
ATOM     26  H   UNL     1       3.343   4.668  -2.240  0.00  0.00    +0.144 HD
ENDBRANCH   2  24
TORSDOF 4
