REMARK  Name = ZINC09762795
REMARK  6 active torsions:
REMARK  status: ('A' for Active; 'I' for Inactive)
REMARK    1  A    between atoms: C_1  and  C_2
REMARK    2  A    between atoms: C_2  and  C_4
REMARK    3  A    between atoms: C_2  and  S_16
REMARK    4  A    between atoms: N_6  and  C_7
REMARK    5  A    between atoms: C_11  and  N_13
REMARK    6  A    between atoms: S_16  and  C_17
REMARK                            x       y       z     vdW  Elec       q    Type
REMARK                         _______ _______ _______ _____ _____    ______ ____
ROOT
ATOM      1  C   UNL     1      -0.007   1.532   0.016  0.00  0.00    +0.029 C 
ATOM      2  C   UNL     1       0.003   0.002   0.004  0.00  0.00    +0.137 C 
ENDROOT
BRANCH   2   3
ATOM      3  C   UNL     1       0.730  -0.505   1.222  0.00  0.00    +0.230 C 
ATOM      4  O   UNL     1       1.909  -0.785   1.153  0.00  0.00    -0.274 OA
ATOM      5  N   UNL     1       0.071  -0.647   2.389  0.00  0.00    -0.285 N 
ATOM      6  H   UNL     1      -0.852  -0.361   2.463  0.00  0.00    +0.155 HD
BRANCH   5   7
ATOM      7  C   UNL     1       0.720  -1.209   3.495  0.00  0.00    +0.036 A 
ATOM      8  C   UNL     1       0.015  -2.013   4.381  0.00  0.00    +0.023 A 
ATOM      9  C   UNL     1       0.658  -2.566   5.471  0.00  0.00    +0.004 A 
ATOM     10  C   UNL     1       2.002  -2.319   5.681  0.00  0.00    +0.033 A 
ATOM     11  C   UNL     1       2.707  -1.518   4.801  0.00  0.00    +0.128 A 
ATOM     12  C   UNL     1       2.071  -0.968   3.706  0.00  0.00    +0.056 A 
BRANCH  11  13
ATOM     13  N   UNL     1       4.145  -1.256   5.030  0.00  0.00    +0.056 N 
ATOM     14  O   UNL     1       4.704  -1.742   5.987  0.00  0.00    -0.126 OA
ATOM     15  O   UNL     1       4.762  -0.556   4.261  0.00  0.00    -0.126 OA
ENDBRANCH  11  13
ENDBRANCH   5   7
ENDBRANCH   2   3
BRANCH   2  16
ATOM     16  S   UNL     1       0.847  -0.585  -1.491  0.00  0.00    -0.075 S 
BRANCH  16  17
ATOM     17  C   UNL     1      -0.192  -0.042  -2.807  0.00  0.00    +0.171 A 
ATOM     18  N   UNL     1      -1.287   0.632  -2.527  0.00  0.00    -0.185 NA
ATOM     19  C   UNL     1      -2.119   1.074  -3.475  0.00  0.00    +0.282 A 
ATOM     20  O   UNL     1      -3.125   1.696  -3.172  0.00  0.00    -0.265 OA
ATOM     21  C   UNL     1      -1.808   0.801  -4.898  0.00  0.00    +0.072 A 
ATOM     22  C   UNL     1      -2.543   1.171  -6.093  0.00  0.00    +0.023 A 
ATOM     23  C   UNL     1      -2.064   0.811  -7.295  0.00  0.00    +0.048 A 
ATOM     24  S   UNL     1      -0.565  -0.065  -6.890  0.00  0.00    -0.079 S 
ATOM     25  C   UNL     1      -0.631   0.082  -5.125  0.00  0.00    +0.092 A 
ATOM     26  N   UNL     1       0.159  -0.324  -4.094  0.00  0.00    -0.328 N 
ATOM     27  H   UNL     1       0.974  -0.820  -4.275  0.00  0.00    +0.168 HD
ENDBRANCH  16  17
ENDBRANCH   2  16
TORSDOF 5
