REMARK  Name = ZINC14199065
REMARK  9 active torsions:
REMARK  status: ('A' for Active; 'I' for Inactive)
REMARK    1  A    between atoms: C_1  and  C_2
REMARK    2  A    between atoms: C_2  and  C_25
REMARK    3  A    between atoms: N_5  and  C_9
REMARK    4  A    between atoms: C_9  and  C_10
REMARK    5  A    between atoms: N_12  and  C_13
REMARK    6  A    between atoms: C_16  and  S_19
REMARK    7  A    between atoms: S_19  and  N_22
REMARK    8  A    between atoms: N_22  and  C_23
REMARK    9  A    between atoms: N_22  and  C_24
REMARK                            x       y       z     vdW  Elec       q    Type
REMARK                         _______ _______ _______ _____ _____    ______ ____
ROOT
ATOM      1  C   UNL     1      -2.069   2.063  -4.386  0.00  0.00    +0.047 C 
ATOM      2  C   UNL     1      -2.186   2.625  -2.967  0.00  0.00    +0.136 C 
ATOM      3  C   UNL     1      -1.829   1.565  -1.944  0.00  0.00    +0.251 C 
ATOM      4  O   UNL     1      -2.389   0.505  -1.762  0.00  0.00    -0.272 OA
ATOM      5  N   UNL     1      -0.762   2.047  -1.277  0.00  0.00    -0.215 N 
ATOM      6  C   UNL     1      -0.394   3.248  -1.736  0.00  0.00    +0.310 C 
ATOM      7  O   UNL     1       0.545   3.882  -1.296  0.00  0.00    -0.252 OA
ATOM      8  N   UNL     1      -1.179   3.676  -2.741  0.00  0.00    -0.281 N 
ATOM      9  H   UNL     1      -1.099   4.515  -3.223  0.00  0.00    +0.152 HD
ENDROOT
BRANCH   2  10
ATOM     10  C   UNL     1      -3.574   3.158  -2.723  0.00  0.00    -0.008 A 
ATOM     11  C   UNL     1      -3.755   4.464  -2.384  0.00  0.00    +0.007 A 
ATOM     12  C   UNL     1      -5.031   4.977  -2.160  0.00  0.00    +0.001 A 
ATOM     13  C   UNL     1      -6.133   4.184  -2.261  0.00  0.00    +0.008 A 
ATOM     14  C   UNL     1      -5.985   2.829  -2.603  0.00  0.00    -0.018 A 
ATOM     15  C   UNL     1      -4.687   2.309  -2.837  0.00  0.00    -0.012 A 
ATOM     16  C   UNL     1      -4.539   0.954  -3.178  0.00  0.00    +0.009 A 
ATOM     17  C   UNL     1      -5.641   0.161  -3.279  0.00  0.00    +0.001 A 
ATOM     18  C   UNL     1      -6.917   0.672  -3.049  0.00  0.00    +0.001 A 
ATOM     19  C   UNL     1      -7.099   1.979  -2.717  0.00  0.00    +0.008 A 
ENDBRANCH   2  10
BRANCH   5  20
ATOM     20  C   UNL     1      -0.085   1.340  -0.187  0.00  0.00    +0.214 C 
BRANCH  20  21
ATOM     21  C   UNL     1      -0.715   1.722   1.128  0.00  0.00    +0.235 C 
ATOM     22  O   UNL     1      -1.639   2.507   1.152  0.00  0.00    -0.274 OA
ATOM     23  N   UNL     1      -0.252   1.190   2.277  0.00  0.00    -0.284 N 
ATOM     24  H   UNL     1       0.530   0.617   2.265  0.00  0.00    +0.155 HD
BRANCH  23  25
ATOM     25  C   UNL     1      -0.900   1.465   3.486  0.00  0.00    +0.034 A 
ATOM     26  C   UNL     1      -0.167   1.565   4.661  0.00  0.00    +0.025 A 
ATOM     27  C   UNL     1      -0.809   1.841   5.852  0.00  0.00    +0.030 A 
ATOM     28  C   UNL     1      -2.182   2.008   5.877  0.00  0.00    +0.106 A 
ATOM     29  C   UNL     1      -2.915   1.905   4.709  0.00  0.00    +0.030 A 
ATOM     30  C   UNL     1      -2.279   1.634   3.514  0.00  0.00    +0.025 A 
BRANCH  28  31
ATOM     31  S   UNL     1      -2.998   2.354   7.400  0.00  0.00    +0.060 S 
ATOM     32  O   UNL     1      -2.028   2.940   8.257  0.00  0.00    -0.153 OA
ATOM     33  O   UNL     1      -4.216   3.007   7.069  0.00  0.00    -0.153 OA
BRANCH  31  34
ATOM     34  N   UNL     1      -3.410   0.899   8.076  0.00  0.00    -0.183 NA
ATOM     35  C   UNL     1      -2.477   0.222   8.980  0.00  0.00    +0.131 C 
ATOM     36  C   UNL     1      -4.707   0.290   7.770  0.00  0.00    +0.131 C 
ENDBRANCH  31  34
ENDBRANCH  28  31
ENDBRANCH  23  25
ENDBRANCH  20  21
ENDBRANCH   5  20
TORSDOF 6
