REMARK  Name = ZINC21462677
REMARK  6 active torsions:
REMARK  status: ('A' for Active; 'I' for Inactive)
REMARK    1  A    between atoms: C_1  and  C_2
REMARK    2  A    between atoms: C_11  and  N_26
REMARK    3  A    between atoms: C_13  and  S_15
REMARK    4  A    between atoms: S_15  and  C_16
REMARK    5  A    between atoms: C_16  and  C_17
REMARK    6  A    between atoms: N_22  and  C_23
REMARK                            x       y       z     vdW  Elec       q    Type
REMARK                         _______ _______ _______ _____ _____    ______ ____
ROOT
ATOM      1  C   UNL     1     -10.015   7.930   2.323  0.00  0.00    +0.008 C 
ATOM      2  C   UNL     1      -8.731   7.121   2.127  0.00  0.00    -0.009 C 
ATOM      3  C   UNL     1      -8.945   6.078   1.026  0.00  0.00    +0.008 C 
ATOM      4  C   UNL     1      -7.762   5.110   0.992  0.00  0.00    +0.037 C 
ATOM      5  C   UNL     1      -6.469   5.915   0.894  0.00  0.00    -0.025 A 
ATOM      6  C   UNL     1      -6.445   7.222   1.221  0.00  0.00    -0.004 A 
ATOM      7  S   UNL     1      -4.768   7.734   0.958  0.00  0.00    -0.073 S 
ATOM      8  C   UNL     1      -4.098   6.186   0.409  0.00  0.00    +0.115 A 
ATOM      9  C   UNL     1      -5.208   5.318   0.448  0.00  0.00    +0.051 A 
ATOM     10  C   UNL     1      -4.952   3.977   0.048  0.00  0.00    +0.129 A 
ATOM     11  N   UNL     1      -3.731   3.637  -0.330  0.00  0.00    -0.207 NA
ATOM     12  C   UNL     1      -2.727   4.506  -0.338  0.00  0.00    +0.191 A 
ATOM     13  N   UNL     1      -2.908   5.769   0.025  0.00  0.00    -0.214 NA
ATOM     14  C   UNL     1      -7.591   8.058   1.702  0.00  0.00    +0.046 C 
ENDROOT
BRANCH  10  15
ATOM     15  N   UNL     1      -5.970   3.041   0.047  0.00  0.00    -0.343 N 
ATOM     16  H   UNL     1      -5.765   2.005  -0.263  0.00  0.00    +0.144 HD
ATOM     17  H   UNL     1      -6.984   3.331   0.358  0.00  0.00    +0.144 HD
ENDBRANCH  10  15
BRANCH  12  18
ATOM     18  S   UNL     1      -1.126   3.974  -0.847  0.00  0.00    -0.077 S 
BRANCH  18  19
ATOM     19  C   UNL     1      -1.474   2.234  -1.208  0.00  0.00    +0.173 C 
BRANCH  19  20
ATOM     20  C   UNL     1      -0.211   1.556  -1.675  0.00  0.00    +0.231 C 
ATOM     21  O   UNL     1       0.820   2.188  -1.760  0.00  0.00    -0.274 OA
ATOM     22  N   UNL     1      -0.230   0.249  -2.002  0.00  0.00    -0.239 N 
ATOM     23  C   UNL     1       0.897  -0.356  -2.425  0.00  0.00    +0.306 C 
ATOM     24  O   UNL     1       1.931   0.277  -2.511  0.00  0.00    -0.252 OA
ATOM     25  N   UNL     1       0.878  -1.663  -2.753  0.00  0.00    -0.296 N 
ATOM     26  H   UNL     1      -1.166  -0.324  -1.925  0.00  0.00    +0.159 HD
ATOM     27  H   UNL     1      -0.057  -2.236  -2.675  0.00  0.00    +0.151 HD
BRANCH  25  28
ATOM     28  C   UNL     1       2.104  -2.321  -3.213  0.00  0.00    +0.075 C 
ATOM     29  C   UNL     1       1.994  -3.256  -4.418  0.00  0.00    +0.024 C 
ATOM     30  C   UNL     1       2.210  -3.834  -3.017  0.00  0.00    +0.024 C 
ENDBRANCH  25  28
ENDBRANCH  19  20
ENDBRANCH  18  19
ENDBRANCH  12  18
TORSDOF 5
