REMARK  Name = ZINC19915356
REMARK  4 active torsions:
REMARK  status: ('A' for Active; 'I' for Inactive)
REMARK    1  A    between atoms: C_1  and  C_2
REMARK    2  A    between atoms: C_7  and  C_24
REMARK    3  A    between atoms: C_9  and  N_10
REMARK    4  A    between atoms: N_10  and  C_11
REMARK                            x       y       z     vdW  Elec       q    Type
REMARK                         _______ _______ _______ _____ _____    ______ ____
ROOT
ATOM      1  C   UNL     1      -2.814  -0.681  -0.244  0.00  0.00    +0.041 A 
ATOM      2  C   UNL     1      -3.311   0.188  -1.215  0.00  0.00    +0.024 A 
ATOM      3  C   UNL     1      -3.880  -0.308  -2.370  0.00  0.00    +0.003 A 
ATOM      4  C   UNL     1      -3.980  -1.675  -2.580  0.00  0.00    +0.014 A 
ATOM      5  C   UNL     1      -3.497  -2.556  -1.625  0.00  0.00    +0.057 A 
ATOM      6  C   UNL     1      -2.908  -2.058  -0.444  0.00  0.00    +0.074 A 
ATOM      7  C   UNL     1      -2.405  -3.021   0.553  0.00  0.00    +0.274 A 
ATOM      8  O   UNL     1      -1.891  -2.624   1.582  0.00  0.00    -0.266 OA
ATOM      9  N   UNL     1      -2.518  -4.342   0.317  0.00  0.00    -0.239 N 
ATOM     10  H   UNL     1      -2.145  -5.067   1.055  0.00  0.00    +0.192 HD
ATOM     11  N   UNL     1      -3.100  -4.837  -0.851  0.00  0.00    -0.128 NA
ATOM     12  C   UNL     1      -3.583  -4.021  -1.808  0.00  0.00    +0.295 A 
ATOM     13  O   UNL     1      -4.085  -4.485  -2.813  0.00  0.00    -0.264 OA
ENDROOT
BRANCH   1  14
ATOM     14  N   UNL     1      -2.236  -0.179   0.914  0.00  0.00    -0.340 N 
ATOM     15  H   UNL     1      -1.753  -0.862   1.628  0.00  0.00    +0.146 HD
BRANCH  14  22
ATOM     16  C   UNL     1      -0.492   1.626  -0.531  0.00  0.00    +0.009 C 
ATOM     17  C   UNL     1      -0.886   1.861   0.928  0.00  0.00    +0.006 C 
ATOM     18  C   UNL     1       0.139   1.193   1.847  0.00  0.00    +0.005 C 
ATOM     19  C   UNL     1      -0.256   1.428   3.307  0.00  0.00    +0.001 C 
ATOM     20  C   UNL     1      -1.639   0.828   3.564  0.00  0.00    +0.005 C 
ATOM     21  C   UNL     1      -2.664   1.496   2.645  0.00  0.00    +0.006 C 
ATOM     22  C   UNL     1      -2.270   1.261   1.185  0.00  0.00    +0.076 C 
ATOM     23  C   UNL     1      -4.048   0.896   2.902  0.00  0.00    +0.009 C 
ENDBRANCH  14  22
ENDBRANCH   1  14
TORSDOF 2
