REMARK  Name = ZINC09167553
REMARK  11 active torsions:
REMARK  status: ('A' for Active; 'I' for Inactive)
REMARK    1  A    between atoms: C_1  and  C_2
REMARK    2  A    between atoms: C_2  and  CA_3
REMARK    3  A    between atoms: CA_3  and  C_5
REMARK    4  A    between atoms: CA_3  and  N_75
REMARK    5  A    between atoms: C_5  and  O_6
REMARK    6  A    between atoms: C_7  and  C_8
REMARK    7  A    between atoms: C_11  and  O_38
REMARK    8  A    between atoms: C_14  and  O_37
REMARK    9  A    between atoms: C_23  and  C_36
REMARK   10  A    between atoms: C_24  and  O_35
REMARK   11  A    between atoms: C_27  and  C_29
REMARK                            x       y       z     vdW  Elec       q    Type
REMARK                         _______ _______ _______ _____ _____    ______ ____
ROOT
ATOM      1  C   UNL     1      -5.085   3.777  -1.718  0.00  0.00    +0.036 C 
ATOM      2  C   UNL     1      -6.088   2.645  -1.902  0.00  0.00    +0.018 C 
ATOM      3  C   UNL     1      -7.089   2.990  -3.002  0.00  0.00    +0.032 C 
ATOM      4  C   UNL     1      -6.371   3.266  -4.318  0.00  0.00    +0.117 C 
ATOM      5  C   UNL     1      -5.294   4.329  -4.165  0.00  0.00    +0.067 C 
ATOM      6  C   UNL     1      -4.327   4.034  -3.022  0.00  0.00    +0.079 C 
ATOM      7  C   UNL     1      -3.421   2.865  -3.400  0.00  0.00    +0.036 C 
ATOM      8  C   UNL     1      -2.436   2.563  -2.259  0.00  0.00    +0.009 C 
ATOM      9  C   UNL     1      -3.277   2.207  -1.040  0.00  0.00    +0.025 C 
ATOM     10  C   UNL     1      -4.084   3.432  -0.610  0.00  0.00    +0.009 C 
ATOM     11  C   UNL     1      -4.756   3.150   0.724  0.00  0.00    +0.005 C 
ATOM     12  C   UNL     1      -3.713   2.984   1.846  0.00  0.00    +0.010 C 
ATOM     13  C   UNL     1      -2.383   2.543   1.304  0.00  0.00    +0.004 C 
ATOM     14  C   UNL     1      -2.541   1.585   0.106  0.00  0.00    +0.075 C 
ATOM     15  C   UNL     1      -1.081   1.177  -0.156  0.00  0.00    +0.036 C 
ATOM     16  C   UNL     1      -0.522   0.968   1.278  0.00  0.00    +0.011 C 
ATOM     17  C   UNL     1      -1.463   1.740   2.239  0.00  0.00    +0.027 C 
ATOM     18  C   UNL     1      -1.553   3.784   0.915  0.00  0.00    +0.014 C 
ENDROOT
BRANCH  17  19
ATOM     19  C   UNL     1      -2.206   0.790   3.142  0.00  0.00    -0.022 C 
ATOM     20  C   UNL     1      -2.362  -0.518   2.959  0.00  0.00    +0.094 C 
ATOM     21  C   UNL     1      -3.144  -1.078   4.064  0.00  0.00    +0.332 C 
ATOM     22  O   UNL     1      -3.449  -2.249   4.181  0.00  0.00    -0.246 OA
ATOM     23  O   UNL     1      -3.480  -0.103   4.929  0.00  0.00    -0.457 OA
ATOM     24  C   UNL     1      -2.922   1.143   4.425  0.00  0.00    +0.264 C 
ENDBRANCH  17  19
BRANCH   1  25
ATOM     25  C   UNL     1      -5.809   5.046  -1.323  0.00  0.00    +0.060 C 
ATOM     26  N   UNL     1      -5.699   6.079  -2.127  0.00  0.00    -0.388 N 
ATOM     27  H   UNL     1      -5.139   6.004  -2.985  0.00  0.00    +0.159 HD
BRANCH  26  28
ATOM     28  CA  UNL     1      -6.393   7.369  -1.793  0.00  0.00    +0.104 C 
BRANCH  28  30
ATOM     29  C   UNL     1      -4.447   8.197  -0.462  0.00  0.00    +0.006 C 
ATOM     30  C   UNL     1      -5.335   8.469  -1.678  0.00  0.00    +0.023 C 
ENDBRANCH  28  30
BRANCH  28  31
ATOM     31  C   UNL     1      -7.357   7.707  -2.932  0.00  0.00    +0.180 C 
BRANCH  31  32
ATOM     32  O   UNL     1      -6.617   7.913  -4.137  0.00  0.00    -0.393 OA
ATOM     33  H   UNL     1      -7.165   8.131  -4.903  0.00  0.00    +0.209 HD
ENDBRANCH  31  32
ENDBRANCH  28  31
ENDBRANCH  26  28
ENDBRANCH   1  25
BRANCH  14  34
ATOM     34  O   UNL     1      -3.267   0.404   0.508  0.00  0.00    -0.388 OA
ATOM     35  H   UNL     1      -3.287  -0.294  -0.161  0.00  0.00    +0.210 HD
ENDBRANCH  14  34
BRANCH   6  36
ATOM     36  O   UNL     1      -3.498   5.197  -2.834  0.00  0.00    -0.388 OA
ATOM     37  H   UNL     1      -2.994   5.452  -3.619  0.00  0.00    +0.210 HD
ENDBRANCH   6  36
BRANCH   4  38
ATOM     38  O   UNL     1      -5.820   2.058  -4.842  0.00  0.00    -0.392 OA
ATOM     39  H   UNL     1      -6.477   1.371  -5.021  0.00  0.00    +0.210 HD
ENDBRANCH   4  38
TORSDOF 9
