REMARK  Name = ZINC31576326
REMARK  15 active torsions:
REMARK  status: ('A' for Active; 'I' for Inactive)
REMARK    1  A    between atoms: C_1  and  C_2
REMARK    2  A    between atoms: C_2  and  O_3
REMARK    3  A    between atoms: O_3  and  C_4
REMARK    4  A    between atoms: C_4  and  C_6
REMARK    5  A    between atoms: C_7  and  C_32
REMARK    6  A    between atoms: C_11  and  C_15
REMARK    7  A    between atoms: C_15  and  S_16
REMARK    8  A    between atoms: S_16  and  C_17
REMARK    9  A    between atoms: N_23  and  C_24
REMARK   10  A    between atoms: C_24  and  C_25
REMARK   11  A    between atoms: C_25  and  C_27
REMARK   12  A    between atoms: C_25  and  O_31
REMARK   13  A    between atoms: C_27  and  N_28
REMARK   14  A    between atoms: N_28  and  C_29
REMARK   15  A    between atoms: N_28  and  C_30
REMARK                            x       y       z     vdW  Elec       q    Type
REMARK                         _______ _______ _______ _____ _____    ______ ____
ROOT
ATOM      1  C   UNL     1      10.718  -2.423  -1.569  0.00  0.00    +0.102 A 
ATOM      2  C   UNL     1      10.418  -1.960  -0.324  0.00  0.00    -0.017 A 
ATOM      3  C   UNL     1       9.240  -1.232  -0.116  0.00  0.00    +0.051 A 
ATOM      4  C   UNL     1       8.733  -0.658   1.088  0.00  0.00    +0.131 A 
ATOM      5  N   UNL     1       7.586   0.001   1.056  0.00  0.00    -0.216 NA
ATOM      6  C   UNL     1       6.884   0.141  -0.054  0.00  0.00    +0.142 A 
ATOM      7  N   UNL     1       7.299  -0.365  -1.200  0.00  0.00    -0.224 NA
ATOM      8  C   UNL     1       8.432  -1.034  -1.263  0.00  0.00    +0.115 A 
ATOM      9  S   UNL     1       9.338  -1.856  -2.548  0.00  0.00    -0.062 S 
ATOM     10  N   UNL     1       9.432  -0.785   2.271  0.00  0.00    -0.326 N 
ATOM     11  C   UNL     1      11.352  -2.230   0.828  0.00  0.00    +0.046 C 
ATOM     12  H   UNL     1      10.433  -1.240   2.272  0.00  0.00    +0.148 HD
ENDROOT
BRANCH   1  13
ATOM     13  C   UNL     1      11.887  -3.198  -1.999  0.00  0.00    +0.346 C 
ATOM     14  O   UNL     1      12.744  -3.504  -1.192  0.00  0.00    -0.244 OA
BRANCH  13  15
ATOM     15  O   UNL     1      12.011  -3.571  -3.289  0.00  0.00    -0.461 OA
BRANCH  15  17
ATOM     16  C   UNL     1      13.160  -4.665  -5.137  0.00  0.00    +0.048 C 
ATOM     17  C   UNL     1      13.194  -4.336  -3.643  0.00  0.00    +0.229 C 
ENDBRANCH  15  17
ENDBRANCH  13  15
ENDBRANCH   1  13
BRANCH   6  18
ATOM     18  C   UNL     1       5.584   0.901  -0.013  0.00  0.00    +0.150 C 
BRANCH  18  19
ATOM     19  S   UNL     1       4.224  -0.246   0.343  0.00  0.00    -0.117 S 
BRANCH  19  20
ATOM     20  C   UNL     1       2.793   0.782   0.358  0.00  0.00    +0.008 A 
ATOM     21  C   UNL     1       1.542   0.229   0.605  0.00  0.00    +0.015 A 
ATOM     22  C   UNL     1       0.422   1.038   0.616  0.00  0.00    +0.001 A 
ATOM     23  C   UNL     1       0.545   2.395   0.382  0.00  0.00    +0.000 A 
ATOM     24  C   UNL     1       1.788   2.948   0.136  0.00  0.00    +0.001 A 
ATOM     25  C   UNL     1       2.912   2.146   0.124  0.00  0.00    +0.015 A 
ENDBRANCH  19  20
ENDBRANCH  18  19
ENDBRANCH   6  18
BRANCH  10  26
ATOM     26  C   UNL     1       8.841  -0.314   3.526  0.00  0.00    +0.132 C 
BRANCH  26  27
ATOM     27  C   UNL     1       9.815  -0.571   4.677  0.00  0.00    +0.115 C 
BRANCH  27  28
ATOM     28  O   UNL     1      10.991   0.220   4.492  0.00  0.00    -0.392 OA
ATOM     29  H   UNL     1      11.809   0.168   5.225  0.00  0.00    +0.210 HD
ENDBRANCH  27  28
BRANCH  27  30
ATOM     30  C   UNL     1       9.150  -0.194   6.002  0.00  0.00    -0.046 C 
BRANCH  30  31
ATOM     31  N   UNL     1      10.078  -0.460   7.109  0.00  0.00    +0.378 N 
ATOM     32  C   UNL     1       9.643   0.221   8.336  0.00  0.00    -0.096 C 
ATOM     33  C   UNL     1      10.229  -1.904   7.334  0.00  0.00    -0.096 C 
ATOM     34  H   UNL     1      11.062  -0.057   6.830  0.00  0.00    -0.083 HD
ENDBRANCH  30  31
ENDBRANCH  27  30
ENDBRANCH  26  27
ENDBRANCH  10  26
TORSDOF 11
