REMARK  Name = ZINC20680098
REMARK  5 active torsions:
REMARK  status: ('A' for Active; 'I' for Inactive)
REMARK    1  A    between atoms: C_1  and  C_2
REMARK    2  A    between atoms: C_2  and  C_3
REMARK    3  A    between atoms: C_2  and  C_4
REMARK    4  A    between atoms: C_11  and  C_20
REMARK    5  A    between atoms: C_23  and  O_26
REMARK                            x       y       z     vdW  Elec       q    Type
REMARK                         _______ _______ _______ _____ _____    ______ ____
ROOT
ATOM      1  C   UNL     1       2.745   5.518  -1.376  0.00  0.00    -0.024 A 
ATOM      2  C   UNL     1       2.137   6.688  -0.976  0.00  0.00    +0.006 A 
ATOM      3  C   UNL     1       1.684   6.828   0.323  0.00  0.00    +0.001 A 
ATOM      4  C   UNL     1       1.838   5.785   1.217  0.00  0.00    +0.006 A 
ATOM      5  C   UNL     1       2.441   4.609   0.823  0.00  0.00    -0.019 A 
ATOM      6  C   UNL     1       2.915   4.459  -0.483  0.00  0.00    +0.035 A 
ATOM      7  N   UNL     1       3.572   3.323  -0.950  0.00  0.00    -0.336 N 
ATOM      8  C   UNL     1       3.671   2.186  -0.020  0.00  0.00    +0.105 C 
ATOM      9  C   UNL     1       3.938   2.760   1.357  0.00  0.00    +0.029 C 
ATOM     10  C   UNL     1       2.606   3.470   1.752  0.00  0.00    +0.049 C 
ATOM     11  C   UNL     1       2.743   3.647   3.219  0.00  0.00    -0.023 C 
ATOM     12  C   UNL     1       3.521   2.679   3.690  0.00  0.00    -0.030 C 
ATOM     13  C   UNL     1       4.000   1.788   2.541  0.00  0.00    +0.033 C 
ATOM     14  H   UNL     1       4.006   3.248  -1.958  0.00  0.00    +0.147 HD
ENDROOT
BRANCH   8  15
ATOM     15  C   UNL     1       2.377   1.414  -0.013  0.00  0.00    -0.027 A 
ATOM     16  C   UNL     1       2.369   0.086   0.373  0.00  0.00    +0.009 A 
ATOM     17  C   UNL     1       1.184  -0.625   0.379  0.00  0.00    +0.046 A 
ATOM     18  C   UNL     1       0.002  -0.004  -0.001  0.00  0.00    +0.117 A 
ATOM     19  C   UNL     1       0.014   1.328  -0.386  0.00  0.00    +0.046 A 
ATOM     20  C   UNL     1       1.201   2.034  -0.391  0.00  0.00    +0.009 A 
BRANCH  18  21
ATOM     21  O   UNL     1      -1.164  -0.701   0.005  0.00  0.00    -0.507 OA
ATOM     22  H   UNL     1      -2.101  -0.209  -0.297  0.00  0.00    +0.292 HD
ENDBRANCH  18  21
ENDBRANCH   8  15
BRANCH   1  24
ATOM     23  C   UNL     1       2.052   5.538  -3.757  0.00  0.00    +0.012 C 
ATOM     24  C   UNL     1       3.232   5.381  -2.796  0.00  0.00    +0.015 C 
ATOM     25  C   UNL     1       4.274   6.463  -3.085  0.00  0.00    +0.012 C 
ENDBRANCH   1  24
TORSDOF 3
