REMARK  Name = ZINC13097351
REMARK  11 active torsions:
REMARK  status: ('A' for Active; 'I' for Inactive)
REMARK    1  A    between atoms: C_1  and  C_2
REMARK    2  A    between atoms: C_2  and  O_3
REMARK    3  A    between atoms: O_3  and  C_4
REMARK    4  A    between atoms: C_4  and  C_6
REMARK    5  A    between atoms: C_10  and  N_11
REMARK    6  A    between atoms: C_12  and  C_14
REMARK    7  A    between atoms: N_16  and  C_21
REMARK    8  A    between atoms: C_27  and  C_32
REMARK    9  A    between atoms: C_27  and  C_33
REMARK   10  A    between atoms: C_28  and  C_30
REMARK   11  A    between atoms: C_28  and  C_31
REMARK                            x       y       z     vdW  Elec       q    Type
REMARK                         _______ _______ _______ _____ _____    ______ ____
ROOT
ATOM      1  C   UNL     1       1.517   1.506   1.349  0.00  0.00    +0.091 A 
ATOM      2  C   UNL     1       0.292   0.772   1.596  0.00  0.00    -0.024 A 
ATOM      3  C   UNL     1       0.391  -0.574   1.497  0.00  0.00    -0.016 A 
ATOM      4  S   UNL     1       2.084  -0.870   1.070  0.00  0.00    -0.079 S 
ATOM      5  C   UNL     1       2.654   0.767   1.028  0.00  0.00    +0.087 A 
ATOM      6  C   UNL     1      -0.703  -1.566   1.717  0.00  0.00    -0.041 C 
ATOM      7  C   UNL     1      -2.150   0.443   1.418  0.00  0.00    -0.069 C 
ATOM      8  C   UNL     1      -1.059   1.386   1.928  0.00  0.00    +0.024 C 
ATOM      9  C   UNL     1      -2.159   0.467  -0.113  0.00  0.00    -0.010 C 
ATOM     10  C   UNL     1      -3.507   0.984   1.907  0.00  0.00    -0.010 C 
ATOM     11  C   UNL     1      -0.771  -2.523   0.521  0.00  0.00    -0.005 C 
ATOM     12  C   UNL     1      -0.359  -2.393   2.969  0.00  0.00    -0.005 C 
ATOM     13  N   UNL     1      -2.032  -0.937   1.953  0.00  0.00    +0.389 N 
ATOM     14  H   UNL     1      -2.200  -0.907   2.965  0.00  0.00    -0.084 HD
ATOM     15  H   UNL     1      -2.749  -1.519   1.504  0.00  0.00    -0.084 HD
ENDROOT
BRANCH   5  16
ATOM     16  N   UNL     1       3.927   1.230   0.746  0.00  0.00    -0.274 N 
ATOM     17  C   UNL     1       4.912   0.358   0.454  0.00  0.00    +0.264 C 
ATOM     18  O   UNL     1       4.682  -0.837   0.439  0.00  0.00    -0.268 OA
ATOM     19  H   UNL     1       4.110   2.182   0.758  0.00  0.00    +0.156 HD
BRANCH  17  20
ATOM     20  C   UNL     1       6.261   0.849   0.155  0.00  0.00    +0.122 C 
ATOM     21  N   UNL     1       6.497   2.125   0.174  0.00  0.00    -0.172 NA
ATOM     22  N   UNL     1       7.770   2.629  -0.108  0.00  0.00    -0.160 N 
ATOM     23  C   UNL     1       8.671   1.875  -0.768  0.00  0.00    +0.240 C 
ATOM     24  O   UNL     1       9.772   2.320  -1.015  0.00  0.00    -0.273 OA
ATOM     25  C   UNL     1       8.306   0.478  -1.199  0.00  0.00    +0.104 C 
ATOM     26  C   UNL     1       7.356  -0.135  -0.163  0.00  0.00    +0.071 C 
BRANCH  22  27
ATOM     27  C   UNL     1       8.111   3.925   0.297  0.00  0.00    +0.060 A 
ATOM     28  C   UNL     1       7.256   4.986   0.027  0.00  0.00    +0.025 A 
ATOM     29  C   UNL     1       7.593   6.262   0.433  0.00  0.00    +0.002 A 
ATOM     30  C   UNL     1       8.784   6.487   1.098  0.00  0.00    +0.000 A 
ATOM     31  C   UNL     1       9.640   5.433   1.364  0.00  0.00    +0.002 A 
ATOM     32  C   UNL     1       9.307   4.154   0.966  0.00  0.00    +0.025 A 
ENDBRANCH  22  27
ENDBRANCH  17  20
ENDBRANCH   5  16
BRANCH   1  33
ATOM     33  C   UNL     1       1.572   2.966   1.444  0.00  0.00    +0.342 C 
ATOM     34  O   UNL     1       1.845   3.497   2.503  0.00  0.00    -0.245 OA
BRANCH  33  35
ATOM     35  O   UNL     1       1.319   3.722   0.356  0.00  0.00    -0.461 OA
BRANCH  35  37
ATOM     36  C   UNL     1       1.076   5.848  -0.808  0.00  0.00    +0.048 C 
ATOM     37  C   UNL     1       1.391   5.163   0.523  0.00  0.00    +0.229 C 
ENDBRANCH  35  37
ENDBRANCH  33  35
ENDBRANCH   1  33
TORSDOF 6
