REMARK  Name = ZINC12928187
REMARK  11 active torsions:
REMARK  status: ('A' for Active; 'I' for Inactive)
REMARK    1  A    between atoms: C_1  and  C_2
REMARK    2  A    between atoms: C_2  and  O_3
REMARK    3  A    between atoms: O_3  and  C_4
REMARK    4  A    between atoms: C_9  and  N_10
REMARK    5  A    between atoms: C_11  and  C_13
REMARK    6  A    between atoms: C_15  and  C_25
REMARK    7  A    between atoms: C_16  and  C_24
REMARK    8  A    between atoms: C_17  and  S_19
REMARK    9  A    between atoms: S_19  and  N_22
REMARK   10  A    between atoms: N_22  and  C_23
REMARK   11  A    between atoms: C_27  and  C_30
REMARK                            x       y       z     vdW  Elec       q    Type
REMARK                         _______ _______ _______ _____ _____    ______ ____
ROOT
ATOM      1  N   UNL     1       0.099   1.473  -0.090  0.00  0.00    -0.278 N 
ATOM      2  C   UNL     1       1.291   2.101  -0.069  0.00  0.00    +0.248 C 
ATOM      3  O   UNL     1       1.341   3.313  -0.149  0.00  0.00    -0.270 OA
ATOM      4  H   UNL     1       0.061   0.504  -0.107  0.00  0.00    +0.155 HD
ENDROOT
BRANCH   1  10
ATOM      5  C   UNL     1      -2.255   1.665  -0.610  0.00  0.00    +0.142 A 
ATOM      6  C   UNL     1      -3.425   2.409  -0.607  0.00  0.00    +0.055 A 
ATOM      7  C   UNL     1      -3.428   3.688  -0.093  0.00  0.00    +0.001 A 
ATOM      8  C   UNL     1      -2.267   4.255   0.419  0.00  0.00    +0.126 A 
ATOM      9  C   UNL     1      -1.095   3.505   0.423  0.00  0.00    +0.073 A 
ATOM     10  C   UNL     1      -1.086   2.220  -0.093  0.00  0.00    +0.079 A 
ATOM     11  O   UNL     1      -2.491   5.525   0.857  0.00  0.00    -0.488 OA
ATOM     12  C   UNL     1      -3.901   5.713   1.066  0.00  0.00    +0.175 C 
ATOM     13  C   UNL     1      -4.530   4.718   0.062  0.00  0.00    +0.083 C 
ATOM     14  C   UNL     1      -4.289   5.353   2.501  0.00  0.00    +0.052 C 
BRANCH   5  15
ATOM     15  O   UNL     1      -2.248   0.403  -1.116  0.00  0.00    -0.490 OA
BRANCH  15  17
ATOM     16  C   UNL     1      -3.282  -1.522  -2.150  0.00  0.00    +0.048 C 
ATOM     17  C   UNL     1      -3.485  -0.098  -1.629  0.00  0.00    +0.226 C 
ENDBRANCH  15  17
ENDBRANCH   5  15
ENDBRANCH   1  10
BRANCH   2  18
ATOM     18  C   UNL     1       2.538   1.317   0.053  0.00  0.00    +0.039 A 
ATOM     19  C   UNL     1       2.484  -0.075   0.145  0.00  0.00    +0.016 A 
ATOM     20  C   UNL     1       3.651  -0.801   0.258  0.00  0.00    -0.045 A 
ATOM     21  C   UNL     1       4.873  -0.153   0.280  0.00  0.00    -0.021 A 
ATOM     22  C   UNL     1       4.934   1.226   0.190  0.00  0.00    +0.109 A 
ATOM     23  C   UNL     1       3.774   1.964   0.069  0.00  0.00    +0.042 A 
ATOM     24  C   UNL     1       6.145  -0.953   0.404  0.00  0.00    +0.046 C 
ATOM     25  C   UNL     1       3.595  -2.304   0.358  0.00  0.00    +0.044 C 
BRANCH  22  26
ATOM     26  S   UNL     1       6.495   2.041   0.219  0.00  0.00    +0.058 S 
ATOM     27  O   UNL     1       6.234   3.426   0.039  0.00  0.00    -0.153 OA
ATOM     28  O   UNL     1       7.195   1.538   1.349  0.00  0.00    -0.153 OA
BRANCH  26  29
ATOM     29  N   UNL     1       7.334   1.541  -1.119  0.00  0.00    -0.193 NA
ATOM     30  C   UNL     1       6.864   1.906  -2.457  0.00  0.00    +0.127 C 
ATOM     31  H   UNL     1       8.137   1.006  -1.016  0.00  0.00    +0.148 HD
ENDBRANCH  26  29
ENDBRANCH  22  26
ENDBRANCH   2  18
TORSDOF 6
