REMARK  Name = ZINC30396825
REMARK  5 active torsions:
REMARK  status: ('A' for Active; 'I' for Inactive)
REMARK    1  A    between atoms: C_1  and  C_2
REMARK    2  A    between atoms: C_2  and  C_3
REMARK    3  A    between atoms: C_6  and  N_12
REMARK    4  A    between atoms: C_8  and  N_9
REMARK    5  A    between atoms: C_13  and  C_15
REMARK                            x       y       z     vdW  Elec       q    Type
REMARK                         _______ _______ _______ _____ _____    ______ ____
ROOT
ATOM      1  C   UNL     1      -5.218   7.646  -0.162  0.00  0.00    -0.017 A 
ATOM      2  C   UNL     1      -3.838   7.586  -0.096  0.00  0.00    +0.007 A 
ATOM      3  C   UNL     1      -3.201   6.363  -0.027  0.00  0.00    +0.024 A 
ATOM      4  C   UNL     1      -3.948   5.191  -0.036  0.00  0.00    +0.036 A 
ATOM      5  C   UNL     1      -5.333   5.255  -0.103  0.00  0.00    +0.056 A 
ATOM      6  C   UNL     1      -5.965   6.482  -0.166  0.00  0.00    +0.131 A 
ENDROOT
BRANCH   4   7
ATOM      7  N   UNL     1      -3.305   3.951   0.029  0.00  0.00    -0.280 N 
ATOM      8  C   UNL     1      -3.809   2.896  -0.642  0.00  0.00    +0.265 C 
ATOM      9  O   UNL     1      -4.868   2.999  -1.233  0.00  0.00    -0.268 OA
ATOM     10  H   UNL     1      -2.389   3.836   0.627  0.00  0.00    +0.155 HD
BRANCH   8  11
ATOM     11  C   UNL     1      -3.080   1.623  -0.661  0.00  0.00    +0.103 A 
ATOM     12  C   UNL     1      -3.474   0.468  -1.303  0.00  0.00    +0.047 A 
ATOM     13  C   UNL     1      -2.488  -0.494  -1.060  0.00  0.00    +0.036 A 
ATOM     14  C   UNL     1      -1.530   0.078  -0.291  0.00  0.00    +0.098 A 
ATOM     15  N   UNL     1      -1.881   1.363  -0.037  0.00  0.00    -0.356 N 
ATOM     16  H   UNL     1      -1.383   2.151   0.547  0.00  0.00    +0.165 HD
ATOM     17 BR   UNL     1      -2.491  -2.276  -1.693  0.00  0.00    -0.049 Br
ENDBRANCH   8  11
ENDBRANCH   4   7
BRANCH   6  18
ATOM     18  N   UNL     1      -7.441   6.550  -0.237  0.00  0.00    +0.057 N 
ATOM     19  O   UNL     1      -8.105   5.535  -0.122  0.00  0.00    -0.126 OA
ATOM     20  O   UNL     1      -7.994   7.622  -0.411  0.00  0.00    -0.126 OA
ENDBRANCH   6  18
BRANCH   1  22
ATOM     21  C   UNL     1      -6.251   9.306  -1.688  0.00  0.00    +0.009 C 
ATOM     22  C   UNL     1      -5.911   8.983  -0.232  0.00  0.00    +0.034 C 
ENDBRANCH   1  22
TORSDOF 4
