REMARK  Name = ZINC20828659
REMARK  8 active torsions:
REMARK  status: ('A' for Active; 'I' for Inactive)
REMARK    1  A    between atoms: C_1  and  C_2
REMARK    2  A    between atoms: C_2  and  N_3
REMARK    3  A    between atoms: N_6  and  C_9
REMARK    4  A    between atoms: C_9  and  C_10
REMARK    5  A    between atoms: C_10  and  C_12
REMARK    6  A    between atoms: C_10  and  O_36
REMARK    7  A    between atoms: C_12  and  N_13
REMARK    8  A    between atoms: C_20  and  C_30
REMARK                            x       y       z     vdW  Elec       q    Type
REMARK                         _______ _______ _______ _____ _____    ______ ____
ROOT
ATOM      1  N   UNL     1      -0.741   1.444   3.712  0.00  0.00    +0.388 N 
ATOM      2  C   UNL     1      -2.032   0.743   3.764  0.00  0.00    -0.056 C 
ATOM      3  C   UNL     1      -2.977   1.390   4.785  0.00  0.00    +0.103 C 
ATOM      4  N   UNL     1      -2.242   1.562   6.047  0.00  0.00    -0.347 N 
ATOM      5  C   UNL     1      -2.699   1.831   7.301  0.00  0.00    +0.049 A 
ATOM      6  C   UNL     1      -3.986   1.997   7.808  0.00  0.00    +0.027 A 
ATOM      7  C   UNL     1      -4.105   2.273   9.158  0.00  0.00    +0.006 A 
ATOM      8  C   UNL     1      -3.001   2.382   9.988  0.00  0.00    -0.044 A 
ATOM      9  C   UNL     1      -1.721   2.222   9.523  0.00  0.00    +0.014 A 
ATOM     10  C   UNL     1      -1.565   1.940   8.161  0.00  0.00    +0.003 A 
ATOM     11  C   UNL     1      -0.414   1.707   7.333  0.00  0.00    -0.020 A 
ATOM     12  C   UNL     1      -0.878   1.474   6.090  0.00  0.00    +0.009 A 
ATOM     13  C   UNL     1       0.048   1.177   4.932  0.00  0.00    -0.020 C 
ATOM     14  C   UNL     1       1.237   2.120   5.023  0.00  0.00    -0.009 C 
ATOM     15  C   UNL     1       1.769   2.390   6.409  0.00  0.00    +0.003 C 
ATOM     16  C   UNL     1       1.071   1.691   7.567  0.00  0.00    +0.037 C 
ATOM     17  H   UNL     1      -0.943   2.524   3.658  0.00  0.00    -0.081 HD
ENDROOT
BRANCH   8  18
ATOM     18  C   UNL     1      -3.214   2.688  11.449  0.00  0.00    +0.019 C 
ATOM     19  C   UNL     1      -4.063   1.583  12.082  0.00  0.00    +0.008 C 
ATOM     20  C   UNL     1      -4.279   1.893  13.565  0.00  0.00    +0.001 C 
ATOM     21  C   UNL     1      -5.000   3.235  13.706  0.00  0.00    +0.000 C 
ATOM     22  C   UNL     1      -4.151   4.339  13.072  0.00  0.00    +0.001 C 
ATOM     23  C   UNL     1      -3.936   4.029  11.589  0.00  0.00    +0.008 C 
ENDBRANCH   8  18
BRANCH   1  24
ATOM     24  C   UNL     1       0.011   1.072   2.506  0.00  0.00    -0.045 C 
BRANCH  24  25
ATOM     25  C   UNL     1      -0.729   1.579   1.267  0.00  0.00    +0.112 C 
BRANCH  25  26
ATOM     26  O   UNL     1      -0.748   3.008   1.275  0.00  0.00    -0.392 OA
ATOM     27  H   UNL     1      -1.224   3.547   2.107  0.00  0.00    +0.210 HD
ENDBRANCH  25  26
BRANCH  25  28
ATOM     28  C   UNL     1      -0.013   1.086   0.008  0.00  0.00    +0.113 C 
BRANCH  28  32
ATOM     29  N   UNL     1      -2.012   1.308  -3.707  0.00  0.00    +0.381 N 
ATOM     30  C   UNL     1      -0.677   1.914  -3.606  0.00  0.00    -0.063 C 
ATOM     31  C   UNL     1       0.059   1.323  -2.401  0.00  0.00    +0.066 C 
ATOM     32  N   UNL     1      -0.723   1.572  -1.182  0.00  0.00    -0.303 NA
ATOM     33  C   UNL     1      -2.058   0.966  -1.283  0.00  0.00    +0.066 C 
ATOM     34  C   UNL     1      -2.794   1.557  -2.488  0.00  0.00    -0.063 C 
ATOM     35  H   UNL     1      -1.885   0.220  -3.812  0.00  0.00    -0.082 HD
BRANCH  29  37
ATOM     36  C   UNL     1      -3.992   0.967  -5.107  0.00  0.00    -0.017 C 
ATOM     37  C   UNL     1      -2.723   1.794  -4.897  0.00  0.00    -0.082 C 
ENDBRANCH  29  37
ENDBRANCH  28  32
ENDBRANCH  25  28
ENDBRANCH  24  25
ENDBRANCH   1  24
TORSDOF 7
