REMARK  Name = ZINC39694249
REMARK  9 active torsions:
REMARK  status: ('A' for Active; 'I' for Inactive)
REMARK    1  A    between atoms: C_1  and  C_2
REMARK    2  A    between atoms: C_2  and  C_3
REMARK    3  A    between atoms: C_3  and  C_4
REMARK    4  A    between atoms: C_4  and  C_6
REMARK    5  A    between atoms: C_4  and  C_7
REMARK    6  A    between atoms: C_11  and  C_20
REMARK    7  A    between atoms: N_22  and  C_23
REMARK    8  A    between atoms: C_23  and  C_24
REMARK    9  A    between atoms: C_29  and  N_30
REMARK                            x       y       z     vdW  Elec       q    Type
REMARK                         _______ _______ _______ _____ _____    ______ ____
ROOT
ATOM      1  C   UNL     1       1.718  -2.645  -3.263  0.00  0.00    +0.218 C 
ATOM      2  O   UNL     1       1.853  -1.964  -4.257  0.00  0.00    -0.275 OA
ATOM      3  N   UNL     1       1.621  -3.985  -3.372  0.00  0.00    -0.300 N 
ATOM      4  C   UNL     1       1.447  -4.974  -2.283  0.00  0.00    +0.121 C 
ATOM      5  C   UNL     1       0.462  -6.017  -2.857  0.00  0.00    +0.100 C 
ATOM      6  C   UNL     1       0.611  -5.900  -4.383  0.00  0.00    -0.004 C 
ATOM      7  C   UNL     1       1.659  -4.801  -4.609  0.00  0.00    +0.115 C 
ATOM      8  C   UNL     1      -0.717  -5.492  -5.014  0.00  0.00    -0.010 C 
ATOM      9  C   UNL     1      -0.558  -5.437  -6.536  0.00  0.00    -0.082 C 
ATOM     10  N   UNL     1      -0.141  -6.754  -7.033  0.00  0.00    +0.379 N 
ATOM     11  C   UNL     1       1.181  -7.098  -6.494  0.00  0.00    -0.082 C 
ATOM     12  C   UNL     1       1.095  -7.222  -4.970  0.00  0.00    -0.010 C 
ATOM     13  H   UNL     1      -0.812  -7.449  -6.744  0.00  0.00    -0.086 HD
ATOM     14  H   UNL     1      -0.096  -6.732  -8.041  0.00  0.00    -0.086 HD
ENDROOT
BRANCH   5  15
ATOM     15  C   UNL     1       0.836  -7.402  -2.395  0.00  0.00    +0.218 C 
ATOM     16  O   UNL     1       1.998  -7.749  -2.399  0.00  0.00    -0.275 OA
ATOM     17  N   UNL     1      -0.121  -8.255  -1.979  0.00  0.00    -0.311 N 
ATOM     18  H   UNL     1      -1.050  -7.977  -1.976  0.00  0.00    +0.149 HD
BRANCH  17  19
ATOM     19  C   UNL     1       0.242  -9.601  -1.530  0.00  0.00    +0.141 C 
BRANCH  19  20
ATOM     20  C   UNL     1      -1.001 -10.347  -1.120  0.00  0.00    -0.009 A 
ATOM     21  C   UNL     1      -1.337 -10.450   0.216  0.00  0.00    +0.007 A 
ATOM     22  C   UNL     1      -2.477 -11.135   0.593  0.00  0.00    +0.000 A 
ATOM     23  C   UNL     1      -3.286 -11.718  -0.366  0.00  0.00    +0.002 A 
ATOM     24  C   UNL     1      -2.957 -11.618  -1.703  0.00  0.00    +0.023 A 
ATOM     25  C   UNL     1      -1.815 -10.926  -2.086  0.00  0.00    +0.035 A 
BRANCH  25  26
ATOM     26  N   UNL     1      -1.482 -10.818  -3.438  0.00  0.00    -0.325 N 
ATOM     27  C   UNL     1      -0.640 -11.831  -4.093  0.00  0.00    +0.133 C 
ATOM     28  C   UNL     1      -1.342 -12.286  -5.378  0.00  0.00    +0.178 C 
ATOM     29  O   UNL     1      -1.680 -11.138  -6.161  0.00  0.00    -0.377 OA
ATOM     30  C   UNL     1      -2.601 -10.248  -5.526  0.00  0.00    +0.178 C 
ATOM     31  C   UNL     1      -1.968  -9.692  -4.250  0.00  0.00    +0.133 C 
ENDBRANCH  25  26
ENDBRANCH  19  20
ENDBRANCH  17  19
ENDBRANCH   5  15
BRANCH   1  32
ATOM     32  C   UNL     1       1.657  -1.993  -1.906  0.00  0.00    +0.072 C 
ATOM     33  C   UNL     1       2.801  -2.518  -1.036  0.00  0.00    +0.017 C 
BRANCH  32  34
ATOM     34  C   UNL     1       1.789  -0.476  -2.062  0.00  0.00    +0.012 C 
BRANCH  34  36
ATOM     35  C   UNL     1       1.735   1.711  -0.856  0.00  0.00    +0.004 C 
ATOM     36  C   UNL     1       1.603   0.195  -0.700  0.00  0.00    -0.003 C 
ENDBRANCH  34  36
ENDBRANCH  32  34
ENDBRANCH   1  32
TORSDOF 7
