REMARK  Name = ZINC34774566
REMARK  8 active torsions:
REMARK  status: ('A' for Active; 'I' for Inactive)
REMARK    1  A    between atoms: C_1  and  C_2
REMARK    2  A    between atoms: C_2  and  C_3
REMARK    3  A    between atoms: C_3  and  N_4
REMARK    4  A    between atoms: C_12  and  C_30
REMARK    5  A    between atoms: C_17  and  S_19
REMARK    6  A    between atoms: S_19  and  C_20
REMARK    7  A    between atoms: C_20  and  C_21
REMARK    8  A    between atoms: C_24  and  N_27
REMARK                            x       y       z     vdW  Elec       q    Type
REMARK                         _______ _______ _______ _____ _____    ______ ____
ROOT
ATOM      1  N   UNL     1       0.973  -3.633   0.515  0.00  0.00    +0.382 N 
ATOM      2  C   UNL     1       1.557  -4.975   0.396  0.00  0.00    -0.060 C 
ATOM      3  C   UNL     1       1.889  -5.258  -1.072  0.00  0.00    +0.088 C 
ATOM      4  N   UNL     1       0.673  -5.052  -1.874  0.00  0.00    -0.318 N 
ATOM      5  C   UNL     1      -0.070  -3.795  -1.696  0.00  0.00    +0.088 C 
ATOM      6  C   UNL     1      -0.310  -3.581  -0.198  0.00  0.00    -0.060 C 
ATOM      7  C   UNL     1       0.240  -6.014  -2.770  0.00  0.00    +0.134 A 
ATOM      8  C   UNL     1       0.922  -6.205  -4.002  0.00  0.00    +0.055 A 
ATOM      9  C   UNL     1       2.092  -5.513  -4.534  0.00  0.00    +0.002 A 
ATOM     10  C   UNL     1       2.568  -5.876  -5.748  0.00  0.00    +0.056 A 
ATOM     11  S   UNL     1       1.464  -7.181  -6.254  0.00  0.00    -0.076 S 
ATOM     12  C   UNL     1       0.397  -7.211  -4.838  0.00  0.00    +0.115 A 
ATOM     13  N   UNL     1      -0.659  -7.919  -4.485  0.00  0.00    -0.214 NA
ATOM     14  C   UNL     1      -1.256  -7.697  -3.321  0.00  0.00    +0.191 A 
ATOM     15  N   UNL     1      -0.808  -6.767  -2.485  0.00  0.00    -0.206 NA
ATOM     16  H   UNL     1       1.606  -2.957   0.115  0.00  0.00    -0.082 HD
ENDROOT
BRANCH   9  17
ATOM     17  C   UNL     1       2.747  -4.432  -3.760  0.00  0.00    -0.017 A 
ATOM     18  C   UNL     1       2.029  -3.289  -3.408  0.00  0.00    +0.008 A 
ATOM     19  C   UNL     1       2.643  -2.286  -2.687  0.00  0.00    +0.001 A 
ATOM     20  C   UNL     1       3.969  -2.413  -2.312  0.00  0.00    +0.000 A 
ATOM     21  C   UNL     1       4.687  -3.544  -2.658  0.00  0.00    +0.001 A 
ATOM     22  C   UNL     1       4.081  -4.556  -3.374  0.00  0.00    +0.008 A 
ENDBRANCH   9  17
BRANCH   1  23
ATOM     23  C   UNL     1       0.756  -3.319   1.933  0.00  0.00    -0.079 C 
BRANCH  23  25
ATOM     24  C   UNL     1       1.878  -2.922   4.130  0.00  0.00    +0.002 C 
ATOM     25  C   UNL     1       2.104  -3.250   2.652  0.00  0.00    -0.022 C 
ENDBRANCH  23  25
ENDBRANCH   1  23
BRANCH  14  26
ATOM     26  S   UNL     1      -2.665  -8.656  -2.875  0.00  0.00    -0.081 S 
BRANCH  26  27
ATOM     27  C   UNL     1      -2.899  -9.773  -4.284  0.00  0.00    +0.112 C 
BRANCH  27  28
ATOM     28  C   UNL     1      -4.089 -10.662  -4.028  0.00  0.00    -0.037 A 
ATOM     29  C   UNL     1      -3.921 -11.874  -3.385  0.00  0.00    +0.007 A 
ATOM     30  C   UNL     1      -5.013 -12.689  -3.150  0.00  0.00    +0.033 A 
ATOM     31  C   UNL     1      -6.272 -12.292  -3.558  0.00  0.00    +0.126 A 
ATOM     32  C   UNL     1      -6.441 -11.079  -4.200  0.00  0.00    +0.033 A 
ATOM     33  C   UNL     1      -5.350 -10.262  -4.431  0.00  0.00    +0.007 A 
BRANCH  31  34
ATOM     34  N   UNL     1      -7.441 -13.165  -3.307  0.00  0.00    +0.056 N 
ATOM     35  O   UNL     1      -7.294 -14.225  -2.745  0.00  0.00    -0.126 OA
ATOM     36  O   UNL     1      -8.543 -12.818  -3.664  0.00  0.00    -0.126 OA
ENDBRANCH  31  34
ENDBRANCH  27  28
ENDBRANCH  26  27
ENDBRANCH  14  26
TORSDOF 7
