REMARK  Name = ZINC35442755
REMARK  9 active torsions:
REMARK  status: ('A' for Active; 'I' for Inactive)
REMARK    1  A    between atoms: C_1  and  C_2
REMARK    2  A    between atoms: C_4  and  C_27
REMARK    3  A    between atoms: C_6  and  C_24
REMARK    4  A    between atoms: C_9  and  C_11
REMARK    5  A    between atoms: C_11  and  C_12
REMARK    6  A    between atoms: C_15  and  C_17
REMARK    7  A    between atoms: C_24  and  C_25
REMARK    8  A    between atoms: C_24  and  C_26
REMARK    9  A    between atoms: C_27  and  N_28
REMARK                            x       y       z     vdW  Elec       q    Type
REMARK                         _______ _______ _______ _____ _____    ______ ____
ROOT
ATOM      1  C   UNL     1      -0.353   1.088  -0.137  0.00  0.00    +0.039 C 
ATOM      2  C   UNL     1       0.029  -0.369  -0.087  0.00  0.00    -0.073 C 
ATOM      3  C   UNL     1       0.269  -0.973  -1.207  0.00  0.00    -0.026 C 
ATOM      4  C   UNL     1       0.649  -2.420  -1.318  0.00  0.00    -0.002 C 
ATOM      5  C   UNL     1       1.119  -2.947   0.040  0.00  0.00    -0.003 C 
ATOM      6  C   UNL     1       0.082  -2.552   1.099  0.00  0.00    +0.012 C 
ATOM      7  C   UNL     1       0.112  -1.029   1.258  0.00  0.00    +0.024 C 
ENDROOT
BRANCH   5   8
ATOM      8  C   UNL     1       1.249  -4.470  -0.017  0.00  0.00    -0.014 C 
ATOM      9  C   UNL     1       1.873  -4.978   1.285  0.00  0.00    +0.007 C 
ATOM     10  C   UNL     1      -0.137  -5.094  -0.195  0.00  0.00    +0.007 C 
ENDBRANCH   5   8
BRANCH   7  11
ATOM     11  C   UNL     1       1.413  -0.612   1.947  0.00  0.00    +0.105 C 
BRANCH  11  12
ATOM     12  C   UNL     1       1.380   0.868   2.229  0.00  0.00    +0.218 A 
ATOM     13  N   UNL     1       0.932   1.435   3.314  0.00  0.00    -0.112 NA
ATOM     14  N   UNL     1       1.056   2.712   3.214  0.00  0.00    -0.107 NA
ATOM     15  C   UNL     1       1.593   3.005   2.053  0.00  0.00    +0.251 A 
ATOM     16  O   UNL     1       1.814   1.841   1.410  0.00  0.00    -0.420 OA
BRANCH  15  17
ATOM     17  C   UNL     1       1.903   4.359   1.548  0.00  0.00    +0.074 A 
ATOM     18  C   UNL     1       2.471   4.522   0.283  0.00  0.00    +0.016 A 
ATOM     19  C   UNL     1       2.758   5.788  -0.183  0.00  0.00    +0.001 A 
ATOM     20  C   UNL     1       2.485   6.897   0.600  0.00  0.00    +0.003 A 
ATOM     21  C   UNL     1       1.923   6.745   1.854  0.00  0.00    +0.039 A 
ATOM     22  C   UNL     1       1.624   5.482   2.332  0.00  0.00    +0.136 A 
ATOM     23  F   UNL     1       1.069   5.334   3.554  0.00  0.00    -0.205 F 
ENDBRANCH  15  17
ENDBRANCH  11  12
ENDBRANCH   7  11
BRANCH   4  24
ATOM     24  C   UNL     1       1.781  -2.571  -2.337  0.00  0.00    -0.071 C 
BRANCH  24  25
ATOM     25  N   UNL     1       1.302  -2.164  -3.664  0.00  0.00    +0.382 N 
ATOM     26  C   UNL     1       0.244  -3.083  -4.104  0.00  0.00    -0.060 C 
ATOM     27  C   UNL     1      -0.335  -2.594  -5.436  0.00  0.00    +0.088 C 
ATOM     28  N   UNL     1       0.769  -2.435  -6.394  0.00  0.00    -0.319 N 
ATOM     29  C   UNL     1       1.948  -1.662  -5.973  0.00  0.00    +0.088 C 
ATOM     30  C   UNL     1       2.419  -2.195  -4.616  0.00  0.00    -0.060 C 
ATOM     31  C   UNL     1       0.701  -3.000  -7.663  0.00  0.00    +0.121 A 
ATOM     32  C   UNL     1      -0.502  -3.529  -8.118  0.00  0.00    +0.043 A 
ATOM     33  C   UNL     1      -0.556  -4.088  -9.382  0.00  0.00    +0.005 A 
ATOM     34  C   UNL     1       0.601  -4.099 -10.151  0.00  0.00    +0.020 A 
ATOM     35  C   UNL     1       1.760  -3.557  -9.636  0.00  0.00    +0.113 A 
ATOM     36  N   UNL     1       1.781  -3.025  -8.429  0.00  0.00    -0.240 NA
ATOM     37  H   UNL     1       0.930  -1.227  -3.614  0.00  0.00    -0.082 HD
ENDBRANCH  24  25
ENDBRANCH   4  24
TORSDOF 6
