REMARK  Name = ZINC14467870
REMARK  7 active torsions:
REMARK  status: ('A' for Active; 'I' for Inactive)
REMARK    1  A    between atoms: C_1  and  C_2
REMARK    2  A    between atoms: C_2  and  C_3
REMARK    3  A    between atoms: C_3  and  C_5
REMARK    4  A    between atoms: C_3  and  O_6
REMARK    5  A    between atoms: O_6  and  C_7
REMARK    6  A    between atoms: C_20  and  C_23
REMARK    7  A    between atoms: C_28  and  O_29
REMARK                            x       y       z     vdW  Elec       q    Type
REMARK                         _______ _______ _______ _____ _____    ______ ____
ROOT
ATOM      1  C   UNL     1       4.809   0.586   1.943  0.00  0.00    +0.121 A 
ATOM      2  C   UNL     1       5.072   0.562   0.581  0.00  0.00    +0.047 A 
ATOM      3  C   UNL     1       4.643   1.605  -0.216  0.00  0.00    +0.027 A 
ATOM      4  C   UNL     1       3.955   2.673   0.345  0.00  0.00    +0.032 A 
ATOM      5  C   UNL     1       3.691   2.705   1.705  0.00  0.00    -0.016 A 
ATOM      6  C   UNL     1       4.123   1.651   2.500  0.00  0.00    +0.051 A 
ATOM      7  C   UNL     1       2.958   3.836   2.353  0.00  0.00    +0.049 C 
ATOM      8  C   UNL     1       1.544   3.444   2.709  0.00  0.00    -0.023 C 
ATOM      9  C   UNL     1       0.731   4.465   2.531  0.00  0.00    -0.030 C 
ATOM     10  C   UNL     1       1.497   5.675   2.034  0.00  0.00    +0.033 C 
ATOM     11  C   UNL     1       2.791   5.059   1.425  0.00  0.00    +0.029 C 
ATOM     12  C   UNL     1       2.450   4.593   0.007  0.00  0.00    +0.109 C 
ATOM     13  N   UNL     1       3.526   3.722  -0.480  0.00  0.00    -0.336 N 
ATOM     14  H   UNL     1       3.929   3.868  -1.349  0.00  0.00    +0.147 HD
ENDROOT
BRANCH  12  15
ATOM     15  C   UNL     1       1.151   3.829   0.025  0.00  0.00    +0.017 A 
ATOM     16  C   UNL     1       1.155   2.463   0.239  0.00  0.00    +0.029 A 
ATOM     17  C   UNL     1      -0.036   1.761   0.256  0.00  0.00    +0.043 A 
ATOM     18  C   UNL     1      -1.235   2.422   0.052  0.00  0.00    +0.043 A 
ATOM     19  C   UNL     1      -1.244   3.789  -0.157  0.00  0.00    +0.084 A 
ATOM     20  C   UNL     1      -0.048   4.495  -0.173  0.00  0.00    +0.140 A 
ATOM     21 CL   UNL     1      -2.748   4.620  -0.405  0.00  0.00    -0.080 Cl
ATOM     22 CL   UNL     1      -0.028   0.046   0.525  0.00  0.00    -0.083 Cl
BRANCH  20  23
ATOM     23  O   UNL     1      -0.054   5.838  -0.384  0.00  0.00    -0.505 OA
ATOM     24  H   UNL     1       0.013   6.091  -1.315  0.00  0.00    +0.292 HD
ENDBRANCH  20  23
ENDBRANCH  12  15
BRANCH   1  25
ATOM     25  O   UNL     1       5.226  -0.440   2.732  0.00  0.00    -0.489 OA
BRANCH  25  26
ATOM     26  C   UNL     1       6.030  -1.448   2.116  0.00  0.00    +0.170 C 
ATOM     27  C   UNL     1       5.124  -2.486   1.450  0.00  0.00    +0.052 C 
BRANCH  26  29
ATOM     28  C   UNL     1       7.886  -1.120   3.755  0.00  0.00    +0.007 C 
ATOM     29  C   UNL     1       6.894  -2.131   3.177  0.00  0.00    +0.041 C 
ENDBRANCH  26  29
ENDBRANCH  25  26
ENDBRANCH   1  25
TORSDOF 5
