REMARK  Name = ZINC05522861
REMARK  4 active torsions:
REMARK  status: ('A' for Active; 'I' for Inactive)
REMARK    1  A    between atoms: C_4  and  C_7
REMARK    2  A    between atoms: C_7  and  N_8
REMARK    3  A    between atoms: N_16  and  N_17
REMARK    4  A    between atoms: C_18  and  C_20
REMARK                            x       y       z     vdW  Elec       q    Type
REMARK                         _______ _______ _______ _____ _____    ______ ____
ROOT
ATOM      1  N   UNL     1       4.152  -0.952   1.338  0.00  0.00    -0.261 N 
ATOM      2  C   UNL     1       4.944  -0.078   2.074  0.00  0.00    +0.046 A 
ATOM      3  C   UNL     1       5.496   1.158   1.757  0.00  0.00    +0.024 A 
ATOM      4  C   UNL     1       6.260   1.835   2.686  0.00  0.00    +0.002 A 
ATOM      5  C   UNL     1       6.487   1.294   3.941  0.00  0.00    +0.001 A 
ATOM      6  C   UNL     1       5.948   0.067   4.274  0.00  0.00    +0.012 A 
ATOM      7  C   UNL     1       5.176  -0.621   3.344  0.00  0.00    +0.028 A 
ATOM      8  C   UNL     1       4.470  -1.923   3.378  0.00  0.00    +0.153 C 
ATOM      9  N   UNL     1       4.414  -2.776   4.372  0.00  0.00    -0.174 NA
ATOM     10  C   UNL     1       3.837  -2.048   2.050  0.00  0.00    +0.272 C 
ATOM     11  O   UNL     1       3.154  -2.979   1.666  0.00  0.00    -0.268 OA
ENDROOT
BRANCH   9  12
ATOM     12  N   UNL     1       3.695  -3.970   4.232  0.00  0.00    -0.201 N 
ATOM     13  C   UNL     1       3.638  -4.847   5.254  0.00  0.00    +0.282 C 
ATOM     14  O   UNL     1       4.210  -4.601   6.297  0.00  0.00    -0.267 OA
ATOM     15  H   UNL     1       3.238  -4.166   3.399  0.00  0.00    +0.178 HD
BRANCH  13  16
ATOM     16  C   UNL     1       2.877  -6.109   5.105  0.00  0.00    +0.128 A 
ATOM     17  C   UNL     1       2.824  -7.008   6.182  0.00  0.00    +0.034 A 
ATOM     18  C   UNL     1       2.126  -8.175   6.058  0.00  0.00    +0.012 A 
ATOM     19  C   UNL     1       1.477  -8.436   4.836  0.00  0.00    +0.000 A 
ATOM     20  C   UNL     1       0.741  -9.616   4.639  0.00  0.00    +0.010 A 
ATOM     21  C   UNL     1       0.126  -9.835   3.445  0.00  0.00    +0.001 A 
ATOM     22  C   UNL     1       0.216  -8.903   2.412  0.00  0.00    +0.002 A 
ATOM     23  C   UNL     1       0.920  -7.749   2.565  0.00  0.00    +0.028 A 
ATOM     24  C   UNL     1       1.570  -7.486   3.786  0.00  0.00    +0.072 A 
ATOM     25  N   UNL     1       2.262  -6.361   3.966  0.00  0.00    -0.242 NA
ENDBRANCH  13  16
ENDBRANCH   9  12
BRANCH   1  26
ATOM     26  C   UNL     1       3.711  -0.707  -0.038  0.00  0.00    +0.149 C 
BRANCH  26  30
ATOM     27  C   UNL     1      -0.017   1.378   0.010  0.00  0.00    +0.000 A 
ATOM     28  C   UNL     1       1.171   2.086   0.002  0.00  0.00    +0.000 A 
ATOM     29  C   UNL     1       2.377   1.411  -0.013  0.00  0.00    +0.005 A 
ATOM     30  C   UNL     1       2.396   0.029  -0.020  0.00  0.00    -0.030 A 
ATOM     31  C   UNL     1       1.208  -0.679  -0.012  0.00  0.00    +0.005 A 
ATOM     32  C   UNL     1       0.002  -0.004   0.002  0.00  0.00    +0.000 A 
ENDBRANCH  26  30
ENDBRANCH   1  26
TORSDOF 4
