REMARK  Name = ZINC39664173
REMARK  12 active torsions:
REMARK  status: ('A' for Active; 'I' for Inactive)
REMARK    1  A    between atoms: C_1  and  C_2
REMARK    2  A    between atoms: C_2  and  C_3
REMARK    3  A    between atoms: C_3  and  C_5
REMARK    4  A    between atoms: C_3  and  C_6
REMARK    5  A    between atoms: C_6  and  C_7
REMARK    6  A    between atoms: C_11  and  C_20
REMARK    7  A    between atoms: N_22  and  C_23
REMARK    8  A    between atoms: C_23  and  C_24
REMARK    9  A    between atoms: C_24  and  C_26
REMARK   10  A    between atoms: C_24  and  N_34
REMARK   11  A    between atoms: C_29  and  O_32
REMARK   12  A    between atoms: O_32  and  C_33
REMARK                            x       y       z     vdW  Elec       q    Type
REMARK                         _______ _______ _______ _____ _____    ______ ____
ROOT
ATOM      1  C   UNL     1       3.282  -5.673   0.052  0.00  0.00    +0.218 C 
ATOM      2  O   UNL     1       3.252  -4.585  -0.484  0.00  0.00    -0.275 OA
ATOM      3  N   UNL     1       4.138  -6.616  -0.387  0.00  0.00    -0.316 N 
ATOM      4  H   UNL     1       4.163  -7.486   0.042  0.00  0.00    +0.149 HD
ENDROOT
BRANCH   1   9
ATOM      5  C   UNL     1       0.987  -2.654   1.692  0.00  0.00    +0.216 C 
ATOM      6  O   UNL     1       1.280  -1.781   2.482  0.00  0.00    -0.276 OA
ATOM      7  N   UNL     1       1.334  -3.932   1.941  0.00  0.00    -0.300 N 
ATOM      8  C   UNL     1       1.073  -5.124   1.100  0.00  0.00    +0.121 C 
ATOM      9  C   UNL     1       2.362  -5.969   1.208  0.00  0.00    +0.100 C 
ATOM     10  C   UNL     1       3.007  -5.532   2.534  0.00  0.00    -0.004 C 
ATOM     11  C   UNL     1       2.070  -4.462   3.114  0.00  0.00    +0.115 C 
ATOM     12  C   UNL     1       4.387  -4.933   2.279  0.00  0.00    -0.010 C 
ATOM     13  C   UNL     1       5.031  -4.559   3.617  0.00  0.00    -0.082 C 
ATOM     14  N   UNL     1       5.143  -5.756   4.459  0.00  0.00    +0.379 N 
ATOM     15  C   UNL     1       3.806  -6.272   4.777  0.00  0.00    -0.082 C 
ATOM     16  C   UNL     1       3.110  -6.718   3.488  0.00  0.00    -0.010 C 
ATOM     17  H   UNL     1       5.668  -6.464   3.968  0.00  0.00    -0.086 HD
ATOM     18  H   UNL     1       5.623  -5.519   5.315  0.00  0.00    -0.086 HD
BRANCH   5  19
ATOM     19  C   UNL     1       0.234  -2.308   0.433  0.00  0.00    +0.099 C 
BRANCH  19  20
ATOM     20  C   UNL     1      -0.034  -0.802   0.396  0.00  0.00    -0.006 C 
ATOM     21  C   UNL     1      -0.970  -0.422   1.545  0.00  0.00    +0.008 C 
BRANCH  20  23
ATOM     22  C   UNL     1      -0.840   1.086  -1.027  0.00  0.00    +0.004 C 
ATOM     23  C   UNL     1      -0.686  -0.433  -0.938  0.00  0.00    +0.000 C 
ENDBRANCH  20  23
ENDBRANCH  19  20
ENDBRANCH   5  19
ENDBRANCH   1   9
BRANCH   3  24
ATOM     24  C   UNL     1       5.033  -6.328  -1.510  0.00  0.00    +0.093 C 
BRANCH  24  25
ATOM     25  C   UNL     1       5.795  -7.598  -1.894  0.00  0.00    -0.020 C 
BRANCH  25  26
ATOM     26  C   UNL     1       4.826  -8.626  -2.420  0.00  0.00    -0.059 A 
ATOM     27  C   UNL     1       4.378  -8.547  -3.726  0.00  0.00    +0.005 A 
ATOM     28  C   UNL     1       3.489  -9.488  -4.210  0.00  0.00    +0.046 A 
ATOM     29  C   UNL     1       3.047 -10.512  -3.385  0.00  0.00    +0.120 A 
ATOM     30  C   UNL     1       3.498 -10.589  -2.075  0.00  0.00    +0.046 A 
ATOM     31  C   UNL     1       4.391  -9.649  -1.598  0.00  0.00    +0.005 A 
BRANCH  29  32
ATOM     32  O   UNL     1       2.172 -11.438  -3.859  0.00  0.00    -0.495 OA
ATOM     33  C   UNL     1       1.760 -12.464  -2.954  0.00  0.00    +0.277 C 
ENDBRANCH  29  32
ENDBRANCH  25  26
BRANCH  25  34
ATOM     34  N   UNL     1       6.784  -7.281  -2.933  0.00  0.00    +0.385 N 
ATOM     35  C   UNL     1       7.798  -6.335  -2.403  0.00  0.00    -0.078 C 
ATOM     36  C   UNL     1       9.008  -6.545  -3.348  0.00  0.00    -0.020 C 
ATOM     37  C   UNL     1       8.977  -8.067  -3.615  0.00  0.00    -0.020 C 
ATOM     38  C   UNL     1       7.530  -8.499  -3.316  0.00  0.00    -0.078 C 
ATOM     39  H   UNL     1       6.326  -6.885  -3.740  0.00  0.00    -0.081 HD
ENDBRANCH  25  34
ENDBRANCH  24  25
ENDBRANCH   3  24
TORSDOF 9
