REMARK  Name = ZINC60354994
REMARK  12 active torsions:
REMARK  status: ('A' for Active; 'I' for Inactive)
REMARK    1  A    between atoms: C_1  and  C_2
REMARK    2  A    between atoms: C_5  and  C_7
REMARK    3  A    between atoms: C_7  and  C_9
REMARK    4  A    between atoms: C_7  and  N_32
REMARK    5  A    between atoms: C_9  and  N_10
REMARK    6  A    between atoms: C_11  and  C_13
REMARK    7  A    between atoms: C_13  and  C_15
REMARK    8  A    between atoms: C_13  and  N_26
REMARK    9  A    between atoms: C_15  and  C_16
REMARK   10  A    between atoms: C_27  and  C_29
REMARK   11  A    between atoms: C_29  and  C_30
REMARK   12  A    between atoms: C_29  and  C_31
REMARK                            x       y       z     vdW  Elec       q    Type
REMARK                         _______ _______ _______ _____ _____    ______ ____
ROOT
ATOM      1  C   UNL     1       4.798  -6.196   2.373  0.00  0.00    +0.163 C 
ENDROOT
BRANCH   1   3
ATOM      2  N   UNL     1       3.248  -4.589   1.308  0.00  0.00    -0.315 N 
ATOM      3  C   UNL     1       3.862  -5.017   2.429  0.00  0.00    +0.234 C 
ATOM      4  O   UNL     1       3.660  -4.452   3.483  0.00  0.00    -0.274 OA
ATOM      5  H   UNL     1       3.410  -5.041   0.464  0.00  0.00    +0.149 HD
BRANCH   2   6
ATOM      6  C   UNL     1       2.338  -3.443   1.362  0.00  0.00    +0.096 C 
BRANCH   6   7
ATOM      7  C   UNL     1       1.678  -3.250  -0.005  0.00  0.00    +0.016 C 
BRANCH   7  12
ATOM      8  C   UNL     1      -2.285  -6.370  -0.010  0.00  0.00    +0.086 C 
ATOM      9  C   UNL     1      -0.926  -5.791  -0.311  0.00  0.00    +0.102 A 
ATOM     10  C   UNL     1       0.007  -6.345  -1.105  0.00  0.00    +0.044 A 
ATOM     11  C   UNL     1       1.118  -5.471  -1.103  0.00  0.00    +0.043 A 
ATOM     12  C   UNL     1       0.797  -4.434  -0.309  0.00  0.00    +0.093 A 
ATOM     13  O   UNL     1      -0.445  -4.630   0.164  0.00  0.00    -0.466 OA
ENDBRANCH   7  12
BRANCH   7  14
ATOM     14  N   UNL     1       0.866  -2.026   0.011  0.00  0.00    +0.387 N 
ATOM     15  C   UNL     1       1.732  -0.840   0.232  0.00  0.00    -0.078 C 
ATOM     16  C   UNL     1       0.882   0.329  -0.327  0.00  0.00    -0.020 C 
ATOM     17  C   UNL     1       0.197  -0.301  -1.561  0.00  0.00    -0.020 C 
ATOM     18  C   UNL     1       0.228  -1.820  -1.307  0.00  0.00    -0.078 C 
ATOM     19  H   UNL     1       0.164  -2.084   0.733  0.00  0.00    -0.081 HD
ENDBRANCH   7  14
ENDBRANCH   6   7
ENDBRANCH   2   6
ENDBRANCH   1   3
BRANCH   1  20
ATOM     20  N   UNL     1       4.956  -6.758   3.716  0.00  0.00    -0.303 N 
ATOM     21  C   UNL     1       5.451  -5.997   4.712  0.00  0.00    +0.216 C 
ATOM     22  O   UNL     1       5.766  -4.845   4.496  0.00  0.00    -0.276 OA
ATOM     23  H   UNL     1       4.705  -7.679   3.889  0.00  0.00    +0.149 HD
BRANCH  21  24
ATOM     24  C   UNL     1       5.614  -6.575   6.094  0.00  0.00    +0.069 C 
ATOM     25  C   UNL     1       6.565  -7.772   6.037  0.00  0.00    +0.017 C 
ATOM     26  C   UNL     1       6.190  -5.510   7.028  0.00  0.00    +0.017 C 
ENDBRANCH  21  24
ENDBRANCH   1  20
BRANCH   1  27
ATOM     27  C   UNL     1       6.161  -5.740   1.847  0.00  0.00    +0.069 C 
BRANCH  27  28
ATOM     28  C   UNL     1       7.059  -6.938   1.675  0.00  0.00    -0.020 A 
ATOM     29  C   UNL     1       7.950  -7.403   2.565  0.00  0.00    +0.087 A 
ATOM     30  N   UNL     1       8.582  -8.507   2.061  0.00  0.00    -0.360 N 
ATOM     31  H   UNL     1       9.266  -9.017   2.521  0.00  0.00    +0.165 HD
ATOM     32  C   UNL     1       8.100  -8.787   0.801  0.00  0.00    +0.047 A 
ATOM     33  C   UNL     1       7.121  -7.820   0.507  0.00  0.00    +0.003 A 
ATOM     34  C   UNL     1       6.449  -7.859  -0.716  0.00  0.00    +0.010 A 
ATOM     35  C   UNL     1       6.745  -8.839  -1.621  0.00  0.00    +0.001 A 
ATOM     36  C   UNL     1       7.707  -9.797  -1.335  0.00  0.00    +0.002 A 
ATOM     37  C   UNL     1       8.388  -9.772  -0.137  0.00  0.00    +0.026 A 
ENDBRANCH  27  28
ENDBRANCH   1  27
TORSDOF 9
