REMARK  Name = ZINC27521988
REMARK  6 active torsions:
REMARK  status: ('A' for Active; 'I' for Inactive)
REMARK    1  A    between atoms: C_3  and  C_10
REMARK    2  A    between atoms: C_5  and  N_7
REMARK    3  A    between atoms: C_11  and  C_12
REMARK    4  A    between atoms: C_11  and  N_22
REMARK    5  A    between atoms: N_14  and  C_15
REMARK    6  A    between atoms: C_23  and  C_25
REMARK                            x       y       z     vdW  Elec       q    Type
REMARK                         _______ _______ _______ _____ _____    ______ ____
ROOT
ATOM      1  C   UNL     1      -0.168   5.397   0.116  0.00  0.00    +0.036 C 
ATOM      2  C   UNL     1      -1.320   6.093  -0.021  0.00  0.00    +0.097 C 
ENDROOT
BRANCH   1   5
ATOM      3  C   UNL     1      -1.257   1.859  -0.486  0.00  0.00    +0.003 A 
ATOM      4  C   UNL     1      -1.244   3.238  -0.492  0.00  0.00    +0.008 A 
ATOM      5  C   UNL     1      -0.193   3.926   0.123  0.00  0.00    -0.021 A 
ATOM      6  C   UNL     1       0.836   3.208   0.743  0.00  0.00    +0.040 A 
ATOM      7  C   UNL     1       0.805   1.830   0.744  0.00  0.00    +0.127 A 
ATOM      8  C   UNL     1      -0.239   1.156   0.134  0.00  0.00    +0.033 A 
BRANCH   7   9
ATOM      9  N   UNL     1       1.892   1.068   1.399  0.00  0.00    +0.056 N 
ATOM     10  O   UNL     1       1.867  -0.150   1.401  0.00  0.00    -0.126 OA
ATOM     11  O   UNL     1       2.812   1.659   1.936  0.00  0.00    -0.126 OA
ENDBRANCH   7   9
ENDBRANCH   1   5
BRANCH   2  12
ATOM     12  C   UNL     1      -1.283   7.554  -0.171  0.00  0.00    +0.262 C 
ATOM     13  O   UNL     1      -2.319   8.180  -0.294  0.00  0.00    -0.268 OA
ATOM     14  N   UNL     1      -0.101   8.202  -0.173  0.00  0.00    -0.280 N 
ATOM     15  H   UNL     1       0.839   7.630  -0.159  0.00  0.00    +0.155 HD
BRANCH  14  16
ATOM     16  C   UNL     1      -0.069   9.599  -0.192  0.00  0.00    +0.036 A 
ATOM     17  C   UNL     1       0.945  10.263  -0.872  0.00  0.00    +0.023 A 
ATOM     18  C   UNL     1       0.972  11.643  -0.894  0.00  0.00    +0.005 A 
ATOM     19  C   UNL     1      -0.003  12.367  -0.232  0.00  0.00    +0.038 A 
ATOM     20  C   UNL     1      -1.013  11.709   0.451  0.00  0.00    +0.125 A 
ATOM     21  C   UNL     1      -1.048  10.326   0.472  0.00  0.00    +0.061 A 
ATOM     22  F   UNL     1      -1.964  12.419   1.097  0.00  0.00    -0.205 F 
ENDBRANCH  14  16
ENDBRANCH   2  12
BRANCH   2  23
ATOM     23  N   UNL     1      -2.546   5.421  -0.019  0.00  0.00    -0.277 N 
ATOM     24  C   UNL     1      -3.374   5.528  -1.077  0.00  0.00    +0.250 C 
ATOM     25  O   UNL     1      -3.094   6.274  -1.995  0.00  0.00    -0.270 OA
ATOM     26  H   UNL     1      -2.835   4.806   0.846  0.00  0.00    +0.155 HD
BRANCH  24  27
ATOM     27  C   UNL     1      -4.621   4.739  -1.120  0.00  0.00    +0.055 A 
ATOM     28  C   UNL     1      -5.001   3.966  -0.020  0.00  0.00    +0.017 A 
ATOM     29  C   UNL     1      -6.166   3.232  -0.066  0.00  0.00    +0.039 A 
ATOM     30  C   UNL     1      -6.962   3.258  -1.202  0.00  0.00    +0.125 A 
ATOM     31  C   UNL     1      -6.591   4.022  -2.297  0.00  0.00    +0.059 A 
ATOM     32  C   UNL     1      -5.429   4.766  -2.261  0.00  0.00    +0.056 A 
ATOM     33 CL   UNL     1      -4.969   5.729  -3.630  0.00  0.00    -0.083 Cl
ATOM     34  F   UNL     1      -8.102   2.535  -1.241  0.00  0.00    -0.205 F 
ENDBRANCH  24  27
ENDBRANCH   2  23
TORSDOF 6
