REMARK  Name = ZINC08323983
REMARK  11 active torsions:
REMARK  status: ('A' for Active; 'I' for Inactive)
REMARK    1  A    between atoms: C_1  and  C_2
REMARK    2  A    between atoms: C_2  and  C_4
REMARK    3  A    between atoms: C_2  and  N_61
REMARK    4  A    between atoms: C_11  and  C_12
REMARK    5  A    between atoms: C_11  and  N_61
REMARK    6  A    between atoms: C_12  and  C_14
REMARK    7  A    between atoms: C_12  and  C_24
REMARK    8  A    between atoms: C_18  and  O_22
REMARK    9  A    between atoms: C_19  and  O_20
REMARK   10  A    between atoms: O_20  and  C_21
REMARK   11  A    between atoms: O_22  and  C_23
REMARK                            x       y       z     vdW  Elec       q    Type
REMARK                         _______ _______ _______ _____ _____    ______ ____
ROOT
ATOM      1  C   UNL     1       3.652   5.667   0.155  0.00  0.00    +0.038 C 
ENDROOT
BRANCH   1   2
ATOM      2  C   UNL     1       2.385   6.435   0.430  0.00  0.00    -0.017 A 
ATOM      3  C   UNL     1       2.297   7.678   0.929  0.00  0.00    +0.087 A 
ATOM      4  N   UNL     1       0.984   8.045   1.039  0.00  0.00    -0.360 N 
ATOM      5  H   UNL     1       0.670   8.899   1.375  0.00  0.00    +0.165 HD
ATOM      6  C   UNL     1       0.173   7.020   0.603  0.00  0.00    +0.047 A 
ATOM      7  C   UNL     1       1.016   5.967   0.202  0.00  0.00    +0.003 A 
ATOM      8  C   UNL     1       0.465   4.783  -0.291  0.00  0.00    +0.010 A 
ATOM      9  C   UNL     1      -0.893   4.654  -0.382  0.00  0.00    +0.001 A 
ATOM     10  C   UNL     1      -1.728   5.692   0.007  0.00  0.00    +0.002 A 
ATOM     11  C   UNL     1      -1.205   6.866   0.502  0.00  0.00    +0.026 A 
ENDBRANCH   1   2
BRANCH   1  12
ATOM     12  C   UNL     1       4.491   6.422  -0.844  0.00  0.00    +0.004 A 
ATOM     13  C   UNL     1       4.927   7.702  -0.554  0.00  0.00    +0.008 A 
ATOM     14  C   UNL     1       5.700   8.395  -1.466  0.00  0.00    +0.004 A 
ATOM     15  C   UNL     1       6.032   7.816  -2.677  0.00  0.00    +0.049 A 
ATOM     16  C   UNL     1       5.595   6.536  -2.976  0.00  0.00    +0.162 A 
ATOM     17  C   UNL     1       4.820   5.836  -2.055  0.00  0.00    +0.165 A 
BRANCH  17  18
ATOM     18  O   UNL     1       4.388   4.579  -2.344  0.00  0.00    -0.491 OA
ATOM     19  C   UNL     1       3.125   4.463  -3.003  0.00  0.00    +0.277 C 
ENDBRANCH  17  18
BRANCH  16  20
ATOM     20  O   UNL     1       5.921   5.965  -4.166  0.00  0.00    -0.491 OA
ATOM     21  C   UNL     1       6.718   6.742  -5.062  0.00  0.00    +0.277 C 
ENDBRANCH  16  20
ENDBRANCH   1  12
BRANCH   1  22
ATOM     22  C   UNL     1       4.439   5.498   1.457  0.00  0.00    -0.069 C 
BRANCH  22  23
ATOM     23  N   UNL     1       3.661   4.657   2.385  0.00  0.00    +0.387 N 
ATOM     24  H   UNL     1       2.760   5.109   2.579  0.00  0.00    -0.085 HD
ATOM     25  H   UNL     1       3.498   3.739   1.955  0.00  0.00    -0.085 HD
BRANCH  23  27
ATOM     26  C   UNL     1       5.375   3.309   3.512  0.00  0.00    -0.004 C 
ATOM     27  C   UNL     1       4.396   4.476   3.651  0.00  0.00    +0.013 C 
BRANCH  27  28
ATOM     28  C   UNL     1       3.415   4.180   4.756  0.00  0.00    +0.201 C 
ATOM     29  O   UNL     1       2.345   3.671   4.496  0.00  0.00    -0.277 OA
ATOM     30  N   UNL     1       3.725   4.481   6.032  0.00  0.00    -0.303 N 
ATOM     31  C   UNL     1       2.909   4.158   7.212  0.00  0.00    +0.108 C 
ATOM     32  C   UNL     1       3.647   4.716   8.447  0.00  0.00    +0.020 C 
ATOM     33  C   UNL     1       4.550   5.822   7.839  0.00  0.00    +0.020 C 
ATOM     34  C   UNL     1       4.937   5.194   6.477  0.00  0.00    +0.108 C 
ENDBRANCH  27  28
ENDBRANCH  23  27
ENDBRANCH  22  23
ENDBRANCH   1  22
TORSDOF 8
