REMARK  Name = ZINC08672660
REMARK  6 active torsions:
REMARK  status: ('A' for Active; 'I' for Inactive)
REMARK    1  A    between atoms: C_4  and  C_7
REMARK    2  A    between atoms: C_7  and  C_8
REMARK    3  A    between atoms: C_10  and  C_26
REMARK    4  A    between atoms: C_10  and  C_30
REMARK    5  A    between atoms: N_16  and  C_19
REMARK    6  A    between atoms: C_19  and  C_20
REMARK                            x       y       z     vdW  Elec       q    Type
REMARK                         _______ _______ _______ _____ _____    ______ ____
ROOT
ATOM      1  C   UNL     1       4.172  -1.122   1.220  0.00  0.00    +0.079 C 
ATOM      2  N   UNL     1       3.842  -2.254   1.903  0.00  0.00    -0.310 N 
ATOM      3  C   UNL     1       4.704  -2.678   3.018  0.00  0.00    +0.258 C 
ATOM      4  C   UNL     1       5.121  -1.439   3.772  0.00  0.00    +0.098 A 
ATOM      5  C   UNL     1       5.470  -1.500   5.125  0.00  0.00    +0.262 A 
ATOM      6  N   UNL     1       5.845  -0.370   5.761  0.00  0.00    -0.275 N 
ATOM      7  C   UNL     1       5.894   0.804   5.107  0.00  0.00    +0.331 A 
ATOM      8  O   UNL     1       6.245   1.803   5.704  0.00  0.00    -0.246 OA
ATOM      9  N   UNL     1       5.563   0.897   3.805  0.00  0.00    -0.272 N 
ATOM     10  C   UNL     1       5.159  -0.225   3.112  0.00  0.00    +0.128 A 
ATOM     11  N   UNL     1       4.794  -0.142   1.821  0.00  0.00    -0.332 N 
ATOM     12  O   UNL     1       5.436  -2.562   5.724  0.00  0.00    -0.267 OA
ATOM     13  H   UNL     1       4.995   0.666   1.323  0.00  0.00    +0.168 HD
ATOM     14  H   UNL     1       6.082  -0.405   6.701  0.00  0.00    +0.173 HD
ATOM     15  H   UNL     1       3.056  -2.768   1.660  0.00  0.00    +0.149 HD
ENDROOT
BRANCH   3  16
ATOM     16  C   UNL     1       5.941  -3.395   2.474  0.00  0.00    +0.424 C 
ATOM     17  F   UNL     1       6.655  -2.526   1.642  0.00  0.00    -0.168 F 
ATOM     18  F   UNL     1       6.755  -3.794   3.540  0.00  0.00    -0.168 F 
ATOM     19  F   UNL     1       5.544  -4.520   1.744  0.00  0.00    -0.168 F 
ENDBRANCH   3  16
BRANCH   3  20
ATOM     20  C   UNL     1       3.927  -3.613   3.947  0.00  0.00    +0.424 C 
ATOM     21  F   UNL     1       3.266  -4.583   3.186  0.00  0.00    -0.168 F 
ATOM     22  F   UNL     1       4.816  -4.237   4.829  0.00  0.00    -0.168 F 
ATOM     23  F   UNL     1       2.989  -2.873   4.676  0.00  0.00    -0.168 F 
ENDBRANCH   3  20
BRANCH   1  24
ATOM     24  C   UNL     1       3.823  -1.001  -0.241  0.00  0.00    +0.104 C 
BRANCH  24  28
ATOM     25  C   UNL     1      -0.049   0.759  -0.640  0.00  0.00    +0.000 A 
ATOM     26  C   UNL     1       1.075   1.563  -0.604  0.00  0.00    +0.000 A 
ATOM     27  C   UNL     1       2.328   0.993  -0.475  0.00  0.00    +0.004 A 
ATOM     28  C   UNL     1       2.457  -0.380  -0.381  0.00  0.00    -0.040 A 
ATOM     29  C   UNL     1       1.333  -1.184  -0.416  0.00  0.00    +0.004 A 
ATOM     30  C   UNL     1       0.080  -0.614  -0.547  0.00  0.00    +0.000 A 
ENDBRANCH  24  28
ENDBRANCH   1  24
BRANCH   9  31
ATOM     31  C   UNL     1       5.631   2.192   3.124  0.00  0.00    +0.202 C 
BRANCH  31  32
ATOM     32  C   UNL     1       7.003   2.375   2.529  0.00  0.00    +0.125 A 
ATOM     33  C   UNL     1       7.380   2.007   1.291  0.00  0.00    +0.046 A 
ATOM     34  C   UNL     1       8.741   2.364   1.153  0.00  0.00    +0.041 A 
ATOM     35  C   UNL     1       9.115   2.930   2.315  0.00  0.00    +0.195 A 
ATOM     36  O   UNL     1       8.057   2.939   3.143  0.00  0.00    -0.466 OA
ENDBRANCH  31  32
ENDBRANCH   9  31
TORSDOF 6
