REMARK  Name = ZINC30962143
REMARK  14 active torsions:
REMARK  status: ('A' for Active; 'I' for Inactive)
REMARK    1  A    between atoms: C_1  and  C_2
REMARK    2  A    between atoms: C_2  and  C_3
REMARK    3  A    between atoms: C_3  and  O_4
REMARK    4  A    between atoms: O_4  and  C_5
REMARK    5  A    between atoms: C_6  and  O_32
REMARK    6  A    between atoms: C_8  and  C_12
REMARK    7  A    between atoms: N_13  and  N_14
REMARK    8  A    between atoms: C_15  and  C_17
REMARK    9  A    between atoms: C_17  and  C_19
REMARK   10  A    between atoms: C_17  and  N_22
REMARK   11  A    between atoms: C_19  and  C_20
REMARK   12  A    between atoms: C_19  and  C_21
REMARK   13  A    between atoms: C_23  and  C_25
REMARK   14  A    between atoms: O_32  and  C_33
REMARK                            x       y       z     vdW  Elec       q    Type
REMARK                         _______ _______ _______ _____ _____    ______ ____
ROOT
ATOM      1  N   UNL     1      -2.115  -0.820   1.350  0.00  0.00    -0.205 N 
ATOM      2  C   UNL     1      -1.264  -1.066   0.335  0.00  0.00    +0.253 C 
ATOM      3  O   UNL     1      -1.694  -1.303  -0.775  0.00  0.00    -0.272 OA
ATOM      4  H   UNL     1      -1.724  -0.606   2.356  0.00  0.00    +0.177 HD
ENDROOT
BRANCH   1   6
ATOM      5  C   UNL     1      -4.314  -0.486   2.070  0.00  0.00    +0.138 C 
ATOM      6  N   UNL     1      -3.498  -0.838   1.124  0.00  0.00    -0.188 NA
BRANCH   5  10
ATOM      7  C   UNL     1      -2.936   1.958   5.261  0.00  0.00    +0.176 A 
ATOM      8  C   UNL     1      -4.162   1.306   5.367  0.00  0.00    +0.163 A 
ATOM      9  C   UNL     1      -4.616   0.515   4.328  0.00  0.00    +0.059 A 
ATOM     10  C   UNL     1      -3.837   0.361   3.178  0.00  0.00    -0.001 A 
ATOM     11  C   UNL     1      -2.608   1.018   3.079  0.00  0.00    +0.028 A 
ATOM     12  C   UNL     1      -2.164   1.811   4.117  0.00  0.00    +0.064 A 
ATOM     13 BR   UNL     1      -0.500   2.699   3.981  0.00  0.00    -0.046 Br
BRANCH   8  14
ATOM     14  O   UNL     1      -4.915   1.452   6.489  0.00  0.00    -0.491 OA
ATOM     15  C   UNL     1      -6.162   0.755   6.530  0.00  0.00    +0.277 C 
ENDBRANCH   8  14
BRANCH   7  16
ATOM     16  O   UNL     1      -2.493   2.740   6.281  0.00  0.00    -0.487 OA
BRANCH  16  17
ATOM     17  C   UNL     1      -2.862   4.121   6.247  0.00  0.00    +0.229 C 
BRANCH  17  19
ATOM     18  C   UNL     1      -2.672   6.313   7.431  0.00  0.00    +0.007 C 
ATOM     19  C   UNL     1      -2.278   4.835   7.467  0.00  0.00    +0.038 C 
ENDBRANCH  17  19
ENDBRANCH  16  17
ENDBRANCH   7  16
ENDBRANCH   5  10
ENDBRANCH   1   6
BRANCH   2  20
ATOM     20  C   UNL     1       0.224  -1.048   0.577  0.00  0.00    +0.163 C 
BRANCH  20  21
ATOM     21  N   UNL     1       0.926  -1.342  -0.674  0.00  0.00    -0.300 N 
ATOM     22  C   UNL     1       2.166  -1.870  -0.643  0.00  0.00    +0.245 C 
ATOM     23  O   UNL     1       2.701  -2.102   0.424  0.00  0.00    -0.270 OA
ATOM     24  H   UNL     1       0.442  -1.133  -1.639  0.00  0.00    +0.150 HD
BRANCH  22  25
ATOM     25  C   UNL     1       2.875  -2.168  -1.906  0.00  0.00    +0.038 A 
ATOM     26  C   UNL     1       4.159  -2.715  -1.876  0.00  0.00    +0.013 A 
ATOM     27  C   UNL     1       4.815  -2.990  -3.058  0.00  0.00    +0.002 A 
ATOM     28  C   UNL     1       4.204  -2.727  -4.271  0.00  0.00    +0.020 A 
ATOM     29  C   UNL     1       2.930  -2.185  -4.307  0.00  0.00    +0.042 A 
ATOM     30  C   UNL     1       2.261  -1.909  -3.132  0.00  0.00    +0.033 A 
ATOM     31 CL   UNL     1       2.171  -1.859  -5.834  0.00  0.00    -0.084 Cl
ENDBRANCH  22  25
ENDBRANCH  20  21
BRANCH  20  32
ATOM     32  C   UNL     1       0.640   0.335   1.083  0.00  0.00    +0.012 C 
ATOM     33  C   UNL     1       2.150   0.354   1.329  0.00  0.00    +0.009 C 
ATOM     34  C   UNL     1       0.281   1.391   0.035  0.00  0.00    +0.009 C 
ENDBRANCH  20  32
ENDBRANCH   2  20
TORSDOF 10
