REMARK  Name = ZINC23483284
REMARK  13 active torsions:
REMARK  status: ('A' for Active; 'I' for Inactive)
REMARK    1  A    between atoms: C_1  and  C_2
REMARK    2  A    between atoms: C_3  and  N_14
REMARK    3  A    between atoms: C_4  and  C_13
REMARK    4  A    between atoms: N_5  and  C_7
REMARK    5  A    between atoms: C_15  and  C_17
REMARK    6  A    between atoms: C_17  and  S_18
REMARK    7  A    between atoms: S_18  and  C_19
REMARK    8  A    between atoms: C_22  and  C_31
REMARK    9  A    between atoms: N_23  and  C_24
REMARK   10  A    between atoms: C_31  and  C_33
REMARK   11  A    between atoms: C_31  and  N_34
REMARK   12  A    between atoms: N_34  and  C_35
REMARK   13  A    between atoms: N_34  and  C_36
REMARK                            x       y       z     vdW  Elec       q    Type
REMARK                         _______ _______ _______ _____ _____    ______ ____
ROOT
ATOM      1  S   UNL     1       1.471  -2.013  -0.041  0.00  0.00    -0.076 S 
ENDROOT
BRANCH   1   2
ATOM      2  C   UNL     1       0.901  -0.366  -0.301  0.00  0.00    +0.197 A 
ATOM      3  N   UNL     1      -0.323  -0.003  -0.606  0.00  0.00    -0.122 NA
ATOM      4  N   UNL     1      -0.384   1.276  -0.722  0.00  0.00    -0.135 NA
ATOM      5  C   UNL     1       0.787   1.803  -0.499  0.00  0.00    +0.125 A 
ATOM      6  N   UNL     1       1.650   0.775  -0.222  0.00  0.00    -0.275 N 
BRANCH   6   7
ATOM      7  C   UNL     1       3.017   0.874   0.079  0.00  0.00    +0.050 A 
ATOM      8  C   UNL     1       3.429   1.518   1.238  0.00  0.00    +0.029 A 
ATOM      9  C   UNL     1       4.774   1.608   1.536  0.00  0.00    +0.040 A 
ATOM     10  C   UNL     1       5.713   1.069   0.673  0.00  0.00    +0.124 A 
ATOM     11  C   UNL     1       5.305   0.431  -0.487  0.00  0.00    +0.040 A 
ATOM     12  C   UNL     1       3.960   0.333  -0.785  0.00  0.00    +0.029 A 
ATOM     13  F   UNL     1       7.029   1.163   0.963  0.00  0.00    -0.205 F 
ENDBRANCH   6   7
BRANCH   5  14
ATOM     14  C   UNL     1       1.129   3.270  -0.538  0.00  0.00    -0.003 C 
ATOM     15  C   UNL     1       1.196   3.739  -1.993  0.00  0.00    -0.005 C 
BRANCH  14  16
ATOM     16  N   UNL     1       0.096   4.032   0.175  0.00  0.00    +0.382 N 
ATOM     17  C   UNL     1      -0.062   3.545   1.552  0.00  0.00    -0.096 C 
ATOM     18  C   UNL     1       0.396   5.470   0.157  0.00  0.00    -0.096 C 
ATOM     19  H   UNL     1      -0.859   3.880  -0.349  0.00  0.00    -0.082 HD
ENDBRANCH  14  16
ENDBRANCH   5  14
ENDBRANCH   1   2
BRANCH   1  20
ATOM     20  C   UNL     1      -0.068  -2.926  -0.316  0.00  0.00    +0.173 C 
BRANCH  20  22
ATOM     21  N   UNL     1      -0.824  -5.281  -0.300  0.00  0.00    -0.282 N 
ATOM     22  C   UNL     1       0.185  -4.401  -0.141  0.00  0.00    +0.228 C 
ATOM     23  O   UNL     1       1.296  -4.797   0.142  0.00  0.00    -0.275 OA
ATOM     24  H   UNL     1      -1.850  -4.918  -0.459  0.00  0.00    +0.155 HD
BRANCH  21  27
ATOM     25  C   UNL     1       1.844  -6.602  -1.215  0.00  0.00    +0.069 C 
ATOM     26  C   UNL     1       0.623  -7.293  -0.664  0.00  0.00    +0.082 A 
ATOM     27  C   UNL     1      -0.564  -6.663  -0.261  0.00  0.00    +0.078 A 
ATOM     28  C   UNL     1      -1.420  -7.626   0.168  0.00  0.00    +0.063 A 
ATOM     29  N   UNL     1      -0.787  -8.823   0.044  0.00  0.00    -0.235 N 
ATOM     30  N   UNL     1       0.491  -8.581  -0.476  0.00  0.00    -0.170 NA
ATOM     31  C   UNL     1      -2.818  -7.407   0.689  0.00  0.00    +0.068 C 
BRANCH  29  32
ATOM     32  C   UNL     1      -1.318 -10.077   0.377  0.00  0.00    +0.066 A 
ATOM     33  C   UNL     1      -0.531 -11.014   1.032  0.00  0.00    +0.028 A 
ATOM     34  C   UNL     1      -1.059 -12.247   1.363  0.00  0.00    +0.002 A 
ATOM     35  C   UNL     1      -2.367 -12.551   1.034  0.00  0.00    +0.000 A 
ATOM     36  C   UNL     1      -3.152 -11.621   0.378  0.00  0.00    +0.002 A 
ATOM     37  C   UNL     1      -2.631 -10.385   0.048  0.00  0.00    +0.028 A 
ENDBRANCH  29  32
ENDBRANCH  21  27
ENDBRANCH  20  22
ENDBRANCH   1  20
TORSDOF 8
