REMARK  Name = ZINC41586538
REMARK  11 active torsions:
REMARK  status: ('A' for Active; 'I' for Inactive)
REMARK    1  A    between atoms: C_1  and  C_2
REMARK    2  A    between atoms: C_2  and  O_3
REMARK    3  A    between atoms: O_3  and  C_4
REMARK    4  A    between atoms: C_4  and  C_6
REMARK    5  A    between atoms: N_11  and  C_13
REMARK    6  A    between atoms: C_13  and  C_14
REMARK    7  A    between atoms: C_15  and  O_34
REMARK    8  A    between atoms: C_22  and  C_23
REMARK    9  A    between atoms: C_26  and  N_29
REMARK   10  A    between atoms: N_29  and  C_30
REMARK   11  A    between atoms: N_29  and  C_31
REMARK                            x       y       z     vdW  Elec       q    Type
REMARK                         _______ _______ _______ _____ _____    ______ ____
ROOT
ATOM      1  C   UNL     1       2.644  -6.352  -4.964  0.00  0.00    +0.020 A 
ATOM      2  C   UNL     1       1.833  -6.532  -6.073  0.00  0.00    +0.122 A 
ATOM      3  C   UNL     1       2.352  -7.057  -7.253  0.00  0.00    +0.046 A 
ATOM      4  C   UNL     1       3.672  -7.401  -7.328  0.00  0.00    +0.019 A 
ATOM      5  C   UNL     1       4.501  -7.225  -6.220  0.00  0.00    +0.068 A 
ATOM      6  C   UNL     1       3.990  -6.691  -5.026  0.00  0.00    +0.144 A 
ATOM      7  O   UNL     1       4.974  -6.611  -4.105  0.00  0.00    -0.451 OA
ATOM      8  C   UNL     1       6.156  -7.057  -4.591  0.00  0.00    +0.176 C 
ATOM      9  C   UNL     1       7.334  -7.106  -3.917  0.00  0.00    +0.058 C 
ATOM     10  C   UNL     1       5.931  -7.488  -5.978  0.00  0.00    +0.231 C 
ATOM     11  O   UNL     1       6.747  -7.950  -6.757  0.00  0.00    -0.283 OA
ENDROOT
BRANCH   9  12
ATOM     12  C   UNL     1       7.429  -6.546  -2.564  0.00  0.00    -0.021 A 
ATOM     13  C   UNL     1       6.278  -6.084  -1.913  0.00  0.00    +0.010 A 
ATOM     14  C   UNL     1       6.371  -5.564  -0.653  0.00  0.00    +0.023 A 
ATOM     15  C   UNL     1       7.608  -5.492  -0.017  0.00  0.00    +0.029 A 
ATOM     16  C   UNL     1       8.755  -5.950  -0.660  0.00  0.00    +0.023 A 
ATOM     17  C   UNL     1       8.671  -6.478  -1.918  0.00  0.00    +0.010 A 
BRANCH  15  18
ATOM     18  N   UNL     1       7.698  -4.961   1.266  0.00  0.00    -0.336 N 
ATOM     19  C   UNL     1       6.481  -4.582   1.989  0.00  0.00    +0.129 C 
ATOM     20  C   UNL     1       9.009  -4.781   1.894  0.00  0.00    +0.129 C 
ENDBRANCH  15  18
ENDBRANCH   9  12
BRANCH   2  21
ATOM     21  O   UNL     1       0.520  -6.193  -6.008  0.00  0.00    -0.506 OA
ATOM     22  H   UNL     1       0.336  -5.279  -6.266  0.00  0.00    +0.292 HD
ENDBRANCH   2  21
BRANCH   1  23
ATOM     23  C   UNL     1       2.068  -5.782  -3.693  0.00  0.00    -0.036 C 
BRANCH  23  28
ATOM     24  C   UNL     1       1.556  -2.227  -2.603  0.00  0.00    +0.081 C 
ATOM     25  C   UNL     1       3.017  -1.768  -2.623  0.00  0.00    +0.011 C 
ATOM     26  C   UNL     1       3.730  -2.419  -3.811  0.00  0.00    -0.018 C 
ATOM     27  C   UNL     1       3.602  -3.940  -3.705  0.00  0.00    -0.078 C 
ATOM     28  N   UNL     1       2.184  -4.317  -3.717  0.00  0.00    +0.383 N 
ATOM     29  C   UNL     1       1.508  -3.755  -2.542  0.00  0.00    -0.064 C 
ATOM     30  H   UNL     1       1.749  -3.961  -4.555  0.00  0.00    -0.081 HD
BRANCH  24  31
ATOM     31  C   UNL     1       0.865  -1.653  -1.393  0.00  0.00    +0.308 C 
ATOM     32  O   UNL     1       0.381  -2.390  -0.567  0.00  0.00    -0.251 OA
BRANCH  31  33
ATOM     33  O   UNL     1       0.787  -0.323  -1.233  0.00  0.00    -0.465 OA
BRANCH  33  35
ATOM     34  C   UNL     1       0.128   1.682  -0.054  0.00  0.00    +0.048 C 
ATOM     35  C   UNL     1       0.117   0.152  -0.063  0.00  0.00    +0.229 C 
ENDBRANCH  33  35
ENDBRANCH  31  33
ENDBRANCH  24  31
ENDBRANCH  23  28
ENDBRANCH   1  23
TORSDOF 8
