REMARK  Name = ZINC44714552
REMARK  10 active torsions:
REMARK  status: ('A' for Active; 'I' for Inactive)
REMARK    1  A    between atoms: C_1  and  C_2
REMARK    2  A    between atoms: C_3  and  C_14
REMARK    3  A    between atoms: C_6  and  C_12
REMARK    4  A    between atoms: C_14  and  C_15
REMARK    5  A    between atoms: C_15  and  N_16
REMARK    6  A    between atoms: C_17  and  C_19
REMARK    7  A    between atoms: C_30  and  C_32
REMARK    8  A    between atoms: C_32  and  C_33
REMARK    9  A    between atoms: C_33  and  S_34
REMARK   10  A    between atoms: S_34  and  C_35
REMARK                            x       y       z     vdW  Elec       q    Type
REMARK                         _______ _______ _______ _____ _____    ______ ____
ROOT
ATOM      1  N   UNL     1       2.439   1.484  -4.038  0.00  0.00    -0.315 N 
ATOM      2  C   UNL     1       2.577   0.605  -5.050  0.00  0.00    +0.218 C 
ATOM      3  O   UNL     1       2.713  -0.577  -4.812  0.00  0.00    -0.275 OA
ATOM      4  H   UNL     1       2.330   2.429  -4.229  0.00  0.00    +0.149 HD
ENDROOT
BRANCH   2   5
ATOM      5  C   UNL     1       2.563   1.089  -6.477  0.00  0.00    +0.100 C 
ATOM      6  C   UNL     1       2.030  -0.017  -7.415  0.00  0.00    +0.121 C 
ATOM      7  N   UNL     1       2.846   0.111  -8.646  0.00  0.00    -0.300 N 
ATOM      8  C   UNL     1       4.212   0.407  -8.153  0.00  0.00    +0.115 C 
ATOM      9  C   UNL     1       3.996   1.363  -6.964  0.00  0.00    -0.004 C 
ATOM     10  C   UNL     1       4.998   1.060  -5.854  0.00  0.00    -0.010 C 
ATOM     11  C   UNL     1       6.410   1.396  -6.342  0.00  0.00    -0.082 C 
ATOM     12  N   UNL     1       6.477   2.814  -6.715  0.00  0.00    +0.379 N 
ATOM     13  C   UNL     1       5.577   3.077  -7.845  0.00  0.00    -0.082 C 
ATOM     14  C   UNL     1       4.130   2.813  -7.421  0.00  0.00    -0.010 C 
ATOM     15  C   UNL     1       2.437  -0.013  -9.924  0.00  0.00    +0.216 C 
ATOM     16  O   UNL     1       3.232   0.120 -10.830  0.00  0.00    -0.276 OA
ATOM     17  H   UNL     1       6.200   3.381  -5.928  0.00  0.00    -0.086 HD
ATOM     18  H   UNL     1       7.422   3.047  -6.978  0.00  0.00    -0.086 HD
BRANCH  15  19
ATOM     19  C   UNL     1       0.993  -0.317 -10.228  0.00  0.00    +0.106 C 
BRANCH  19  20
ATOM     20  C   UNL     1       0.798  -0.405 -11.743  0.00  0.00    +0.078 C 
BRANCH  20  21
ATOM     21  S   UNL     1      -0.941  -0.771 -12.108  0.00  0.00    -0.164 S 
ATOM     22  C   UNL     1      -1.003  -0.842 -13.920  0.00  0.00    +0.084 C 
ENDBRANCH  20  21
ENDBRANCH  19  20
ENDBRANCH  15  19
ENDBRANCH   2   5
BRANCH   1  23
ATOM     23  C   UNL     1       2.453   1.013  -2.651  0.00  0.00    +0.109 C 
BRANCH  23  24
ATOM     24  C   UNL     1       2.278   2.204  -1.706  0.00  0.00    +0.056 C 
BRANCH  24  27
ATOM     25  C   UNL     1       4.784   1.918   0.103  0.00  0.00    +0.063 C 
ATOM     26  C   UNL     1       3.370   1.593   0.510  0.00  0.00    +0.017 A 
ATOM     27  C   UNL     1       2.293   1.719  -0.280  0.00  0.00    -0.018 A 
ATOM     28  C   UNL     1       1.132   1.297   0.510  0.00  0.00    +0.004 A 
ATOM     29  C   UNL     1      -0.233   1.205   0.250  0.00  0.00    +0.029 A 
ATOM     30  C   UNL     1      -1.090   0.752   1.248  0.00  0.00    +0.052 A 
ATOM     31  C   UNL     1      -0.578   0.393   2.503  0.00  0.00    +0.021 A 
ATOM     32  C   UNL     1       0.758   0.482   2.760  0.00  0.00    +0.027 A 
ATOM     33  C   UNL     1       1.634   0.933   1.775  0.00  0.00    +0.047 A 
ATOM     34  N   UNL     1       2.996   1.120   1.739  0.00  0.00    -0.358 N 
ATOM     35  H   UNL     1       3.602   0.944   2.476  0.00  0.00    +0.166 HD
BRANCH  30  36
ATOM     36  C   UNL     1      -2.496   0.653   0.994  0.00  0.00    +0.099 C 
ATOM     37  N   UNL     1      -3.611   0.575   0.792  0.00  0.00    -0.191 NA
ENDBRANCH  30  36
ENDBRANCH  24  27
ENDBRANCH  23  24
ENDBRANCH   1  23
TORSDOF 8
