REMARK  Name = ZINC22652785
REMARK  4 active torsions:
REMARK  status: ('A' for Active; 'I' for Inactive)
REMARK    1  A    between atoms: C_1  and  C_2
REMARK    2  A    between atoms: C_2  and  C_4
REMARK    3  A    between atoms: C_2  and  N_12
REMARK    4  A    between atoms: C_13  and  C_15
REMARK                            x       y       z     vdW  Elec       q    Type
REMARK                         _______ _______ _______ _____ _____    ______ ____
ROOT
ATOM      1  N   UNL     1      -0.020   1.094   2.454  0.00  0.00    -0.305 N 
ATOM      2  C   UNL     1       1.032   1.782   2.939  0.00  0.00    +0.245 C 
ATOM      3  O   UNL     1       1.393   2.806   2.392  0.00  0.00    -0.270 OA
ATOM      4  H   UNL     1      -0.347   0.168   2.949  0.00  0.00    +0.150 HD
ENDROOT
BRANCH   2   5
ATOM      5  C   UNL     1       1.746   1.293   4.135  0.00  0.00    +0.039 A 
ATOM      6  C   UNL     1       1.328   0.120   4.768  0.00  0.00    +0.017 A 
ATOM      7  C   UNL     1       1.998  -0.341   5.881  0.00  0.00    +0.048 A 
ATOM      8  C   UNL     1       3.081   0.365   6.383  0.00  0.00    +0.142 A 
ATOM      9  C   UNL     1       3.500   1.542   5.758  0.00  0.00    +0.076 A 
ATOM     10  C   UNL     1       2.837   2.006   4.639  0.00  0.00    +0.040 A 
ATOM     11  N   UNL     1       4.596   2.243   6.281  0.00  0.00    -0.280 N 
ATOM     12  C   UNL     1       5.411   1.621   7.162  0.00  0.00    +0.255 C 
ATOM     13  O   UNL     1       6.348   2.217   7.650  0.00  0.00    -0.272 OA
ATOM     14  C   UNL     1       5.150   0.184   7.534  0.00  0.00    +0.325 C 
ATOM     15  O   UNL     1       3.745  -0.079   7.481  0.00  0.00    -0.481 OA
ATOM     16  H   UNL     1       4.782   3.283   5.974  0.00  0.00    +0.155 HD
ENDBRANCH   2   5
BRANCH   1  18
ATOM     17  C   UNL     1      -0.013   1.086   0.008  0.00  0.00    +0.033 C 
ATOM     18  C   UNL     1      -0.729   1.579   1.267  0.00  0.00    +0.100 C 
BRANCH  18  19
ATOM     19  C   UNL     1      -2.143   1.058   1.278  0.00  0.00    -0.025 A 
ATOM     20  C   UNL     1      -2.396  -0.241   1.677  0.00  0.00    +0.008 A 
ATOM     21  C   UNL     1      -3.693  -0.721   1.692  0.00  0.00    +0.041 A 
ATOM     22  C   UNL     1      -4.737   0.097   1.297  0.00  0.00    +0.158 A 
ATOM     23  C   UNL     1      -4.482   1.398   0.891  0.00  0.00    +0.159 A 
ATOM     24  C   UNL     1      -3.184   1.877   0.882  0.00  0.00    +0.046 A 
ATOM     25  F   UNL     1      -5.500   2.198   0.505  0.00  0.00    -0.202 F 
ATOM     26  F   UNL     1      -6.004  -0.372   1.307  0.00  0.00    -0.202 F 
ENDBRANCH  18  19
ENDBRANCH   1  18
TORSDOF 3
