REMARK  Name = ZINC26493701
REMARK  9 active torsions:
REMARK  status: ('A' for Active; 'I' for Inactive)
REMARK    1  A    between atoms: C_1  and  C_2
REMARK    2  A    between atoms: C_2  and  C_4
REMARK    3  A    between atoms: C_2  and  N_14
REMARK    4  A    between atoms: C_15  and  C_17
REMARK    5  A    between atoms: C_17  and  C_19
REMARK    6  A    between atoms: C_17  and  S_20
REMARK    7  A    between atoms: S_20  and  C_21
REMARK    8  A    between atoms: C_24  and  C_28
REMARK    9  A    between atoms: C_25  and  N_27
REMARK                            x       y       z     vdW  Elec       q    Type
REMARK                         _______ _______ _______ _____ _____    ______ ____
ROOT
ATOM      1  N   UNL     1       0.002  -0.004   0.002  0.00  0.00    -0.308 N 
ATOM      2  C   UNL     1       0.974  -0.668   0.659  0.00  0.00    +0.227 C 
ATOM      3  O   UNL     1       1.831  -0.054   1.256  0.00  0.00    -0.275 OA
ATOM      4  H   UNL     1      -0.776  -0.562  -0.540  0.00  0.00    +0.149 HD
ENDROOT
BRANCH   1   6
ATOM      5  C   UNL     1      -0.734   1.954   1.269  0.00  0.00    +0.033 C 
ATOM      6  C   UNL     1      -0.018   1.461   0.010  0.00  0.00    +0.100 C 
BRANCH   6   7
ATOM      7  C   UNL     1      -0.747   1.960  -1.211  0.00  0.00    -0.027 A 
ATOM      8  C   UNL     1      -1.888   1.314  -1.650  0.00  0.00    +0.006 A 
ATOM      9  C   UNL     1      -2.548   1.776  -2.770  0.00  0.00    +0.004 A 
ATOM     10  C   UNL     1      -2.076   2.885  -3.461  0.00  0.00    -0.044 A 
ATOM     11  C   UNL     1      -0.943   3.530  -3.021  0.00  0.00    -0.044 A 
ATOM     12  C   UNL     1      -0.281   3.066  -1.891  0.00  0.00    +0.009 A 
ATOM     13  C   UNL     1      -0.380   4.744  -3.713  0.00  0.00    +0.035 C 
ATOM     14  C   UNL     1      -0.937   4.859  -5.131  0.00  0.00    +0.005 C 
ATOM     15  C   UNL     1      -2.465   4.758  -5.060  0.00  0.00    +0.005 C 
ATOM     16  C   UNL     1      -2.837   3.326  -4.683  0.00  0.00    +0.035 C 
ENDBRANCH   6   7
ENDBRANCH   1   6
BRANCH   2  17
ATOM     17  C   UNL     1       0.994  -2.175   0.650  0.00  0.00    +0.137 C 
ATOM     18  C   UNL     1       1.710  -2.669  -0.608  0.00  0.00    +0.029 C 
BRANCH  17  19
ATOM     19  S   UNL     1       1.869  -2.775   2.117  0.00  0.00    -0.074 S 
BRANCH  19  20
ATOM     20  C   UNL     1       1.617  -4.509   1.936  0.00  0.00    +0.191 A 
ATOM     21  N   UNL     1       0.920  -4.953   0.897  0.00  0.00    -0.229 NA
ATOM     22  C   UNL     1       0.709  -6.244   0.717  0.00  0.00    +0.136 A 
ATOM     23  C   UNL     1       1.223  -7.153   1.649  0.00  0.00    +0.109 A 
ATOM     24  C   UNL     1       1.954  -6.643   2.744  0.00  0.00    +0.138 A 
ATOM     25  N   UNL     1       2.123  -5.330   2.845  0.00  0.00    -0.206 NA
BRANCH  24  26
ATOM     26  N   UNL     1       2.483  -7.494   3.693  0.00  0.00    -0.342 N 
ATOM     27  H   UNL     1       3.051  -7.087   4.542  0.00  0.00    +0.144 HD
ATOM     28  H   UNL     1       2.338  -8.581   3.599  0.00  0.00    +0.144 HD
ENDBRANCH  24  26
BRANCH  23  29
ATOM     29  C   UNL     1       1.013  -8.561   1.496  0.00  0.00    +0.104 C 
ATOM     30  N   UNL     1       0.847  -9.678   1.375  0.00  0.00    -0.191 NA
ENDBRANCH  23  29
ENDBRANCH  19  20
ENDBRANCH  17  19
ENDBRANCH   2  17
TORSDOF 7
