REMARK  Name = ZINC23967602
REMARK  8 active torsions:
REMARK  status: ('A' for Active; 'I' for Inactive)
REMARK    1  A    between atoms: C_1  and  C_2
REMARK    2  A    between atoms: C_2  and  N_3
REMARK    3  A    between atoms: N_3  and  C_4
REMARK    4  A    between atoms: N_3  and  C_17
REMARK    5  A    between atoms: C_4  and  C_5
REMARK    6  A    between atoms: C_17  and  C_18
REMARK    7  A    between atoms: C_21  and  C_31
REMARK    8  A    between atoms: C_24  and  C_26
REMARK                            x       y       z     vdW  Elec       q    Type
REMARK                         _______ _______ _______ _____ _____    ______ ____
ROOT
ATOM      1  C   UNL     1       4.260  -1.020  -0.406  0.00  0.00    +0.021 C 
ENDROOT
BRANCH   1   2
ATOM      2  C   UNL     1       3.746   0.383  -0.602  0.00  0.00    +0.219 C 
ATOM      3  O   UNL     1       4.488   1.329  -0.438  0.00  0.00    -0.276 OA
ATOM      4  N   UNL     1       2.463   0.587  -0.960  0.00  0.00    -0.184 N 
ATOM      5  C   UNL     1       1.835   1.898  -1.183  0.00  0.00    +0.172 C 
ATOM      6  C   UNL     1       0.384   1.546  -1.565  0.00  0.00    +0.090 C 
ATOM      7  C   UNL     1       0.350   0.035  -1.513  0.00  0.00    +0.075 C 
ATOM      8  N   UNL     1       1.514  -0.411  -1.177  0.00  0.00    -0.180 NA
BRANCH   7   9
ATOM      9  C   UNL     1      -0.825  -0.796  -1.798  0.00  0.00    +0.035 A 
ATOM     10  C   UNL     1      -0.943  -2.175  -1.780  0.00  0.00    +0.017 A 
ATOM     11  C   UNL     1      -2.164  -2.730  -2.084  0.00  0.00    +0.008 A 
ATOM     12  C   UNL     1      -3.205  -1.915  -2.400  0.00  0.00    +0.046 A 
ATOM     13  S   UNL     1      -2.472  -0.293  -2.267  0.00  0.00    -0.095 S 
ENDBRANCH   7   9
BRANCH   5  14
ATOM     14  C   UNL     1       1.867   2.723   0.077  0.00  0.00    +0.128 A 
ATOM     15  C   UNL     1       2.008   4.060   0.140  0.00  0.00    +0.046 A 
ATOM     16  C   UNL     1       1.983   4.411   1.509  0.00  0.00    +0.041 A 
ATOM     17  C   UNL     1       1.829   3.268   2.201  0.00  0.00    +0.195 A 
ATOM     18  O   UNL     1       1.753   2.250   1.329  0.00  0.00    -0.466 OA
ENDBRANCH   5  14
ENDBRANCH   1   2
BRANCH   1  19
ATOM     19  N   UNL     1       5.677  -0.973  -0.022  0.00  0.00    +0.390 N 
ATOM     20  H   UNL     1       6.207  -0.350  -0.758  0.00  0.00    -0.081 HD
BRANCH  19  22
ATOM     21  C   UNL     1       5.059  -1.150   2.341  0.00  0.00    -0.017 C 
ATOM     22  C   UNL     1       5.845  -0.352   1.299  0.00  0.00    -0.081 C 
ENDBRANCH  19  22
BRANCH  19  23
ATOM     23  C   UNL     1       6.276  -2.315  -0.052  0.00  0.00    -0.001 C 
BRANCH  23  24
ATOM     24  C   UNL     1       7.778  -2.195  -0.038  0.00  0.00    +0.117 A 
ATOM     25  N   UNL     1       8.514  -3.333   0.052  0.00  0.00    -0.196 NA
ATOM     26  C   UNL     1       9.867  -3.280   0.063  0.00  0.00    +0.281 A 
ATOM     27  O   UNL     1      10.538  -4.293   0.138  0.00  0.00    -0.265 OA
ATOM     28  C   UNL     1      10.492  -1.952  -0.013  0.00  0.00    +0.067 A 
ATOM     29  C   UNL     1      11.876  -1.788  -0.004  0.00  0.00    +0.017 A 
ATOM     30  C   UNL     1      12.408  -0.530  -0.078  0.00  0.00    +0.021 A 
ATOM     31  C   UNL     1      11.583   0.585  -0.162  0.00  0.00    +0.043 A 
ATOM     32  C   UNL     1      10.212   0.449  -0.173  0.00  0.00    +0.048 A 
ATOM     33  C   UNL     1       9.646  -0.825  -0.099  0.00  0.00    +0.080 A 
ATOM     34  N   UNL     1       8.302  -1.009  -0.107  0.00  0.00    -0.234 NA
ATOM     35 CL   UNL     1      12.289   2.169  -0.253  0.00  0.00    -0.083 Cl
ENDBRANCH  23  24
ENDBRANCH  19  23
ENDBRANCH   1  19
TORSDOF 7
