REMARK  Name = ZINC57568896
REMARK  11 active torsions:
REMARK  status: ('A' for Active; 'I' for Inactive)
REMARK    1  A    between atoms: C_1  and  C_2
REMARK    2  A    between atoms: N_5  and  C_8
REMARK    3  A    between atoms: C_8  and  C_10
REMARK    4  A    between atoms: C_8  and  C_28
REMARK    5  A    between atoms: C_10  and  N_11
REMARK    6  A    between atoms: N_14  and  C_15
REMARK    7  A    between atoms: C_15  and  C_16
REMARK    8  A    between atoms: C_21  and  C_22
REMARK    9  A    between atoms: C_22  and  N_23
REMARK   10  A    between atoms: C_28  and  C_29
REMARK   11  A    between atoms: C_28  and  C_30
REMARK                            x       y       z     vdW  Elec       q    Type
REMARK                         _______ _______ _______ _____ _____    ______ ____
ROOT
ATOM      1  N   UNL     1       1.687  -3.626  -2.381  0.00  0.00    -0.301 N 
ATOM      2  C   UNL     1       2.214  -3.723  -3.618  0.00  0.00    +0.300 C 
ATOM      3  O   UNL     1       3.264  -4.312  -3.788  0.00  0.00    -0.253 OA
ATOM      4  N   UNL     1       1.576  -3.167  -4.668  0.00  0.00    -0.295 N 
ATOM      5  H   UNL     1       0.849  -3.156  -2.247  0.00  0.00    +0.150 HD
ATOM      6  H   UNL     1       0.739  -2.697  -4.533  0.00  0.00    +0.151 HD
ENDROOT
BRANCH   1   7
ATOM      7  C   UNL     1       2.380  -4.230  -1.241  0.00  0.00    +0.091 C 
BRANCH   7   8
ATOM      8  C   UNL     1       1.688  -3.809   0.057  0.00  0.00    -0.048 C 
BRANCH   8  13
ATOM      9  C   UNL     1       3.334   1.651   0.064  0.00  0.00    +0.007 C 
ATOM     10  C   UNL     1       3.119   0.187  -0.324  0.00  0.00    -0.018 C 
ATOM     11  C   UNL     1       3.701  -0.721   0.764  0.00  0.00    -0.016 C 
ATOM     12  C   UNL     1       3.413  -2.182   0.410  0.00  0.00    -0.078 C 
ATOM     13  N   UNL     1       1.962  -2.390   0.321  0.00  0.00    +0.383 N 
ATOM     14  C   UNL     1       1.408  -1.576  -0.768  0.00  0.00    -0.078 C 
ATOM     15  C   UNL     1       1.619  -0.092  -0.459  0.00  0.00    -0.016 C 
ATOM     16  H   UNL     1       1.531  -2.122   1.192  0.00  0.00    -0.081 HD
ENDBRANCH   8  13
BRANCH   8  17
ATOM     17  C   UNL     1       2.220  -4.655   1.216  0.00  0.00    -0.029 C 
ATOM     18  C   UNL     1       1.522  -4.240   2.513  0.00  0.00    +0.005 C 
ATOM     19  C   UNL     1       1.943  -6.133   0.938  0.00  0.00    +0.005 C 
ENDBRANCH   8  17
ENDBRANCH   7   8
ENDBRANCH   1   7
BRANCH   4  20
ATOM     20  C   UNL     1       2.149  -3.273  -6.012  0.00  0.00    +0.141 C 
BRANCH  20  21
ATOM     21  C   UNL     1       1.248  -2.574  -6.998  0.00  0.00    -0.025 A 
ATOM     22  C   UNL     1       0.370  -3.307  -7.773  0.00  0.00    +0.005 A 
ATOM     23  C   UNL     1      -0.456  -2.666  -8.677  0.00  0.00    +0.000 A 
ATOM     24  C   UNL     1      -0.404  -1.290  -8.806  0.00  0.00    +0.000 A 
ATOM     25  C   UNL     1       0.474  -0.557  -8.030  0.00  0.00    +0.006 A 
ATOM     26  C   UNL     1       1.297  -1.198  -7.123  0.00  0.00    -0.021 A 
BRANCH  26  27
ATOM     27  C   UNL     1       2.250  -0.397  -6.273  0.00  0.00    +0.178 C 
BRANCH  27  28
ATOM     28  N   UNL     1       3.566  -0.362  -6.917  0.00  0.00    -0.267 N 
ATOM     29  C   UNL     1       4.268   0.748  -7.227  0.00  0.00    +0.108 A 
ATOM     30  C   UNL     1       5.426   0.355  -7.806  0.00  0.00    +0.041 A 
ATOM     31  C   UNL     1       5.432  -1.043  -7.852  0.00  0.00    +0.134 A 
ATOM     32  N   UNL     1       4.320  -1.474  -7.313  0.00  0.00    -0.179 NA
ENDBRANCH  27  28
ENDBRANCH  26  27
ENDBRANCH  20  21
ENDBRANCH   4  20
TORSDOF 8
