REMARK  Name = ZINC09913748
REMARK  13 active torsions:
REMARK  status: ('A' for Active; 'I' for Inactive)
REMARK    1  A    between atoms: C_1  and  C_2
REMARK    2  A    between atoms: C_2  and  C_31
REMARK    3  A    between atoms: C_5  and  C_29
REMARK    4  A    between atoms: C_6  and  N_12
REMARK    5  A    between atoms: C_9  and  C_10
REMARK    6  A    between atoms: C_9  and  C_11
REMARK    7  A    between atoms: C_13  and  C_15
REMARK    8  A    between atoms: C_15  and  C_16
REMARK    9  A    between atoms: C_16  and  C_17
REMARK   10  A    between atoms: C_17  and  S_18
REMARK   11  A    between atoms: S_18  and  C_21
REMARK   12  A    between atoms: C_24  and  O_27
REMARK   13  A    between atoms: O_27  and  C_28
REMARK                            x       y       z     vdW  Elec       q    Type
REMARK                         _______ _______ _______ _____ _____    ______ ____
ROOT
ATOM      1  N   UNL     1       1.452   3.464   0.006  0.00  0.00    -0.279 N 
ATOM      2  C   UNL     1       2.720   3.921  -0.004  0.00  0.00    +0.218 C 
ATOM      3  O   UNL     1       3.647   3.139  -0.016  0.00  0.00    -0.275 OA
ATOM      4  H   UNL     1       0.711   4.090   0.015  0.00  0.00    +0.155 HD
ENDROOT
BRANCH   1  10
ATOM      5  C   UNL     1      -0.623  -1.875  -2.229  0.00  0.00    -0.010 C 
ATOM      6  C   UNL     1      -0.840  -2.197  -0.748  0.00  0.00    -0.069 C 
ATOM      7  C   UNL     1      -1.219  -0.913  -0.002  0.00  0.00    +0.024 C 
ATOM      8  C   UNL     1       0.002  -0.004   0.002  0.00  0.00    -0.021 A 
ATOM      9  C   UNL     1      -0.018   1.443   0.010  0.00  0.00    +0.084 A 
ATOM     10  C   UNL     1       1.208   2.098   0.002  0.00  0.00    +0.090 A 
ATOM     11  S   UNL     1       2.353   0.798  -0.014  0.00  0.00    -0.078 S 
ATOM     12  C   UNL     1       1.232  -0.571  -0.007  0.00  0.00    -0.015 A 
ATOM     13  C   UNL     1       1.538  -2.033  -0.004  0.00  0.00    -0.041 C 
ATOM     14  C   UNL     1       2.551  -2.344  -1.115  0.00  0.00    -0.005 C 
ATOM     15  C   UNL     1       2.191  -2.388   1.346  0.00  0.00    -0.005 C 
ATOM     16  C   UNL     1      -2.029  -3.171  -0.646  0.00  0.00    -0.010 C 
ATOM     17  N   UNL     1       0.332  -2.895  -0.158  0.00  0.00    +0.389 N 
ATOM     18  H   UNL     1       0.576  -3.686  -0.766  0.00  0.00    -0.084 HD
ATOM     19  H   UNL     1       0.065  -3.246   0.769  0.00  0.00    -0.084 HD
BRANCH   9  20
ATOM     20  C   UNL     1      -1.244   2.182   0.032  0.00  0.00    +0.102 C 
ATOM     21  N   UNL     1      -2.217   2.768   0.049  0.00  0.00    -0.191 NA
ENDBRANCH   9  20
ENDBRANCH   1  10
BRANCH   2  22
ATOM     22  C   UNL     1       2.986   5.405   0.000  0.00  0.00    +0.098 C 
BRANCH  22  23
ATOM     23  C   UNL     1       4.496   5.652  -0.012  0.00  0.00    +0.032 C 
BRANCH  23  24
ATOM     24  C   UNL     1       4.766   7.159  -0.008  0.00  0.00    +0.172 C 
BRANCH  24  25
ATOM     25  S   UNL     1       6.556   7.452  -0.023  0.00  0.00    -0.003 S 
ATOM     26  O   UNL     1       7.132   7.027   1.205  0.00  0.00    -0.169 OA
ATOM     27  O   UNL     1       7.109   7.038  -1.264  0.00  0.00    -0.169 OA
BRANCH  25  28
ATOM     28  C   UNL     1       6.727   9.206  -0.017  0.00  0.00    +0.088 A 
ATOM     29  C   UNL     1       6.789   9.897  -1.212  0.00  0.00    +0.030 A 
ATOM     30  C   UNL     1       6.918  11.273  -1.210  0.00  0.00    +0.047 A 
ATOM     31  C   UNL     1       6.996  11.959  -0.007  0.00  0.00    +0.120 A 
ATOM     32  C   UNL     1       6.939  11.262   1.191  0.00  0.00    +0.047 A 
ATOM     33  C   UNL     1       6.805   9.887   1.184  0.00  0.00    +0.030 A 
BRANCH  31  34
ATOM     34  O   UNL     1       7.128  13.312  -0.003  0.00  0.00    -0.495 OA
ATOM     35  C   UNL     1       7.179  13.963  -1.274  0.00  0.00    +0.277 C 
ENDBRANCH  31  34
ENDBRANCH  25  28
ENDBRANCH  24  25
ENDBRANCH  23  24
ENDBRANCH  22  23
ENDBRANCH   2  22
TORSDOF 8
