REMARK  Name = ZINC59040256
REMARK  7 active torsions:
REMARK  status: ('A' for Active; 'I' for Inactive)
REMARK    1  A    between atoms: C_1  and  C_2
REMARK    2  A    between atoms: C_2  and  C_4
REMARK    3  A    between atoms: C_7  and  N_10
REMARK    4  A    between atoms: C_11  and  C_13
REMARK    5  A    between atoms: C_13  and  S_14
REMARK    6  A    between atoms: S_14  and  C_15
REMARK    7  A    between atoms: N_20  and  N_21
REMARK                            x       y       z     vdW  Elec       q    Type
REMARK                         _______ _______ _______ _____ _____    ______ ____
ROOT
ATOM      1  S   UNL     1      -5.765  -6.762  -0.330  0.00  0.00    -0.075 S 
ENDROOT
BRANCH   1   2
ATOM      2  C   UNL     1      -7.358  -7.507  -0.429  0.00  0.00    +0.211 A 
ATOM      3  N   UNL     1      -7.598  -8.819  -0.533  0.00  0.00    -0.186 NA
ATOM      4  C   UNL     1      -8.896  -9.029  -0.584  0.00  0.00    +0.232 A 
ATOM      5  N   UNL     1      -9.515  -7.832  -0.511  0.00  0.00    -0.245 N 
ATOM      6  N   UNL     1      -8.502  -6.866  -0.406  0.00  0.00    -0.144 NA
ATOM      7  N   UNL     1      -9.517 -10.261  -0.693  0.00  0.00    -0.205 N 
ATOM      8  H   UNL     1     -10.485 -10.315  -0.723  0.00  0.00    +0.177 HD
ATOM      9  H   UNL     1     -10.472  -7.672  -0.525  0.00  0.00    +0.192 HD
BRANCH   7  10
ATOM     10  N   UNL     1      -8.747 -11.430  -0.760  0.00  0.00    -0.189 NA
ATOM     11  C   UNL     1      -9.315 -12.559  -0.961  0.00  0.00    +0.037 C 
ATOM     12  C   UNL     1     -10.822 -12.668  -1.035  0.00  0.00    +0.052 C 
ATOM     13  C   UNL     1     -11.194 -13.417  -2.318  0.00  0.00    +0.006 C 
ATOM     14  C   UNL     1     -10.463 -14.760  -2.353  0.00  0.00    +0.001 C 
ATOM     15  C   UNL     1      -8.953 -14.527  -2.413  0.00  0.00    +0.006 C 
ATOM     16  C   UNL     1      -8.495 -13.819  -1.139  0.00  0.00    +0.052 C 
ENDBRANCH   7  10
ENDBRANCH   1   2
BRANCH   1  17
ATOM     17  C   UNL     1      -6.117  -4.987  -0.198  0.00  0.00    +0.173 C 
BRANCH  17  19
ATOM     18  N   UNL     1      -4.838  -2.880   0.001  0.00  0.00    -0.285 N 
ATOM     19  C   UNL     1      -4.822  -4.223  -0.105  0.00  0.00    +0.227 C 
ATOM     20  O   UNL     1      -3.765  -4.817  -0.125  0.00  0.00    -0.275 OA
ATOM     21  H   UNL     1      -5.682  -2.411   0.092  0.00  0.00    +0.155 HD
BRANCH  18  25
ATOM     22  C   UNL     1      -1.268  -0.745  -0.063  0.00  0.00    +0.017 A 
ATOM     23  C   UNL     1      -1.398  -1.919  -0.816  0.00  0.00    +0.013 A 
ATOM     24  C   UNL     1      -2.576  -2.619  -0.792  0.00  0.00    +0.024 A 
ATOM     25  C   UNL     1      -3.642  -2.165  -0.021  0.00  0.00    +0.033 A 
ATOM     26  C   UNL     1      -3.518  -0.999   0.729  0.00  0.00    +0.024 A 
ATOM     27  C   UNL     1      -2.341  -0.295   0.715  0.00  0.00    +0.013 A 
BRANCH  22  29
ATOM     28  C   UNL     1       1.147  -0.478  -0.924  0.00  0.00    +0.091 C 
ATOM     29  C   UNL     1      -0.007   0.008  -0.086  0.00  0.00    +0.160 C 
ATOM     30  O   UNL     1       0.105   1.022   0.571  0.00  0.00    -0.292 OA
ENDBRANCH  22  29
ENDBRANCH  18  25
ENDBRANCH  17  19
ENDBRANCH   1  17
TORSDOF 6
