REMARK  Name = ZINC11869214
REMARK  9 active torsions:
REMARK  status: ('A' for Active; 'I' for Inactive)
REMARK    1  A    between atoms: C_1  and  C_2
REMARK    2  A    between atoms: C_2  and  N_3
REMARK    3  A    between atoms: C_4  and  C_6
REMARK    4  A    between atoms: N_8  and  C_30
REMARK    5  A    between atoms: C_10  and  C_13
REMARK    6  A    between atoms: N_15  and  C_16
REMARK    7  A    between atoms: C_16  and  C_17
REMARK    8  A    between atoms: C_17  and  C_19
REMARK    9  A    between atoms: C_17  and  N_70
REMARK                            x       y       z     vdW  Elec       q    Type
REMARK                         _______ _______ _______ _____ _____    ______ ____
ROOT
ATOM      1  C   UNL     1       6.375   1.068  -1.364  0.00  0.00    +0.249 C 
ATOM      2  O   UNL     1       6.452   2.184  -1.840  0.00  0.00    -0.270 OA
ATOM      3  N   UNL     1       7.461   0.497  -0.806  0.00  0.00    -0.312 N 
ATOM      4  H   UNL     1       7.400  -0.394  -0.426  0.00  0.00    +0.149 HD
ENDROOT
BRANCH   1   9
ATOM      5  C   UNL     1       2.661   0.146  -1.991  0.00  0.00    +0.100 A 
ATOM      6  C   UNL     1       2.697  -1.106  -1.417  0.00  0.00    +0.102 A 
ATOM      7  N   UNL     1       3.828  -1.601  -0.887  0.00  0.00    -0.349 N 
ATOM      8  C   UNL     1       4.989  -0.926  -0.863  0.00  0.00    +0.102 A 
ATOM      9  C   UNL     1       5.095   0.339  -1.397  0.00  0.00    +0.100 A 
ATOM     10  C   UNL     1       3.897   0.945  -2.002  0.00  0.00    +0.206 A 
ATOM     11  O   UNL     1       3.928   2.062  -2.490  0.00  0.00    -0.286 OA
BRANCH   7  12
ATOM     12  C   UNL     1       3.791  -2.943  -0.299  0.00  0.00    +0.087 C 
ATOM     13  C   UNL     1       3.336  -3.970  -1.356  0.00  0.00    +0.025 C 
ATOM     14  C   UNL     1       2.457  -4.968  -0.561  0.00  0.00    +0.002 C 
ATOM     15  C   UNL     1       1.706  -4.048   0.433  0.00  0.00    +0.002 C 
ATOM     16  C   UNL     1       2.755  -2.992   0.838  0.00  0.00    +0.025 C 
ENDBRANCH   7  12
BRANCH   5  18
ATOM     17  N   UNL     1       0.293  -0.073  -2.556  0.00  0.00    -0.311 N 
ATOM     18  C   UNL     1       1.415   0.673  -2.574  0.00  0.00    +0.249 C 
ATOM     19  O   UNL     1       1.399   1.782  -3.073  0.00  0.00    -0.270 OA
ATOM     20  H   UNL     1       0.306  -0.958  -2.158  0.00  0.00    +0.149 HD
BRANCH  17  22
ATOM     21  C   UNL     1      -2.056  -0.592  -2.995  0.00  0.00    +0.024 C 
ATOM     22  C   UNL     1      -0.944   0.449  -3.141  0.00  0.00    +0.101 C 
ENDBRANCH  17  22
ENDBRANCH   5  18
ENDBRANCH   1   9
BRANCH   3  23
ATOM     23  C   UNL     1       8.734   1.221  -0.773  0.00  0.00    +0.094 C 
BRANCH  23  24
ATOM     24  C   UNL     1       9.796   0.356  -0.091  0.00  0.00    -0.020 C 
BRANCH  24  30
ATOM     25  C   UNL     1       9.094   1.122   2.096  0.00  0.00    -0.078 C 
ATOM     26  C   UNL     1       8.461   0.676   3.416  0.00  0.00    -0.019 C 
ATOM     27  C   UNL     1       9.393  -0.320   4.112  0.00  0.00    -0.004 C 
ATOM     28  C   UNL     1       9.649  -1.506   3.179  0.00  0.00    -0.019 C 
ATOM     29  C   UNL     1      10.247  -0.996   1.866  0.00  0.00    -0.078 C 
ATOM     30  N   UNL     1       9.291  -0.062   1.234  0.00  0.00    +0.385 N 
ATOM     31  H   UNL     1       8.390  -0.539   1.112  0.00  0.00    -0.081 HD
ENDBRANCH  24  30
BRANCH  24  32
ATOM     32  C   UNL     1      11.071   1.146   0.053  0.00  0.00    -0.059 A 
ATOM     33  C   UNL     1      12.272   0.602  -0.361  0.00  0.00    +0.002 A 
ATOM     34  C   UNL     1      13.441   1.328  -0.233  0.00  0.00    +0.000 A 
ATOM     35  C   UNL     1      13.410   2.595   0.318  0.00  0.00    +0.000 A 
ATOM     36  C   UNL     1      12.210   3.138   0.737  0.00  0.00    +0.000 A 
ATOM     37  C   UNL     1      11.040   2.413   0.605  0.00  0.00    +0.002 A 
ENDBRANCH  24  32
ENDBRANCH  23  24
ENDBRANCH   3  23
TORSDOF 8
