REMARK  Name = ZINC36216458
REMARK  11 active torsions:
REMARK  status: ('A' for Active; 'I' for Inactive)
REMARK    1  A    between atoms: C_1  and  C_2
REMARK    2  A    between atoms: C_2  and  C_3
REMARK    3  A    between atoms: C_3  and  C_4
REMARK    4  A    between atoms: N_6  and  C_7
REMARK    5  A    between atoms: C_10  and  C_13
REMARK    6  A    between atoms: C_15  and  C_28
REMARK    7  A    between atoms: N_17  and  C_21
REMARK    8  A    between atoms: C_21  and  C_22
REMARK    9  A    between atoms: N_30  and  C_31
REMARK   10  A    between atoms: C_31  and  C_32
REMARK   11  A    between atoms: C_32  and  N_33
REMARK                            x       y       z     vdW  Elec       q    Type
REMARK                         _______ _______ _______ _____ _____    ______ ____
ROOT
ATOM      1  C   UNL     1      -2.268  -8.386   0.345  0.00  0.00    +0.238 C 
ATOM      2  C   UNL     1      -2.380  -9.028  -1.058  0.00  0.00    +0.210 C 
ATOM      3  N   UNL     1      -3.182 -10.237  -0.785  0.00  0.00    -0.248 N 
ATOM      4  C   UNL     1      -3.731 -10.098   0.437  0.00  0.00    +0.405 C 
ATOM      5  O   UNL     1      -4.427 -10.944   0.961  0.00  0.00    -0.226 OA
ATOM      6  O   UNL     1      -3.425  -8.924   1.015  0.00  0.00    -0.440 OA
ENDROOT
BRANCH   1  10
ATOM      7  C   UNL     1      -2.496  -4.125   0.094  0.00  0.00    +0.033 A 
ATOM      8  C   UNL     1      -1.260  -4.752   0.180  0.00  0.00    +0.024 A 
ATOM      9  C   UNL     1      -1.190  -6.129   0.261  0.00  0.00    +0.009 A 
ATOM     10  C   UNL     1      -2.349  -6.883   0.256  0.00  0.00    -0.005 A 
ATOM     11  C   UNL     1      -3.581  -6.262   0.170  0.00  0.00    +0.009 A 
ATOM     12  C   UNL     1      -3.658  -4.885   0.095  0.00  0.00    +0.024 A 
BRANCH   7  15
ATOM     13  C   UNL     1      -3.584  -2.073   0.610  0.00  0.00    +0.217 C 
ATOM     14  O   UNL     1      -4.476  -2.695   1.148  0.00  0.00    -0.275 OA
ATOM     15  N   UNL     1      -2.571  -2.730   0.012  0.00  0.00    -0.285 N 
ATOM     16  H   UNL     1      -1.893  -2.236  -0.476  0.00  0.00    +0.155 HD
BRANCH  13  17
ATOM     17  C   UNL     1      -3.609  -0.566   0.611  0.00  0.00    +0.096 C 
BRANCH  17  19
ATOM     18  C   UNL     1      -4.881   1.453   1.351  0.00  0.00    +0.004 C 
ATOM     19  C   UNL     1      -4.856  -0.077   1.350  0.00  0.00    +0.006 C 
ENDBRANCH  17  19
ENDBRANCH  13  17
ENDBRANCH   7  15
ENDBRANCH   1  10
BRANCH   2  20
ATOM     20  C   UNL     1      -3.096  -8.109  -2.014  0.00  0.00    +0.238 C 
ATOM     21  O   UNL     1      -4.269  -8.289  -2.264  0.00  0.00    -0.274 OA
ATOM     22  N   UNL     1      -2.433  -7.087  -2.591  0.00  0.00    -0.315 N 
ATOM     23  H   UNL     1      -1.495  -6.943  -2.390  0.00  0.00    +0.149 HD
BRANCH  22  24
ATOM     24  C   UNL     1      -3.129  -6.194  -3.520  0.00  0.00    +0.086 C 
BRANCH  24  25
ATOM     25  C   UNL     1      -2.157  -5.128  -4.028  0.00  0.00    -0.060 C 
BRANCH  25  26
ATOM     26  N   UNL     1      -2.855  -4.232  -4.959  0.00  0.00    +0.381 N 
ATOM     27  C   UNL     1      -3.856  -3.413  -4.229  0.00  0.00    -0.079 C 
ATOM     28  C   UNL     1      -4.071  -2.198  -5.166  0.00  0.00    -0.020 C 
ATOM     29  C   UNL     1      -2.654  -1.936  -5.724  0.00  0.00    -0.020 C 
ATOM     30  C   UNL     1      -1.901  -3.269  -5.552  0.00  0.00    -0.079 C 
ATOM     31  H   UNL     1      -3.305  -4.767  -5.686  0.00  0.00    -0.082 HD
ENDBRANCH  25  26
ENDBRANCH  24  25
ENDBRANCH  22  24
ENDBRANCH   2  20
BRANCH   3  32
ATOM     32  C   UNL     1      -3.350 -11.383  -1.682  0.00  0.00    +0.147 C 
BRANCH  32  33
ATOM     33  C   UNL     1      -2.271 -12.399  -1.408  0.00  0.00    -0.030 A 
ATOM     34  C   UNL     1      -1.069 -12.331  -2.087  0.00  0.00    +0.005 A 
ATOM     35  C   UNL     1      -0.079 -13.262  -1.836  0.00  0.00    +0.000 A 
ATOM     36  C   UNL     1      -0.290 -14.261  -0.904  0.00  0.00    +0.000 A 
ATOM     37  C   UNL     1      -1.492 -14.329  -0.224  0.00  0.00    +0.000 A 
ATOM     38  C   UNL     1      -2.480 -13.395  -0.472  0.00  0.00    +0.005 A 
ENDBRANCH  32  33
ENDBRANCH   3  32
TORSDOF 10
