REMARK  Name = ZINC20895768
REMARK  8 active torsions:
REMARK  status: ('A' for Active; 'I' for Inactive)
REMARK    1  A    between atoms: C_1  and  C_2
REMARK    2  A    between atoms: C_2  and  C_4
REMARK    3  A    between atoms: C_2  and  S_17
REMARK    4  A    between atoms: N_6  and  C_7
REMARK    5  A    between atoms: C_10  and  S_13
REMARK    6  A    between atoms: S_13  and  N_16
REMARK    7  A    between atoms: S_17  and  C_18
REMARK    8  A    between atoms: C_25  and  C_28
REMARK                            x       y       z     vdW  Elec       q    Type
REMARK                         _______ _______ _______ _____ _____    ______ ____
ROOT
ATOM      1  C   UNL     1       0.141   1.366   0.161  0.00  0.00    +0.029 C 
ATOM      2  C   UNL     1       0.064  -0.163   0.163  0.00  0.00    +0.136 C 
ENDROOT
BRANCH   2   3
ATOM      3  C   UNL     1       0.647  -0.693   1.447  0.00  0.00    +0.230 C 
ATOM      4  O   UNL     1      -0.086  -1.029   2.353  0.00  0.00    -0.274 OA
ATOM      5  N   UNL     1       1.984  -0.793   1.590  0.00  0.00    -0.285 N 
ATOM      6  H   UNL     1       2.568  -0.585   0.844  0.00  0.00    +0.155 HD
BRANCH   5   7
ATOM      7  C   UNL     1       2.529  -1.198   2.814  0.00  0.00    +0.034 A 
ATOM      8  C   UNL     1       3.729  -0.655   3.254  0.00  0.00    +0.025 A 
ATOM      9  C   UNL     1       4.264  -1.057   4.462  0.00  0.00    +0.030 A 
ATOM     10  C   UNL     1       3.606  -1.997   5.233  0.00  0.00    +0.105 A 
ATOM     11  C   UNL     1       2.411  -2.539   4.797  0.00  0.00    +0.030 A 
ATOM     12  C   UNL     1       1.867  -2.138   3.593  0.00  0.00    +0.025 A 
BRANCH  10  13
ATOM     13  S   UNL     1       4.292  -2.506   6.774  0.00  0.00    +0.056 S 
ATOM     14  O   UNL     1       3.763  -3.797   7.048  0.00  0.00    -0.153 OA
ATOM     15  O   UNL     1       5.689  -2.256   6.700  0.00  0.00    -0.153 OA
BRANCH  13  16
ATOM     16  N   UNL     1       3.691  -1.492   7.937  0.00  0.00    -0.204 NA
ATOM     17  H   UNL     1       3.078  -0.781   7.691  0.00  0.00    +0.144 HD
ATOM     18  H   UNL     1       3.951  -1.608   8.864  0.00  0.00    +0.144 HD
ENDBRANCH  13  16
ENDBRANCH  10  13
ENDBRANCH   5   7
ENDBRANCH   2   3
BRANCH   2  19
ATOM     19  S   UNL     1      -1.669  -0.681   0.026  0.00  0.00    -0.091 S 
BRANCH  19  20
ATOM     20  C   UNL     1      -2.157  -0.119  -1.571  0.00  0.00    +0.128 A 
ATOM     21  C   UNL     1      -3.475  -0.344  -2.033  0.00  0.00    +0.018 A 
ATOM     22  C   UNL     1      -4.443  -1.006  -1.273  0.00  0.00    +0.011 A 
ATOM     23  C   UNL     1      -5.694  -1.184  -1.790  0.00  0.00    +0.001 A 
ATOM     24  C   UNL     1      -6.019  -0.716  -3.060  0.00  0.00    +0.001 A 
ATOM     25  C   UNL     1      -5.096  -0.066  -3.827  0.00  0.00    +0.011 A 
ATOM     26  C   UNL     1      -3.808   0.132  -3.327  0.00  0.00    +0.012 A 
ATOM     27  C   UNL     1      -2.760   0.818  -4.080  0.00  0.00    +0.101 A 
ATOM     28  N   UNL     1      -1.570   0.954  -3.516  0.00  0.00    -0.148 NA
ATOM     29  N   UNL     1      -1.297   0.520  -2.343  0.00  0.00    -0.142 NA
BRANCH  27  30
ATOM     30  C   UNL     1      -3.022   1.345  -5.438  0.00  0.00    +0.003 A 
ATOM     31  C   UNL     1      -4.201   2.042  -5.703  0.00  0.00    +0.013 A 
ATOM     32  C   UNL     1      -4.441   2.532  -6.970  0.00  0.00    +0.039 A 
ATOM     33  C   UNL     1      -3.513   2.332  -7.979  0.00  0.00    +0.123 A 
ATOM     34  C   UNL     1      -2.340   1.641  -7.722  0.00  0.00    +0.039 A 
ATOM     35  C   UNL     1      -2.088   1.152  -6.457  0.00  0.00    +0.013 A 
ATOM     36  F   UNL     1      -3.752   2.813  -9.219  0.00  0.00    -0.205 F 
ENDBRANCH  27  30
ENDBRANCH  19  20
ENDBRANCH   2  19
TORSDOF 7
