REMARK  Name = ZINC14539989
REMARK  8 active torsions:
REMARK  status: ('A' for Active; 'I' for Inactive)
REMARK    1  A    between atoms: C_4  and  C_7
REMARK    2  A    between atoms: C_7  and  C_8
REMARK    3  A    between atoms: C_8  and  C_9
REMARK    4  A    between atoms: C_9  and  N_10
REMARK    5  A    between atoms: C_13  and  C_15
REMARK    6  A    between atoms: C_27  and  C_28
REMARK    7  A    between atoms: C_27  and  N_66
REMARK    8  A    between atoms: C_32  and  O_34
REMARK                            x       y       z     vdW  Elec       q    Type
REMARK                         _______ _______ _______ _____ _____    ______ ____
ROOT
ATOM      1  N   UNL     1       0.398   5.489  -0.395  0.00  0.00    -0.267 N 
ATOM      2  C   UNL     1       0.122   4.179  -0.451  0.00  0.00    +0.040 A 
ATOM      3  C   UNL     1       1.252   3.513  -0.099  0.00  0.00    -0.011 A 
ATOM      4  C   UNL     1       2.214   4.500   0.164  0.00  0.00    +0.149 A 
ATOM      5  N   UNL     1       1.623   5.667  -0.036  0.00  0.00    -0.166 NA
ATOM      6  C   UNL     1       1.356   2.015  -0.032  0.00  0.00    -0.038 C 
ATOM      7  C   UNL     1      -0.825   2.007  -1.110  0.00  0.00    -0.072 C 
ATOM      8  C   UNL     1      -1.160   3.477  -0.821  0.00  0.00    +0.037 C 
ATOM      9  N   UNL     1      -0.023   1.466   0.011  0.00  0.00    +0.385 N 
ATOM     10  H   UNL     1      -0.463   1.740   0.897  0.00  0.00    -0.081 HD
ENDROOT
BRANCH   4  11
ATOM     11  C   UNL     1       3.613   4.279   0.584  0.00  0.00    +0.267 C 
ATOM     12  O   UNL     1       4.001   3.156   0.837  0.00  0.00    -0.268 OA
ATOM     13  N   UNL     1       4.458   5.324   0.686  0.00  0.00    -0.286 N 
ATOM     14  C   UNL     1       5.878   5.130   1.028  0.00  0.00    +0.127 C 
ATOM     15  C   UNL     1       6.721   5.647  -0.145  0.00  0.00    +0.123 C 
ATOM     16  N   UNL     1       6.251   6.955  -0.582  0.00  0.00    -0.313 N 
ATOM     17  C   UNL     1       5.026   7.433  -0.357  0.00  0.00    +0.230 C 
ATOM     18  O   UNL     1       4.726   8.505  -0.839  0.00  0.00    -0.274 OA
ATOM     19  C   UNL     1       4.000   6.704   0.467  0.00  0.00    +0.203 C 
ATOM     20  H   UNL     1       6.872   7.518  -1.070  0.00  0.00    +0.149 HD
ENDBRANCH   4  11
BRANCH   1  21
ATOM     21  C   UNL     1      -0.553   6.562  -0.698  0.00  0.00    +0.144 C 
BRANCH  21  22
ATOM     22  C   UNL     1      -1.293   6.963   0.580  0.00  0.00    +0.028 C 
BRANCH  22  23
ATOM     23  C   UNL     1      -2.286   8.083   0.265  0.00  0.00    +0.037 C 
BRANCH  23  27
ATOM     24  C   UNL     1      -4.351   9.203   3.832  0.00  0.00    +0.000 A 
ATOM     25  C   UNL     1      -3.172   9.837   3.488  0.00  0.00    +0.000 A 
ATOM     26  C   UNL     1      -2.503   9.474   2.334  0.00  0.00    +0.003 A 
ATOM     27  C   UNL     1      -3.014   8.478   1.523  0.00  0.00    -0.047 A 
ATOM     28  C   UNL     1      -4.197   7.848   1.864  0.00  0.00    +0.003 A 
ATOM     29  C   UNL     1      -4.862   8.206   3.022  0.00  0.00    +0.000 A 
ENDBRANCH  23  27
ENDBRANCH  22  23
ENDBRANCH  21  22
ENDBRANCH   1  21
BRANCH   9  30
ATOM     30  C   UNL     1       0.020  -0.009  -0.067  0.00  0.00    -0.042 C 
BRANCH  30  31
ATOM     31  C   UNL     1      -1.363  -0.548   0.195  0.00  0.00    -0.060 A 
ATOM     32  C   UNL     1      -2.233  -0.759  -0.859  0.00  0.00    +0.002 A 
ATOM     33  C   UNL     1      -3.502  -1.254  -0.622  0.00  0.00    +0.004 A 
ATOM     34  C   UNL     1      -3.904  -1.538   0.669  0.00  0.00    +0.045 A 
ATOM     35  C   UNL     1      -3.033  -1.327   1.728  0.00  0.00    +0.117 A 
ATOM     36  C   UNL     1      -1.758  -0.835   1.487  0.00  0.00    +0.047 A 
BRANCH  35  37
ATOM     37  O   UNL     1      -3.426  -1.606   2.998  0.00  0.00    -0.507 OA
ATOM     38  H   UNL     1      -3.233  -2.511   3.279  0.00  0.00    +0.292 HD
ENDBRANCH  35  37
ENDBRANCH  30  31
ENDBRANCH   9  30
TORSDOF 8
