REMARK  Name = ZINC16115186
REMARK  15 active torsions:
REMARK  status: ('A' for Active; 'I' for Inactive)
REMARK    1  A    between atoms: C_1  and  C_2
REMARK    2  A    between atoms: C_5  and  N_8
REMARK    3  A    between atoms: C_9  and  C_11
REMARK    4  A    between atoms: C_11  and  C_12
REMARK    5  A    between atoms: N_18  and  N_19
REMARK    6  A    between atoms: C_20  and  C_21
REMARK    7  A    between atoms: C_23  and  C_32
REMARK    8  A    between atoms: C_24  and  O_31
REMARK    9  A    between atoms: C_25  and  C_27
REMARK   10  A    between atoms: C_27  and  C_28
REMARK   11  A    between atoms: C_27  and  C_29
REMARK   12  A    between atoms: C_27  and  C_30
REMARK   13  A    between atoms: C_32  and  C_33
REMARK   14  A    between atoms: C_32  and  C_34
REMARK   15  A    between atoms: C_32  and  C_35
REMARK                            x       y       z     vdW  Elec       q    Type
REMARK                         _______ _______ _______ _____ _____    ______ ____
ROOT
ATOM      1  C   UNL     1       0.946  -2.277  -0.121  0.00  0.00    +0.149 C 
ATOM      2  C   UNL     1       2.224  -3.097  -0.189  0.00  0.00    +0.233 C 
ATOM      3  O   UNL     1       2.977  -3.041  -1.138  0.00  0.00    -0.274 OA
ATOM      4  N   UNL     1       2.464  -3.876   0.852  0.00  0.00    -0.263 N 
ATOM      5  C   UNL     1       1.612  -3.945   1.934  0.00  0.00    +0.183 C 
ATOM      6  N   UNL     1       1.737  -4.675   3.022  0.00  0.00    -0.127 NA
ATOM      7  S   UNL     1       0.298  -2.810   1.512  0.00  0.00    -0.075 S 
ATOM      8  H   UNL     1       3.268  -4.419   0.855  0.00  0.00    +0.157 HD
ENDROOT
BRANCH   6   9
ATOM      9  N   UNL     1       2.759  -5.448   3.166  0.00  0.00    -0.155 NA
ATOM     10  C   UNL     1       2.884  -6.172   4.245  0.00  0.00    +0.143 C 
BRANCH  10  11
ATOM     11  C   UNL     1       4.050  -7.054   4.409  0.00  0.00    -0.004 A 
ATOM     12  C   UNL     1       5.024  -7.124   3.408  0.00  0.00    +0.017 A 
ATOM     13  C   UNL     1       6.116  -7.947   3.569  0.00  0.00    +0.000 A 
ATOM     14  C   UNL     1       6.246  -8.716   4.718  0.00  0.00    +0.124 A 
ATOM     15  C   UNL     1       5.279  -8.655   5.713  0.00  0.00    +0.000 A 
ATOM     16  C   UNL     1       4.185  -7.831   5.565  0.00  0.00    +0.017 A 
BRANCH  15  17
ATOM     17  C   UNL     1       5.426  -9.493   6.957  0.00  0.00    -0.009 C 
ATOM     18  C   UNL     1       4.236  -9.242   7.885  0.00  0.00    +0.015 C 
ATOM     19  C   UNL     1       5.471 -10.973   6.573  0.00  0.00    +0.015 C 
ATOM     20  C   UNL     1       6.722  -9.114   7.677  0.00  0.00    +0.015 C 
ENDBRANCH  15  17
BRANCH  13  21
ATOM     21  C   UNL     1       7.169  -8.019   2.493  0.00  0.00    -0.009 C 
ATOM     22  C   UNL     1       6.789  -7.082   1.344  0.00  0.00    +0.015 C 
ATOM     23  C   UNL     1       8.520  -7.593   3.072  0.00  0.00    +0.015 C 
ATOM     24  C   UNL     1       7.268  -9.453   1.970  0.00  0.00    +0.015 C 
ENDBRANCH  13  21
BRANCH  14  25
ATOM     25  O   UNL     1       7.323  -9.531   4.870  0.00  0.00    -0.506 OA
ATOM     26  H   UNL     1       7.192 -10.424   4.523  0.00  0.00    +0.292 HD
ENDBRANCH  14  25
ENDBRANCH  10  11
ENDBRANCH   6   9
BRANCH   1  27
ATOM     27  C   UNL     1       1.249  -0.777  -0.135  0.00  0.00    +0.120 C 
BRANCH  27  29
ATOM     28  N   UNL     1      -0.016   1.344   0.009  0.00  0.00    -0.285 N 
ATOM     29  C   UNL     1      -0.038  -0.004  -0.003  0.00  0.00    +0.219 C 
ATOM     30  O   UNL     1      -1.093  -0.594   0.093  0.00  0.00    -0.275 OA
ATOM     31  H   UNL     1       0.832   1.815   0.001  0.00  0.00    +0.155 HD
BRANCH  28  36
ATOM     32  C   UNL     1      -4.883   4.258   0.086  0.00  0.00    +0.044 C 
ATOM     33  C   UNL     1      -3.590   3.484   0.066  0.00  0.00    -0.050 A 
ATOM     34  C   UNL     1      -3.495   2.282   0.743  0.00  0.00    +0.005 A 
ATOM     35  C   UNL     1      -2.312   1.570   0.726  0.00  0.00    +0.023 A 
ATOM     36  C   UNL     1      -1.216   2.062   0.029  0.00  0.00    +0.033 A 
ATOM     37  C   UNL     1      -1.313   3.273  -0.645  0.00  0.00    +0.023 A 
ATOM     38  C   UNL     1      -2.502   3.977  -0.630  0.00  0.00    +0.005 A 
ENDBRANCH  28  36
ENDBRANCH  27  29
ENDBRANCH   1  27
TORSDOF 8
