REMARK  Name = ZINC20357281
REMARK  13 active torsions:
REMARK  status: ('A' for Active; 'I' for Inactive)
REMARK    1  A    between atoms: C_1  and  C_2
REMARK    2  A    between atoms: C_6  and  O_8
REMARK    3  A    between atoms: O_8  and  C_9
REMARK    4  A    between atoms: C_9  and  C_10
REMARK    5  A    between atoms: N_12  and  C_13
REMARK    6  A    between atoms: C_14  and  C_27
REMARK    7  A    between atoms: C_19  and  C_23
REMARK    8  A    between atoms: C_23  and  C_24
REMARK    9  A    between atoms: C_23  and  C_25
REMARK   10  A    between atoms: C_23  and  C_26
REMARK   11  A    between atoms: N_29  and  C_30
REMARK   12  A    between atoms: C_30  and  C_31
REMARK   13  A    between atoms: C_30  and  C_32
REMARK                            x       y       z     vdW  Elec       q    Type
REMARK                         _______ _______ _______ _____ _____    ______ ____
ROOT
ATOM      1  C   UNL     1      -5.120  -2.843   0.013  0.00  0.00    +0.084 A 
ATOM      2  C   UNL     1      -5.485  -4.182   0.008  0.00  0.00    +0.069 A 
ATOM      3  C   UNL     1      -6.905  -4.491   0.014  0.00  0.00    -0.023 A 
ATOM      4  C   UNL     1      -7.727  -3.419   0.024  0.00  0.00    -0.004 A 
ATOM      5  S   UNL     1      -6.644  -2.019   0.032  0.00  0.00    -0.077 S 
ATOM      6  C   UNL     1      -9.224  -3.430   0.034  0.00  0.00    +0.046 C 
ATOM      7  C   UNL     1      -9.696  -4.843   0.408  0.00  0.00    -0.000 C 
ATOM      8  C   UNL     1      -8.925  -5.860  -0.439  0.00  0.00    +0.009 C 
ATOM      9  C   UNL     1      -7.464  -5.909   0.009  0.00  0.00    +0.037 C 
ENDROOT
BRANCH   1  12
ATOM     10  C   UNL     1      -3.685  -0.959   0.015  0.00  0.00    +0.255 C 
ATOM     11  O   UNL     1      -4.656  -0.232   0.024  0.00  0.00    -0.272 OA
ATOM     12  N   UNL     1      -3.845  -2.298   0.009  0.00  0.00    -0.277 N 
ATOM     13  H   UNL     1      -2.965  -2.957   0.002  0.00  0.00    +0.155 HD
BRANCH  10  14
ATOM     14  C   UNL     1      -2.300  -0.366   0.012  0.00  0.00    +0.325 C 
BRANCH  14  15
ATOM     15  O   UNL     1      -2.392   1.060   0.019  0.00  0.00    -0.481 OA
BRANCH  15  21
ATOM     16  C   UNL     1       2.489   1.047  -0.016  0.00  0.00    +0.044 C 
ATOM     17  C   UNL     1       1.174   1.783   0.000  0.00  0.00    -0.047 A 
ATOM     18  C   UNL     1       1.157   3.166   0.007  0.00  0.00    +0.005 A 
ATOM     19  C   UNL     1      -0.048   3.844   0.023  0.00  0.00    +0.024 A 
ATOM     20  C   UNL     1      -1.238   3.141   0.030  0.00  0.00    +0.083 A 
ATOM     21  C   UNL     1      -1.223   1.753   0.017  0.00  0.00    +0.140 A 
ATOM     22  C   UNL     1      -0.013   1.076   0.008  0.00  0.00    +0.050 A 
ATOM     23 CL   UNL     1      -2.751   3.994   0.049  0.00  0.00    -0.080 Cl
ENDBRANCH  15  21
ENDBRANCH  14  15
ENDBRANCH  10  14
ENDBRANCH   1  12
BRANCH   7  24
ATOM     24  C   UNL     1     -11.194  -4.973   0.129  0.00  0.00    -0.035 C 
ATOM     25  C   UNL     1     -11.461  -4.725  -1.357  0.00  0.00    +0.011 C 
ATOM     26  C   UNL     1     -11.661  -6.382   0.502  0.00  0.00    +0.011 C 
ATOM     27  C   UNL     1     -11.960  -3.945   0.963  0.00  0.00    +0.011 C 
ENDBRANCH   7  24
BRANCH   2  28
ATOM     28  C   UNL     1      -4.475  -5.245  -0.004  0.00  0.00    +0.247 C 
ATOM     29  O   UNL     1      -4.051  -5.692   1.045  0.00  0.00    -0.270 OA
ATOM     30  N   UNL     1      -4.018  -5.727  -1.177  0.00  0.00    -0.309 N 
ATOM     31  H   UNL     1      -4.402  -5.323  -2.125  0.00  0.00    +0.149 HD
BRANCH  30  32
ATOM     32  C   UNL     1      -3.009  -6.790  -1.188  0.00  0.00    +0.067 C 
ATOM     33  C   UNL     1      -3.107  -7.572  -2.499  0.00  0.00    +0.027 C 
ATOM     34  C   UNL     1      -1.615  -6.170  -1.067  0.00  0.00    +0.027 C 
ENDBRANCH  30  32
ENDBRANCH   2  28
TORSDOF 7
