REMARK  Name = ZINC57612965
REMARK  8 active torsions:
REMARK  status: ('A' for Active; 'I' for Inactive)
REMARK    1  A    between atoms: C_1  and  C_2
REMARK    2  A    between atoms: N_11  and  C_15
REMARK    3  A    between atoms: C_15  and  C_16
REMARK    4  A    between atoms: N_18  and  C_19
REMARK    5  A    between atoms: C_19  and  C_20
REMARK    6  A    between atoms: C_20  and  N_27
REMARK    7  A    between atoms: N_27  and  C_28
REMARK    8  A    between atoms: N_27  and  C_29
REMARK                            x       y       z     vdW  Elec       q    Type
REMARK                         _______ _______ _______ _____ _____    ______ ____
ROOT
ATOM      1  C   UNL     1       1.855   0.626   5.567  0.00  0.00    +0.231 C 
ATOM      2  O   UNL     1       1.784  -0.558   5.314  0.00  0.00    -0.274 OA
ATOM      3  N   UNL     1       1.647   1.060   6.826  0.00  0.00    -0.315 N 
ATOM      4  H   UNL     1       1.704   2.007   7.028  0.00  0.00    +0.149 HD
ENDROOT
BRANCH   1   5
ATOM      5  C   UNL     1       2.175   1.612   4.473  0.00  0.00    +0.213 C 
BRANCH   5  15
ATOM      6  C   UNL     1       2.503   2.052   0.051  0.00  0.00    +0.010 C 
ATOM      7  C   UNL     1       1.861   0.672  -0.108  0.00  0.00    +0.018 C 
ATOM      8  C   UNL     1       2.555  -0.086  -1.242  0.00  0.00    +0.006 C 
ATOM      9  C   UNL     1       1.926  -1.474  -1.387  0.00  0.00    +0.000 C 
ATOM     10  C   UNL     1       2.101  -2.254  -0.082  0.00  0.00    +0.003 C 
ATOM     11  C   UNL     1       1.405  -1.503   1.056  0.00  0.00    +0.035 C 
ATOM     12  C   UNL     1       2.009  -0.110   1.193  0.00  0.00    +0.115 C 
ATOM     13  C   UNL     1       1.360   0.637   2.335  0.00  0.00    +0.247 C 
ATOM     14  O   UNL     1       0.191   0.940   2.443  0.00  0.00    -0.273 OA
ATOM     15  N   UNL     1       2.356   0.896   3.208  0.00  0.00    -0.215 N 
ATOM     16  C   UNL     1       3.528   0.418   2.774  0.00  0.00    +0.310 C 
ATOM     17  O   UNL     1       4.572   0.528   3.388  0.00  0.00    -0.252 OA
ATOM     18  N   UNL     1       3.422  -0.198   1.581  0.00  0.00    -0.285 N 
ATOM     19  H   UNL     1       4.138  -0.618   1.079  0.00  0.00    +0.151 HD
ENDBRANCH   5  15
ENDBRANCH   1   5
BRANCH   3  20
ATOM     20  C   UNL     1       1.336   0.102   7.889  0.00  0.00    +0.092 C 
BRANCH  20  21
ATOM     21  C   UNL     1       1.283   0.831   9.233  0.00  0.00    -0.050 C 
ATOM     22  C   UNL     1       1.907  -0.029  10.299  0.00  0.00    -0.010 C 
ATOM     23  C   UNL     1       1.841  -1.530   9.959  0.00  0.00    -0.001 C 
ATOM     24  C   UNL     1       0.486  -1.947   9.356  0.00  0.00    -0.000 C 
ATOM     25  C   UNL     1      -0.679  -1.302  10.056  0.00  0.00    -0.000 C 
ATOM     26  C   UNL     1      -1.059  -0.017   9.293  0.00  0.00    -0.001 C 
ATOM     27  C   UNL     1      -0.186   1.101   9.619  0.00  0.00    -0.010 C 
BRANCH  21  28
ATOM     28  N   UNL     1       2.009   2.104   9.133  0.00  0.00    +0.381 N 
ATOM     29  C   UNL     1       2.000   2.776  10.439  0.00  0.00    -0.096 C 
ATOM     30  C   UNL     1       3.396   1.846   8.725  0.00  0.00    -0.096 C 
ATOM     31  H   UNL     1       1.561   2.694   8.448  0.00  0.00    -0.082 HD
ENDBRANCH  21  28
ENDBRANCH  20  21
ENDBRANCH   3  20
TORSDOF 5
