REMARK  Name = ZINC05669439
REMARK  8 active torsions:
REMARK  status: ('A' for Active; 'I' for Inactive)
REMARK    1  A    between atoms: C_1  and  C_2
REMARK    2  A    between atoms: C_2  and  C_3
REMARK    3  A    between atoms: C_2  and  C_4
REMARK    4  A    between atoms: C_2  and  C_5
REMARK    5  A    between atoms: C_8  and  C_11
REMARK    6  A    between atoms: N_17  and  N_18
REMARK    7  A    between atoms: C_19  and  C_20
REMARK    8  A    between atoms: C_24  and  O_26
REMARK                            x       y       z     vdW  Elec       q    Type
REMARK                         _______ _______ _______ _____ _____    ______ ____
ROOT
ATOM      1  C   UNL     1      -1.258   8.170  -1.063  0.00  0.00    +0.184 A 
ATOM      2  N   UNL     1      -1.276   9.412  -0.668  0.00  0.00    -0.152 NA
ATOM      3  N   UNL     1      -1.263   9.421   0.734  0.00  0.00    -0.253 N 
ATOM      4  H   UNL     1      -1.271  10.208   1.302  0.00  0.00    +0.191 HD
ATOM      5  C   UNL     1      -1.242   8.138   1.149  0.00  0.00    +0.197 A 
ATOM      6  S   UNL     1      -1.225   7.602   2.775  0.00  0.00    -0.010 S 
ATOM      7  N   UNL     1      -1.234   7.354   0.052  0.00  0.00    -0.188 N 
ENDROOT
BRANCH   1  11
ATOM      8  C   UNL     1      -1.273   6.850  -5.102  0.00  0.00    -0.042 A 
ATOM      9  C   UNL     1      -1.603   8.160  -4.804  0.00  0.00    +0.005 A 
ATOM     10  C   UNL     1      -1.600   8.595  -3.494  0.00  0.00    +0.012 A 
ATOM     11  C   UNL     1      -1.263   7.710  -2.470  0.00  0.00    +0.021 A 
ATOM     12  C   UNL     1      -0.925   6.392  -2.777  0.00  0.00    +0.012 A 
ATOM     13  C   UNL     1      -0.938   5.968  -4.090  0.00  0.00    +0.005 A 
BRANCH   8  15
ATOM     14  C   UNL     1      -0.280   7.210  -7.345  0.00  0.00    +0.015 C 
ATOM     15  C   UNL     1      -1.279   6.382  -6.534  0.00  0.00    -0.013 C 
ATOM     16  C   UNL     1      -0.881   4.906  -6.590  0.00  0.00    +0.015 C 
ATOM     17  C   UNL     1      -2.681   6.556  -7.122  0.00  0.00    +0.015 C 
ENDBRANCH   8  15
ENDBRANCH   1  11
BRANCH   7  18
ATOM     18  N   UNL     1      -1.210   5.953   0.045  0.00  0.00    -0.171 NA
ATOM     19  C   UNL     1      -0.076   5.323   0.031  0.00  0.00    +0.141 C 
BRANCH  19  20
ATOM     20  C   UNL     1      -0.051   3.849   0.023  0.00  0.00    -0.002 A 
ATOM     21  C   UNL     1      -1.248   3.127   0.031  0.00  0.00    +0.010 A 
ATOM     22  C   UNL     1      -1.221   1.748   0.017  0.00  0.00    +0.004 A 
ATOM     23  C   UNL     1      -0.013   1.076   0.008  0.00  0.00    +0.045 A 
ATOM     24  C   UNL     1       1.182   1.784   0.000  0.00  0.00    +0.117 A 
ATOM     25  C   UNL     1       1.167   3.168   0.008  0.00  0.00    +0.055 A 
BRANCH  24  26
ATOM     26  O   UNL     1       2.366   1.117  -0.015  0.00  0.00    -0.507 OA
ATOM     27  H   UNL     1       2.700   0.929  -0.903  0.00  0.00    +0.292 HD
ENDBRANCH  24  26
ENDBRANCH  19  20
ENDBRANCH   7  18
TORSDOF 5
