REMARK  Name = ZINC07393046
REMARK  11 active torsions:
REMARK  status: ('A' for Active; 'I' for Inactive)
REMARK    1  A    between atoms: C_1  and  C_2
REMARK    2  A    between atoms: C_2  and  N_58
REMARK    3  A    between atoms: C_3  and  C_4
REMARK    4  A    between atoms: C_3  and  N_58
REMARK    5  A    between atoms: C_5  and  C_6
REMARK    6  A    between atoms: C_5  and  N_58
REMARK    7  A    between atoms: C_6  and  S_7
REMARK    8  A    between atoms: S_7  and  C_8
REMARK    9  A    between atoms: N_22  and  C_23
REMARK   10  A    between atoms: C_27  and  C_30
REMARK   11  A    between atoms: C_28  and  C_29
REMARK                            x       y       z     vdW  Elec       q    Type
REMARK                         _______ _______ _______ _____ _____    ______ ____
ROOT
ATOM      1  C   UNL     1       1.043   5.487  -1.357  0.00  0.00    +0.177 A 
ATOM      2  N   UNL     1       0.440   4.343  -1.126  0.00  0.00    -0.221 NA
ATOM      3  C   UNL     1       1.093   3.176  -1.261  0.00  0.00    +0.104 A 
ATOM      4  C   UNL     1       0.705   1.770  -1.080  0.00  0.00    +0.026 A 
ATOM      5  C   UNL     1      -0.482   1.141  -0.703  0.00  0.00    +0.012 A 
ATOM      6  C   UNL     1      -0.535  -0.222  -0.621  0.00  0.00    +0.001 A 
ATOM      7  C   UNL     1       0.586  -0.988  -0.911  0.00  0.00    +0.002 A 
ATOM      8  C   UNL     1       1.767  -0.388  -1.285  0.00  0.00    +0.026 A 
ATOM      9  C   UNL     1       1.843   1.000  -1.375  0.00  0.00    +0.049 A 
ATOM     10  N   UNL     1       2.868   1.857  -1.715  0.00  0.00    -0.349 N 
ATOM     11  H   UNL     1       3.764   1.581  -1.964  0.00  0.00    +0.166 HD
ATOM     12  C   UNL     1       2.431   3.171  -1.651  0.00  0.00    +0.132 A 
ATOM     13  C   UNL     1       3.066   4.406  -1.896  0.00  0.00    +0.283 A 
ATOM     14  O   UNL     1       4.236   4.447  -2.239  0.00  0.00    -0.265 OA
ATOM     15  N   UNL     1       2.353   5.542  -1.742  0.00  0.00    -0.254 N 
ENDROOT
BRANCH  15  16
ATOM     16  C   UNL     1       2.959   6.782  -1.978  0.00  0.00    +0.055 A 
ATOM     17  C   UNL     1       3.596   7.454  -0.943  0.00  0.00    +0.026 A 
ATOM     18  C   UNL     1       4.193   8.677  -1.179  0.00  0.00    +0.002 A 
ATOM     19  C   UNL     1       4.156   9.233  -2.445  0.00  0.00    +0.004 A 
ATOM     20  C   UNL     1       3.522   8.567  -3.477  0.00  0.00    -0.046 A 
ATOM     21  C   UNL     1       2.928   7.341  -3.249  0.00  0.00    -0.024 A 
ATOM     22  C   UNL     1       2.243   6.613  -4.376  0.00  0.00    +0.046 C 
ATOM     23  C   UNL     1       3.484   9.177  -4.855  0.00  0.00    +0.044 C 
ENDBRANCH  15  16
BRANCH   1  24
ATOM     24  S   UNL     1       0.140   6.988  -1.166  0.00  0.00    -0.089 S 
BRANCH  24  25
ATOM     25  C   UNL     1      -1.468   6.325  -0.666  0.00  0.00    +0.059 C 
BRANCH  25  26
ATOM     26  C   UNL     1      -2.446   7.480  -0.436  0.00  0.00    -0.068 C 
BRANCH  26  27
ATOM     27  N   UNL     1      -3.759   6.922  -0.049  0.00  0.00    +0.380 N 
ATOM     28  H   UNL     1      -4.036   6.212  -0.737  0.00  0.00    -0.082 HD
BRANCH  27  30
ATOM     29  C   UNL     1      -3.232   7.313   2.334  0.00  0.00    -0.017 C 
ATOM     30  C   UNL     1      -3.667   6.290   1.283  0.00  0.00    -0.082 C 
ENDBRANCH  27  30
BRANCH  27  31
ATOM     31  C   UNL     1      -4.777   7.994  -0.030  0.00  0.00    -0.082 C 
ATOM     32  C   UNL     1      -6.166   7.352   0.008  0.00  0.00    -0.017 C 
ENDBRANCH  27  31
ENDBRANCH  26  27
ENDBRANCH  25  26
ENDBRANCH  24  25
ENDBRANCH   1  24
TORSDOF 7
