REMARK  Name = ZINC13642672
REMARK  8 active torsions:
REMARK  status: ('A' for Active; 'I' for Inactive)
REMARK    1  A    between atoms: C_1  and  C_2
REMARK    2  A    between atoms: C_2  and  N_3
REMARK    3  A    between atoms: C_14  and  C_16
REMARK    4  A    between atoms: C_27  and  S_32
REMARK    5  A    between atoms: S_32  and  N_35
REMARK    6  A    between atoms: N_35  and  C_36
REMARK    7  A    between atoms: C_36  and  C_37
REMARK    8  A    between atoms: C_36  and  C_38
REMARK                            x       y       z     vdW  Elec       q    Type
REMARK                         _______ _______ _______ _____ _____    ______ ____
ROOT
ATOM      1  C   UNL     1      -2.515   0.966   0.019  0.00  0.00    +0.105 C 
ATOM      2  C   UNL     1      -2.882   0.558  -1.396  0.00  0.00    +0.029 C 
ATOM      3  C   UNL     1      -2.947   1.669  -2.452  0.00  0.00    +0.033 C 
ATOM      4  C   UNL     1      -2.582   0.905  -3.727  0.00  0.00    -0.030 C 
ATOM      5  C   UNL     1      -1.842  -0.165  -3.420  0.00  0.00    -0.023 C 
ATOM      6  C   UNL     1      -1.626  -0.185  -1.951  0.00  0.00    +0.049 C 
ATOM      7  C   UNL     1      -1.480  -1.451  -1.200  0.00  0.00    -0.018 A 
ATOM      8  C   UNL     1      -0.998  -2.604  -1.781  0.00  0.00    +0.034 A 
ATOM      9  C   UNL     1      -0.847  -3.755  -1.029  0.00  0.00    +0.106 A 
ATOM     10  C   UNL     1      -1.181  -3.751   0.313  0.00  0.00    +0.030 A 
ATOM     11  C   UNL     1      -1.672  -2.604   0.902  0.00  0.00    +0.025 A 
ATOM     12  C   UNL     1      -1.833  -1.444   0.154  0.00  0.00    +0.031 A 
ATOM     13  N   UNL     1      -2.347  -0.297   0.770  0.00  0.00    -0.336 N 
ATOM     14  H   UNL     1      -2.598  -0.331   1.706  0.00  0.00    +0.147 HD
ENDROOT
BRANCH   1  26
ATOM     15  N   UNL     1       2.182   4.103  -0.029  0.00  0.00    -0.340 N 
ATOM     16  C   UNL     1       1.657   5.373  -0.191  0.00  0.00    +0.050 A 
ATOM     17  C   UNL     1       2.254   6.627  -0.289  0.00  0.00    +0.026 A 
ATOM     18  C   UNL     1       1.474   7.751  -0.450  0.00  0.00    +0.002 A 
ATOM     19  C   UNL     1       0.093   7.647  -0.517  0.00  0.00    +0.001 A 
ATOM     20  C   UNL     1      -0.516   6.415  -0.423  0.00  0.00    +0.010 A 
ATOM     21  C   UNL     1       0.260   5.270  -0.260  0.00  0.00    +0.008 A 
ATOM     22  C   UNL     1      -0.060   3.836  -0.129  0.00  0.00    +0.008 A 
ATOM     23  C   UNL     1       1.164   3.166   0.011  0.00  0.00    +0.050 A 
ATOM     24  C   UNL     1       1.171   1.782   0.155  0.00  0.00    +0.027 A 
ATOM     25  C   UNL     1      -0.017   1.083   0.161  0.00  0.00    +0.007 A 
ATOM     26  C   UNL     1      -1.226   1.747   0.017  0.00  0.00    -0.026 A 
ATOM     27  C   UNL     1      -1.253   3.118  -0.121  0.00  0.00    +0.016 A 
BRANCH  15  29
ATOM     28  C   UNL     1       4.187   3.538  -1.310  0.00  0.00    +0.027 C 
ATOM     29  C   UNL     1       3.609   3.794   0.083  0.00  0.00    +0.119 C 
ENDBRANCH  15  29
ENDBRANCH   1  26
BRANCH   9  30
ATOM     30  S   UNL     1      -0.230  -5.224  -1.780  0.00  0.00    +0.059 S 
ATOM     31  O   UNL     1       0.522  -4.816  -2.914  0.00  0.00    -0.153 OA
ATOM     32  O   UNL     1       0.331  -6.009  -0.736  0.00  0.00    -0.153 OA
BRANCH  30  33
ATOM     33  N   UNL     1      -1.535  -6.065  -2.355  0.00  0.00    -0.187 NA
ATOM     34  H   UNL     1      -1.760  -6.931  -1.978  0.00  0.00    +0.148 HD
BRANCH  33  35
ATOM     35  C   UNL     1      -2.352  -5.503  -3.434  0.00  0.00    +0.070 C 
ATOM     36  C   UNL     1      -2.847  -6.631  -4.341  0.00  0.00    +0.025 C 
ATOM     37  C   UNL     1      -3.552  -4.767  -2.834  0.00  0.00    +0.025 C 
ENDBRANCH  33  35
ENDBRANCH  30  33
ENDBRANCH   9  30
TORSDOF 5
