REMARK  Name = ZINC39843610
REMARK  5 active torsions:
REMARK  status: ('A' for Active; 'I' for Inactive)
REMARK    1  A    between atoms: C_10  and  N_11
REMARK    2  A    between atoms: C_16  and  C_19
REMARK    3  A    between atoms: C_19  and  C_20
REMARK    4  A    between atoms: N_22  and  C_23
REMARK    5  A    between atoms: C_26  and  N_29
REMARK                            x       y       z     vdW  Elec       q    Type
REMARK                         _______ _______ _______ _____ _____    ______ ____
ROOT
ATOM      1  N   UNL     1       5.163  -0.292  -0.691  0.00  0.00    -0.225 NA
ATOM      2  C   UNL     1       6.289  -0.922  -0.438  0.00  0.00    +0.161 C 
ATOM      3  N   UNL     1       6.489  -2.276  -0.280  0.00  0.00    -0.264 N 
ATOM      4  C   UNL     1       7.679  -2.793  -0.026  0.00  0.00    +0.232 C 
ATOM      5  O   UNL     1       7.848  -3.986   0.111  0.00  0.00    -0.274 OA
ATOM      6  C   UNL     1       8.824  -1.798   0.081  0.00  0.00    +0.149 C 
ATOM      7  S   UNL     1       7.920  -0.224  -0.226  0.00  0.00    -0.077 S 
ATOM      8  H   UNL     1       5.728  -2.873  -0.357  0.00  0.00    +0.157 HD
ENDROOT
BRANCH   1  18
ATOM      9  C   UNL     1       1.255  -0.566  -3.928  0.00  0.00    +0.001 A 
ATOM     10  C   UNL     1       2.446   0.157  -3.930  0.00  0.00    +0.001 A 
ATOM     11  C   UNL     1       3.340   0.037  -2.908  0.00  0.00    +0.010 A 
ATOM     12  C   UNL     1       3.059  -0.824  -1.841  0.00  0.00    +0.008 A 
ATOM     13  C   UNL     1       1.849  -1.560  -1.835  0.00  0.00    -0.016 A 
ATOM     14  C   UNL     1       0.951  -1.413  -2.906  0.00  0.00    +0.008 A 
ATOM     15  C   UNL     1       1.571  -2.423  -0.762  0.00  0.00    +0.008 A 
ATOM     16  C   UNL     1       2.450  -2.556   0.269  0.00  0.00    +0.003 A 
ATOM     17  C   UNL     1       3.647  -1.853   0.305  0.00  0.00    +0.028 A 
ATOM     18  C   UNL     1       3.987  -0.983  -0.723  0.00  0.00    +0.074 A 
ENDBRANCH   1  18
BRANCH   6  19
ATOM     19  C   UNL     1       9.450  -1.821   1.477  0.00  0.00    +0.120 C 
BRANCH  19  20
ATOM     20  C   UNL     1      10.652  -0.914   1.503  0.00  0.00    +0.219 C 
ATOM     21  O   UNL     1      10.977  -0.308   0.504  0.00  0.00    -0.275 OA
ATOM     22  N   UNL     1      11.367  -0.776   2.637  0.00  0.00    -0.285 N 
ATOM     23  H   UNL     1      11.146  -1.307   3.418  0.00  0.00    +0.155 HD
BRANCH  22  24
ATOM     24  C   UNL     1      12.429   0.135   2.689  0.00  0.00    +0.034 A 
ATOM     25  C   UNL     1      13.547  -0.143   3.464  0.00  0.00    +0.025 A 
ATOM     26  C   UNL     1      14.593   0.758   3.513  0.00  0.00    +0.034 A 
ATOM     27  C   UNL     1      14.527   1.935   2.790  0.00  0.00    +0.126 A 
ATOM     28  C   UNL     1      13.415   2.215   2.018  0.00  0.00    +0.034 A 
ATOM     29  C   UNL     1      12.369   1.315   1.960  0.00  0.00    +0.025 A 
BRANCH  27  30
ATOM     30  N   UNL     1      15.650   2.898   2.844  0.00  0.00    +0.056 N 
ATOM     31  O   UNL     1      16.623   2.655   3.520  0.00  0.00    -0.126 OA
ATOM     32  O   UNL     1      15.594   3.928   2.213  0.00  0.00    -0.126 OA
ENDBRANCH  27  30
ENDBRANCH  22  24
ENDBRANCH  19  20
ENDBRANCH   6  19
TORSDOF 5
