REMARK  Name = ZINC08454267
REMARK  6 active torsions:
REMARK  status: ('A' for Active; 'I' for Inactive)
REMARK    1  A    between atoms: C_4  and  N_26
REMARK    2  A    between atoms: C_6  and  C_7
REMARK    3  A    between atoms: N_8  and  N_9
REMARK    4  A    between atoms: C_10  and  C_12
REMARK    5  A    between atoms: C_17  and  C_18
REMARK    6  A    between atoms: C_17  and  N_49
REMARK                            x       y       z     vdW  Elec       q    Type
REMARK                         _______ _______ _______ _____ _____    ______ ____
ROOT
ATOM      1  N   UNL     1      -2.444  -2.779   0.009  0.00  0.00    -0.207 N 
ATOM      2  C   UNL     1      -2.422  -4.127   0.002  0.00  0.00    +0.235 C 
ATOM      3  O   UNL     1      -1.362  -4.716  -0.011  0.00  0.00    -0.274 OA
ATOM      4  H   UNL     1      -3.292  -2.308   0.020  0.00  0.00    +0.177 HD
ENDROOT
BRANCH   2   5
ATOM      5  C   UNL     1      -3.715  -4.901   0.010  0.00  0.00    +0.073 C 
ATOM      6  C   UNL     1      -4.510  -4.558   1.273  0.00  0.00    -0.006 C 
ATOM      7  C   UNL     1      -5.792  -5.392   1.305  0.00  0.00    -0.078 C 
ATOM      8  C   UNL     1      -4.727  -7.183   0.068  0.00  0.00    -0.078 C 
ATOM      9  C   UNL     1      -3.413  -6.402  -0.001  0.00  0.00    -0.006 C 
ATOM     10  N   UNL     1      -5.432  -6.826   1.318  0.00  0.00    +0.382 N 
ATOM     11  H   UNL     1      -4.809  -7.006   2.114  0.00  0.00    -0.081 HD
BRANCH  10  12
ATOM     12  C   UNL     1      -6.649  -7.651   1.464  0.00  0.00    -0.042 C 
BRANCH  12  13
ATOM     13  C   UNL     1      -7.490  -7.096   2.584  0.00  0.00    -0.045 A 
ATOM     14  C   UNL     1      -8.651  -6.402   2.298  0.00  0.00    +0.006 A 
ATOM     15  C   UNL     1      -9.424  -5.893   3.324  0.00  0.00    +0.038 A 
ATOM     16  C   UNL     1      -9.036  -6.078   4.641  0.00  0.00    +0.125 A 
ATOM     17  C   UNL     1      -7.873  -6.772   4.927  0.00  0.00    +0.058 A 
ATOM     18  C   UNL     1      -7.103  -7.285   3.899  0.00  0.00    +0.045 A 
ATOM     19 CL   UNL     1      -5.649  -8.163   4.258  0.00  0.00    -0.083 Cl
ATOM     20  F   UNL     1      -9.791  -5.580   5.644  0.00  0.00    -0.205 F 
ENDBRANCH  12  13
ENDBRANCH  10  12
ENDBRANCH   2   5
BRANCH   1  22
ATOM     21  C   UNL     1      -1.263  -0.762   0.009  0.00  0.00    +0.138 C 
ATOM     22  N   UNL     1      -1.242  -2.059   0.002  0.00  0.00    -0.188 NA
BRANCH  21  28
ATOM     23  C   UNL     1       1.224  -0.680  -0.013  0.00  0.00    +0.011 A 
ATOM     24  C   UNL     1       2.404   0.035  -0.021  0.00  0.00    +0.023 A 
ATOM     25  C   UNL     1       2.378   1.419  -0.013  0.00  0.00    +0.071 A 
ATOM     26  C   UNL     1       1.169   2.095   0.002  0.00  0.00    +0.145 A 
ATOM     27  C   UNL     1      -0.017   1.393   0.010  0.00  0.00    +0.043 A 
ATOM     28  C   UNL     1       0.002  -0.004   0.002  0.00  0.00    -0.003 A 
ATOM     29 CL   UNL     1       3.868   2.311  -0.021  0.00  0.00    -0.081 Cl
BRANCH  26  30
ATOM     30  N   UNL     1       1.151   3.576   0.010  0.00  0.00    +0.058 N 
ATOM     31  O   UNL     1       0.089   4.171   0.024  0.00  0.00    -0.126 OA
ATOM     32  O   UNL     1       2.199   4.197   0.004  0.00  0.00    -0.126 OA
ENDBRANCH  26  30
ENDBRANCH  21  28
ENDBRANCH   1  22
TORSDOF 6
