REMARK  Name = ZINC11965236
REMARK  9 active torsions:
REMARK  status: ('A' for Active; 'I' for Inactive)
REMARK    1  A    between atoms: C_1  and  C_2
REMARK    2  A    between atoms: C_2  and  C_3
REMARK    3  A    between atoms: C_2  and  C_4
REMARK    4  A    between atoms: C_4  and  C_5
REMARK    5  A    between atoms: C_5  and  C_7
REMARK    6  A    between atoms: C_5  and  N_55
REMARK    7  A    between atoms: C_10  and  N_55
REMARK    8  A    between atoms: N_16  and  C_19
REMARK    9  A    between atoms: C_19  and  C_20
REMARK                            x       y       z     vdW  Elec       q    Type
REMARK                         _______ _______ _______ _____ _____    ______ ____
ROOT
ATOM      1  C   UNL     1       1.917  -0.523  -1.385  0.00  0.00    -0.069 C 
ATOM      2  C   UNL     1       1.433  -1.801  -2.045  0.00  0.00    -0.007 C 
ATOM      3  C   UNL     1       1.785  -1.811  -3.534  0.00  0.00    +0.094 C 
ATOM      4  C   UNL     1       3.199  -2.327  -3.690  0.00  0.00    +0.216 C 
ATOM      5  O   UNL     1       3.392  -3.426  -4.165  0.00  0.00    -0.276 OA
ATOM      6  N   UNL     1       4.234  -1.577  -3.308  0.00  0.00    -0.297 N 
ATOM      7  C   UNL     1       4.014  -0.239  -2.736  0.00  0.00    +0.106 C 
ATOM      8  C   UNL     1       3.429  -0.397  -1.331  0.00  0.00    +0.003 C 
ENDROOT
BRANCH   1   9
ATOM      9  N   UNL     1       1.399  -0.477  -0.005  0.00  0.00    +0.389 N 
ATOM     10  H   UNL     1       1.440  -1.419   0.403  0.00  0.00    -0.084 HD
ATOM     11  H   UNL     1       1.976   0.163   0.553  0.00  0.00    -0.084 HD
BRANCH   9  12
ATOM     12  C   UNL     1       0.002  -0.004   0.002  0.00  0.00    +0.016 C 
BRANCH  12  13
ATOM     13  C   UNL     1      -0.018   1.503   0.010  0.00  0.00    +0.196 C 
ATOM     14  O   UNL     1       1.024   2.123   0.004  0.00  0.00    -0.278 OA
ATOM     15  N   UNL     1      -1.195   2.161   0.019  0.00  0.00    -0.331 N 
ATOM     16  H   UNL     1      -2.028   1.664   0.021  0.00  0.00    +0.145 HD
ATOM     17  H   UNL     1      -1.208   3.131   0.025  0.00  0.00    +0.145 HD
ENDBRANCH  12  13
BRANCH  12  18
ATOM     18  C   UNL     1      -0.700  -0.530   1.255  0.00  0.00    -0.004 C 
BRANCH  18  20
ATOM     19  C   UNL     1      -1.379  -2.592   2.493  0.00  0.00    +0.007 C 
ATOM     20  C   UNL     1      -0.790  -2.056   1.187  0.00  0.00    -0.018 C 
ATOM     21  C   UNL     1      -1.690  -2.462   0.018  0.00  0.00    +0.007 C 
ENDBRANCH  18  20
ENDBRANCH  12  18
ENDBRANCH   9  12
ENDBRANCH   1   9
BRANCH   6  22
ATOM     22  C   UNL     1       5.598  -2.089  -3.458  0.00  0.00    +0.144 C 
BRANCH  22  23
ATOM     23  C   UNL     1       5.997  -2.832  -2.208  0.00  0.00    -0.008 A 
ATOM     24  C   UNL     1       6.034  -4.214  -2.209  0.00  0.00    +0.056 A 
ATOM     25  C   UNL     1       6.404  -4.898  -1.063  0.00  0.00    +0.167 A 
ATOM     26  C   UNL     1       6.728  -4.191   0.092  0.00  0.00    +0.168 A 
ATOM     27  C   UNL     1       6.684  -2.807   0.088  0.00  0.00    +0.070 A 
ATOM     28  C   UNL     1       6.319  -2.129  -1.061  0.00  0.00    +0.049 A 
ATOM     29 CL   UNL     1       6.265  -0.394  -1.064  0.00  0.00    -0.083 Cl
ATOM     30  O   UNL     1       7.051  -5.084   1.074  0.00  0.00    -0.453 OA
ATOM     31  C   UNL     1       6.527  -6.349   0.630  0.00  0.00    +0.466 C 
ATOM     32  O   UNL     1       6.523  -6.234  -0.805  0.00  0.00    -0.453 OA
ENDBRANCH  22  23
ENDBRANCH   6  22
TORSDOF 7
