REMARK  Name = ZINC21226888
REMARK  7 active torsions:
REMARK  status: ('A' for Active; 'I' for Inactive)
REMARK    1  A    between atoms: C_1  and  C_2
REMARK    2  A    between atoms: C_2  and  O_3
REMARK    3  A    between atoms: O_3  and  C_4
REMARK    4  A    between atoms: C_6  and  C_11
REMARK    5  A    between atoms: C_9  and  O_10
REMARK    6  A    between atoms: C_16  and  C_21
REMARK    7  A    between atoms: C_24  and  C_27
REMARK                            x       y       z     vdW  Elec       q    Type
REMARK                         _______ _______ _______ _____ _____    ______ ____
ROOT
ATOM      1  C   UNL     1       2.009  -0.548  -1.337  0.00  0.00    +0.136 C 
ATOM      2  C   UNL     1       2.417   0.886  -1.579  0.00  0.00    +0.036 C 
ATOM      3  C   UNL     1       1.970   1.957  -0.904  0.00  0.00    +0.017 C 
ATOM      4  C   UNL     1       2.432   3.354  -1.290  0.00  0.00    +0.059 C 
ATOM      5  C   UNL     1       3.873   3.303  -1.795  0.00  0.00    +0.032 C 
ATOM      6  C   UNL     1       3.908   2.380  -3.018  0.00  0.00    +0.088 C 
ATOM      7  C   UNL     1       3.358   1.042  -2.624  0.00  0.00    +0.163 C 
ATOM      8  O   UNL     1       3.735   0.054  -3.224  0.00  0.00    -0.292 OA
ATOM      9  N   UNL     1       1.095   1.920   0.133  0.00  0.00    -0.316 N 
ATOM     10  C   UNL     1      -0.094   1.196   0.140  0.00  0.00    +0.052 A 
ATOM     11  C   UNL     1      -1.331   1.807   0.239  0.00  0.00    +0.025 A 
ATOM     12  C   UNL     1      -2.471   1.023   0.304  0.00  0.00    +0.002 A 
ATOM     13  C   UNL     1      -2.371  -0.356   0.270  0.00  0.00    +0.002 A 
ATOM     14  C   UNL     1      -1.135  -0.967   0.153  0.00  0.00    +0.025 A 
ATOM     15  C   UNL     1       0.007  -0.185   0.070  0.00  0.00    +0.049 A 
ATOM     16  N   UNL     1       1.264  -0.756  -0.113  0.00  0.00    -0.331 N 
ATOM     17  H   UNL     1       1.304   2.490   1.050  0.00  0.00    +0.152 HD
ATOM     18  H   UNL     1       1.690  -1.374   0.692  0.00  0.00    +0.147 HD
ENDROOT
BRANCH   5  19
ATOM     19  C   UNL     1       4.326   4.686  -2.186  0.00  0.00    -0.043 A 
ATOM     20  C   UNL     1       3.658   5.377  -3.180  0.00  0.00    +0.004 A 
ATOM     21  C   UNL     1       4.071   6.647  -3.536  0.00  0.00    +0.003 A 
ATOM     22  C   UNL     1       5.157   7.224  -2.903  0.00  0.00    -0.050 A 
ATOM     23  C   UNL     1       5.827   6.531  -1.913  0.00  0.00    +0.003 A 
ATOM     24  C   UNL     1       5.412   5.262  -1.554  0.00  0.00    +0.004 A 
ATOM     25  C   UNL     1       5.609   8.607  -3.294  0.00  0.00    +0.044 C 
ENDBRANCH   5  19
BRANCH   1  28
ATOM     26  C   UNL     1       0.845  -2.436  -4.395  0.00  0.00    +0.162 A 
ATOM     27  C   UNL     1       1.622  -2.012  -3.329  0.00  0.00    +0.055 A 
ATOM     28  C   UNL     1       1.163  -1.008  -2.496  0.00  0.00    -0.019 A 
ATOM     29  C   UNL     1      -0.072  -0.430  -2.720  0.00  0.00    +0.009 A 
ATOM     30  C   UNL     1      -0.850  -0.845  -3.786  0.00  0.00    +0.049 A 
ATOM     31  C   UNL     1      -0.396  -1.850  -4.625  0.00  0.00    +0.158 A 
BRANCH  31  32
ATOM     32  O   UNL     1      -1.162  -2.263  -5.670  0.00  0.00    -0.503 OA
ATOM     33  H   UNL     1      -2.143  -1.799  -5.850  0.00  0.00    +0.292 HD
ENDBRANCH  31  32
BRANCH  26  34
ATOM     34  O   UNL     1       1.295  -3.423  -5.215  0.00  0.00    -0.489 OA
BRANCH  34  36
ATOM     35  C   UNL     1       2.910  -5.067  -5.942  0.00  0.00    +0.048 C 
ATOM     36  C   UNL     1       2.577  -3.979  -4.919  0.00  0.00    +0.226 C 
ENDBRANCH  34  36
ENDBRANCH  26  34
ENDBRANCH   1  28
TORSDOF 5
