REMARK  Name = ZINC16928964
REMARK  11 active torsions:
REMARK  status: ('A' for Active; 'I' for Inactive)
REMARK    1  A    between atoms: C_4  and  C_7
REMARK    2  A    between atoms: C_7  and  O_8
REMARK    3  A    between atoms: O_8  and  C_9
REMARK    4  A    between atoms: C_9  and  C_10
REMARK    5  A    between atoms: C_12  and  O_35
REMARK    6  A    between atoms: C_14  and  O_27
REMARK    7  A    between atoms: C_16  and  N_19
REMARK    8  A    between atoms: O_27  and  C_28
REMARK    9  A    between atoms: C_28  and  C_29
REMARK   10  A    between atoms: O_35  and  C_36
REMARK   11  A    between atoms: C_36  and  C_37
REMARK                            x       y       z     vdW  Elec       q    Type
REMARK                         _______ _______ _______ _____ _____    ______ ____
ROOT
ATOM      1  C   UNL     1       6.353  -2.351   3.145  0.00  0.00    +0.178 C 
ATOM      2  C   UNL     1       7.698  -3.008   3.528  0.00  0.00    +0.183 C 
ATOM      3  C   UNL     1       8.255  -2.100   4.647  0.00  0.00    +0.200 C 
ATOM      4  C   UNL     1       7.181  -1.002   4.809  0.00  0.00    +0.256 C 
ATOM      5  O   UNL     1       6.490  -0.969   3.539  0.00  0.00    -0.346 OA
ENDROOT
BRANCH   4   6
ATOM      6  N   UNL     1       6.251  -1.353   5.885  0.00  0.00    -0.255 N 
ATOM      7  C   UNL     1       5.715  -2.591   5.945  0.00  0.00    +0.183 A 
ATOM      8  N   UNL     1       4.885  -2.900   6.909  0.00  0.00    -0.320 N 
ATOM      9  C   UNL     1       4.559  -1.994   7.841  0.00  0.00    +0.196 A 
ATOM     10  N   UNL     1       5.075  -0.773   7.800  0.00  0.00    -0.161 NA
ATOM     11  C   UNL     1       5.928  -0.442   6.827  0.00  0.00    +0.354 A 
ATOM     12  O   UNL     1       6.409   0.678   6.787  0.00  0.00    -0.244 OA
ATOM     13  N   UNL     1       3.687  -2.331   8.846  0.00  0.00    -0.329 N 
ATOM     14  H   UNL     1       3.308  -3.224   8.879  0.00  0.00    +0.145 HD
ATOM     15  H   UNL     1       3.449  -1.678   9.522  0.00  0.00    +0.145 HD
ATOM     16  H   UNL     1       4.502  -3.791   6.949  0.00  0.00    +0.169 HD
ENDBRANCH   4   6
BRANCH   1  17
ATOM     17  C   UNL     1       6.120  -2.455   1.637  0.00  0.00    +0.194 C 
BRANCH  17  18
ATOM     18  O   UNL     1       4.856  -1.872   1.309  0.00  0.00    -0.373 OA
BRANCH  18  19
ATOM     19  C   UNL     1       4.539  -1.917  -0.083  0.00  0.00    +0.195 C 
BRANCH  19  23
ATOM     20  C   UNL     1       0.724  -0.110  -0.736  0.00  0.00    +0.000 A 
ATOM     21  C   UNL     1       1.871   0.660  -0.784  0.00  0.00    +0.000 A 
ATOM     22  C   UNL     1       3.106   0.075  -0.573  0.00  0.00    +0.006 A 
ATOM     23  C   UNL     1       3.193  -1.280  -0.313  0.00  0.00    -0.022 A 
ATOM     24  C   UNL     1       2.046  -2.049  -0.264  0.00  0.00    +0.006 A 
ATOM     25  C   UNL     1       0.812  -1.465  -0.476  0.00  0.00    +0.000 A 
ENDBRANCH  19  23
ENDBRANCH  18  19
ENDBRANCH  17  18
ENDBRANCH   1  17
BRANCH   3  26
ATOM     26  O   UNL     1       8.407  -2.838   5.861  0.00  0.00    -0.365 OA
BRANCH  26  27
ATOM     27  C   UNL     1       9.467  -2.370   6.697  0.00  0.00    +0.195 C 
BRANCH  27  28
ATOM     28  C   UNL     1       9.536  -3.216   7.942  0.00  0.00    -0.022 A 
ATOM     29  C   UNL     1       8.803  -2.863   9.059  0.00  0.00    +0.006 A 
ATOM     30  C   UNL     1       8.866  -3.639  10.202  0.00  0.00    +0.000 A 
ATOM     31  C   UNL     1       9.662  -4.769  10.227  0.00  0.00    +0.000 A 
ATOM     32  C   UNL     1      10.394  -5.123   9.109  0.00  0.00    +0.000 A 
ATOM     33  C   UNL     1      10.328  -4.349   7.965  0.00  0.00    +0.006 A 
ENDBRANCH  27  28
ENDBRANCH  26  27
ENDBRANCH   3  26
BRANCH   2  34
ATOM     34  O   UNL     1       8.584  -3.026   2.406  0.00  0.00    -0.367 OA
BRANCH  34  35
ATOM     35  C   UNL     1       9.549  -4.079   2.444  0.00  0.00    +0.195 C 
BRANCH  35  36
ATOM     36  C   UNL     1      10.356  -4.066   1.171  0.00  0.00    -0.022 A 
ATOM     37  C   UNL     1       9.932  -4.799   0.078  0.00  0.00    +0.006 A 
ATOM     38  C   UNL     1      10.672  -4.788  -1.090  0.00  0.00    +0.000 A 
ATOM     39  C   UNL     1      11.835  -4.044  -1.164  0.00  0.00    +0.000 A 
ATOM     40  C   UNL     1      12.258  -3.311  -0.071  0.00  0.00    +0.000 A 
ATOM     41  C   UNL     1      11.516  -3.319   1.095  0.00  0.00    +0.006 A 
ENDBRANCH  35  36
ENDBRANCH  34  35
ENDBRANCH   2  34
TORSDOF 11
