REMARK  Name = ZINC17418173
REMARK  8 active torsions:
REMARK  status: ('A' for Active; 'I' for Inactive)
REMARK    1  A    between atoms: C_1  and  C_2
REMARK    2  A    between atoms: C_2  and  C_10
REMARK    3  A    between atoms: C_3  and  C_4
REMARK    4  A    between atoms: N_11  and  N_12
REMARK    5  A    between atoms: N_23  and  N_24
REMARK    6  A    between atoms: C_25  and  C_26
REMARK    7  A    between atoms: C_26  and  C_34
REMARK    8  A    between atoms: C_27  and  C_28
REMARK                            x       y       z     vdW  Elec       q    Type
REMARK                         _______ _______ _______ _____ _____    ______ ____
ROOT
ATOM      1  N   UNL     1      -3.525   3.808  -2.696  0.00  0.00    -0.219 N 
ATOM      2  C   UNL     1      -2.340   4.464  -2.402  0.00  0.00    +0.168 A 
ATOM      3  C   UNL     1      -1.106   3.979  -2.898  0.00  0.00    +0.029 A 
ATOM      4  C   UNL     1      -1.011   2.839  -3.702  0.00  0.00    +0.012 A 
ATOM      5  C   UNL     1       0.214   2.429  -4.140  0.00  0.00    +0.001 A 
ATOM      6  C   UNL     1       1.368   3.134  -3.808  0.00  0.00    +0.001 A 
ATOM      7  C   UNL     1       1.308   4.253  -3.030  0.00  0.00    +0.012 A 
ATOM      8  C   UNL     1       0.069   4.697  -2.561  0.00  0.00    +0.029 A 
ATOM      9  C   UNL     1      -0.075   5.849  -1.751  0.00  0.00    +0.168 A 
ATOM     10  N   UNL     1      -1.282   6.202  -1.349  0.00  0.00    -0.130 NA
ATOM     11  N   UNL     1      -2.344   5.552  -1.654  0.00  0.00    -0.130 NA
ATOM     12  N   UNL     1       1.035   6.596  -1.385  0.00  0.00    -0.219 N 
ATOM     13  H   UNL     1      -3.513   3.009  -3.246  0.00  0.00    +0.176 HD
ATOM     14  H   UNL     1       1.918   6.331  -1.685  0.00  0.00    +0.176 HD
ENDROOT
BRANCH   1  16
ATOM     15  C   UNL     1      -5.853   3.680  -2.476  0.00  0.00    +0.133 C 
ATOM     16  N   UNL     1      -4.739   4.298  -2.199  0.00  0.00    -0.189 NA
BRANCH  15  18
ATOM     17  C   UNL     1      -7.101   5.417  -1.118  0.00  0.00    +0.045 C 
ATOM     18  C   UNL     1      -7.082   4.176  -1.973  0.00  0.00    -0.030 C 
ATOM     19  C   UNL     1      -8.235   3.537  -2.260  0.00  0.00    +0.012 C 
BRANCH  19  20
ATOM     20  C   UNL     1      -9.524   4.135  -1.873  0.00  0.00    -0.025 A 
ATOM     21  C   UNL     1     -10.559   3.325  -1.394  0.00  0.00    +0.008 A 
ATOM     22  C   UNL     1     -11.760   3.894  -1.028  0.00  0.00    +0.001 A 
ATOM     23  C   UNL     1     -11.948   5.260  -1.146  0.00  0.00    +0.000 A 
ATOM     24  C   UNL     1     -10.931   6.067  -1.624  0.00  0.00    +0.001 A 
ATOM     25  C   UNL     1      -9.721   5.514  -1.989  0.00  0.00    +0.008 A 
ENDBRANCH  19  20
ENDBRANCH  15  18
ENDBRANCH   1  16
BRANCH  12  26
ATOM     26  N   UNL     1       0.880   7.734  -0.583  0.00  0.00    -0.189 NA
ATOM     27  C   UNL     1       1.923   8.436  -0.240  0.00  0.00    +0.133 C 
BRANCH  27  28
ATOM     28  C   UNL     1       1.767   9.588   0.571  0.00  0.00    -0.030 C 
ATOM     29  C   UNL     1       2.848  10.307   0.938  0.00  0.00    +0.012 C 
ATOM     30  C   UNL     1       0.393  10.008   1.025  0.00  0.00    +0.045 C 
BRANCH  29  31
ATOM     31  C   UNL     1       4.200   9.788   0.676  0.00  0.00    -0.025 A 
ATOM     32  C   UNL     1       4.451   8.414   0.744  0.00  0.00    +0.008 A 
ATOM     33  C   UNL     1       5.720   7.935   0.492  0.00  0.00    +0.001 A 
ATOM     34  C   UNL     1       6.745   8.812   0.184  0.00  0.00    +0.000 A 
ATOM     35  C   UNL     1       6.506  10.174   0.120  0.00  0.00    +0.001 A 
ATOM     36  C   UNL     1       5.242  10.667   0.364  0.00  0.00    +0.008 A 
ENDBRANCH  29  31
ENDBRANCH  27  28
ENDBRANCH  12  26
TORSDOF 6
