REMARK  Name = ZINC11881643
REMARK  8 active torsions:
REMARK  status: ('A' for Active; 'I' for Inactive)
REMARK    1  A    between atoms: C_1  and  O_2
REMARK    2  A    between atoms: O_2  and  C_3
REMARK    3  A    between atoms: C_8  and  C_9
REMARK    4  A    between atoms: C_20  and  C_21
REMARK    5  A    between atoms: C_20  and  N_64
REMARK    6  A    between atoms: N_23  and  C_24
REMARK    7  A    between atoms: C_24  and  C_25
REMARK    8  A    between atoms: C_25  and  C_26
REMARK                            x       y       z     vdW  Elec       q    Type
REMARK                         _______ _______ _______ _____ _____    ______ ____
ROOT
ATOM      1  C   UNL     1      -0.059   5.351   0.028  0.00  0.00    +0.191 C 
ATOM      2  C   UNL     1      -0.234   5.853  -1.389  0.00  0.00    -0.027 C 
ATOM      3  C   UNL     1       0.839   8.025  -1.137  0.00  0.00    -0.038 C 
ATOM      4  C   UNL     1       0.906   8.183   0.370  0.00  0.00    -0.022 A 
ATOM      5  C   UNL     1       0.802   9.435   0.941  0.00  0.00    +0.005 A 
ATOM      6  C   UNL     1       0.915   9.573   2.313  0.00  0.00    +0.000 A 
ATOM      7  C   UNL     1       1.131   8.462   3.107  0.00  0.00    +0.004 A 
ATOM      8  C   UNL     1       1.223   7.207   2.536  0.00  0.00    +0.046 A 
ATOM      9  C   UNL     1       1.101   7.067   1.161  0.00  0.00    +0.123 A 
ATOM     10  O   UNL     1       1.167   5.833   0.590  0.00  0.00    -0.486 OA
ATOM     11  N   UNL     1      -0.423   7.318  -1.463  0.00  0.00    +0.391 N 
ATOM     12  H   UNL     1      -1.140   7.593  -0.781  0.00  0.00    -0.080 HD
ENDROOT
BRANCH   1  18
ATOM     13  C   UNL     1      -1.236   3.137   0.029  0.00  0.00    +0.127 A 
ATOM     14  C   UNL     1      -1.218   1.750   0.017  0.00  0.00    +0.046 A 
ATOM     15  C   UNL     1      -0.013   1.076   0.008  0.00  0.00    +0.004 A 
ATOM     16  C   UNL     1       1.176   1.783   0.000  0.00  0.00    +0.001 A 
ATOM     17  C   UNL     1       1.161   3.165   0.007  0.00  0.00    +0.011 A 
ATOM     18  C   UNL     1      -0.043   3.844   0.021  0.00  0.00    +0.032 A 
BRANCH  13  20
ATOM     19  C   UNL     1      -3.610   3.009   0.051  0.00  0.00    +0.277 C 
ATOM     20  O   UNL     1      -2.421   3.802   0.043  0.00  0.00    -0.495 OA
ENDBRANCH  13  20
ENDBRANCH   1  18
BRANCH  11  21
ATOM     21  C   UNL     1      -0.878   7.696  -2.810  0.00  0.00    +0.019 C 
BRANCH  21  22
ATOM     22  C   UNL     1      -1.307   9.140  -2.781  0.00  0.00    +0.196 C 
ATOM     23  O   UNL     1      -1.216   9.778  -1.754  0.00  0.00    -0.278 OA
ATOM     24  N   UNL     1      -1.792   9.722  -3.896  0.00  0.00    -0.316 N 
ATOM     25  H   UNL     1      -1.864   9.211  -4.717  0.00  0.00    +0.149 HD
BRANCH  24  26
ATOM     26  C   UNL     1      -2.209  11.126  -3.867  0.00  0.00    +0.112 C 
BRANCH  26  27
ATOM     27  C   UNL     1      -2.716  11.535  -5.251  0.00  0.00    +0.093 C 
BRANCH  27  28
ATOM     28  C   UNL     1      -3.146  12.980  -5.221  0.00  0.00    +0.112 A 
ATOM     29  N   UNL     1      -3.624  13.533  -6.366  0.00  0.00    -0.310 N 
ATOM     30  H   UNL     1      -3.680  12.997  -7.172  0.00  0.00    +0.170 HD
ATOM     31  C   UNL     1      -4.028  14.825  -6.390  0.00  0.00    +0.259 A 
ATOM     32  O   UNL     1      -4.463  15.332  -7.407  0.00  0.00    -0.267 OA
ATOM     33  C   UNL     1      -3.915  15.593  -5.141  0.00  0.00    +0.065 A 
ATOM     34  C   UNL     1      -4.298  16.930  -5.061  0.00  0.00    +0.015 A 
ATOM     35  C   UNL     1      -4.170  17.602  -3.865  0.00  0.00    +0.001 A 
ATOM     36  C   UNL     1      -3.665  16.958  -2.744  0.00  0.00    +0.002 A 
ATOM     37  C   UNL     1      -3.281  15.637  -2.802  0.00  0.00    +0.028 A 
ATOM     38  C   UNL     1      -3.401  14.935  -4.002  0.00  0.00    +0.078 A 
ATOM     39  N   UNL     1      -3.034  13.632  -4.104  0.00  0.00    -0.234 NA
ENDBRANCH  27  28
ENDBRANCH  26  27
ENDBRANCH  24  26
ENDBRANCH  21  22
ENDBRANCH  11  21
TORSDOF 7
