REMARK  Name = ZINC11851755
REMARK  5 active torsions:
REMARK  status: ('A' for Active; 'I' for Inactive)
REMARK    1  A    between atoms: C_1  and  O_2
REMARK    2  A    between atoms: O_2  and  C_3
REMARK    3  A    between atoms: C_6  and  N_9
REMARK    4  A    between atoms: C_14  and  C_30
REMARK    5  A    between atoms: C_30  and  C_31
REMARK                            x       y       z     vdW  Elec       q    Type
REMARK                         _______ _______ _______ _____ _____    ______ ____
ROOT
ATOM      1  N   UNL     1      -4.415   5.114   2.835  0.00  0.00    -0.210 N 
ATOM      2  C   UNL     1      -4.830   5.821   1.735  0.00  0.00    +0.228 C 
ATOM      3  O   UNL     1      -5.426   6.876   1.716  0.00  0.00    -0.275 OA
ATOM      4  C   UNL     1      -4.411   4.996   0.603  0.00  0.00    +0.074 C 
ATOM      5  C   UNL     1      -4.027   5.371  -0.787  0.00  0.00    -0.053 C 
ATOM      6  C   UNL     1      -2.670   3.559   0.042  0.00  0.00    +0.050 C 
ATOM      7  C   UNL     1      -3.026   4.478   1.165  0.00  0.00    +0.088 C 
ATOM      8  C   UNL     1      -3.499   4.143   2.522  0.00  0.00    +0.229 C 
ATOM      9  O   UNL     1      -3.153   3.208   3.212  0.00  0.00    -0.275 OA
ATOM     10  C   UNL     1      -1.225   3.145   0.029  0.00  0.00    -0.028 A 
ATOM     11  C   UNL     1      -0.039   3.843   0.024  0.00  0.00    +0.004 A 
ATOM     12  C   UNL     1       1.165   3.162   0.009  0.00  0.00    +0.000 A 
ATOM     13  C   UNL     1       1.174   1.779   0.000  0.00  0.00    +0.002 A 
ATOM     14  C   UNL     1      -0.013   1.076   0.008  0.00  0.00    +0.023 A 
ATOM     15  C   UNL     1      -1.229   1.754   0.017  0.00  0.00    +0.036 A 
ATOM     16  N   UNL     1      -2.541   1.274   0.032  0.00  0.00    -0.286 N 
ATOM     17  C   UNL     1      -3.446   2.271   0.043  0.00  0.00    +0.211 C 
ATOM     18  O   UNL     1      -4.653   2.154   0.052  0.00  0.00    -0.277 OA
ATOM     19  H   UNL     1      -2.773   0.332   0.030  0.00  0.00    +0.155 HD
ATOM     20  N   UNL     1      -2.998   4.359  -1.165  0.00  0.00    +0.394 N 
ATOM     21  H   UNL     1      -2.154   4.834  -1.507  0.00  0.00    -0.083 HD
ATOM     22  H   UNL     1      -3.367   3.745  -1.900  0.00  0.00    -0.083 HD
ENDROOT
BRANCH   1  26
ATOM     23  C   UNL     1      -5.789   5.838   6.707  0.00  0.00    +0.120 A 
ATOM     24  C   UNL     1      -6.261   6.602   5.650  0.00  0.00    +0.047 A 
ATOM     25  C   UNL     1      -5.806   6.363   4.368  0.00  0.00    +0.027 A 
ATOM     26  C   UNL     1      -4.877   5.358   4.138  0.00  0.00    +0.044 A 
ATOM     27  C   UNL     1      -4.408   4.591   5.196  0.00  0.00    +0.027 A 
ATOM     28  C   UNL     1      -4.860   4.834   6.478  0.00  0.00    +0.047 A 
BRANCH  23  30
ATOM     29  C   UNL     1      -5.708   5.250   9.010  0.00  0.00    +0.277 C 
ATOM     30  O   UNL     1      -6.237   6.074   7.969  0.00  0.00    -0.495 OA
ENDBRANCH  23  30
ENDBRANCH   1  26
BRANCH   5  31
ATOM     31  C   UNL     1      -5.239   5.283  -1.718  0.00  0.00    +0.022 C 
BRANCH  31  32
ATOM     32  C   UNL     1      -4.857   5.783  -3.087  0.00  0.00    -0.024 A 
ATOM     33  C   UNL     1      -5.031   7.027  -3.560  0.00  0.00    +0.087 A 
ATOM     34  N   UNL     1      -4.563   7.108  -4.843  0.00  0.00    -0.360 N 
ATOM     35  H   UNL     1      -4.580   7.907  -5.393  0.00  0.00    +0.165 HD
ATOM     36  C   UNL     1      -4.063   5.888  -5.237  0.00  0.00    +0.047 A 
ATOM     37  C   UNL     1      -4.220   5.005  -4.152  0.00  0.00    +0.003 A 
ATOM     38  C   UNL     1      -3.791   3.681  -4.264  0.00  0.00    +0.010 A 
ATOM     39  C   UNL     1      -3.217   3.249  -5.426  0.00  0.00    +0.001 A 
ATOM     40  C   UNL     1      -3.057   4.117  -6.498  0.00  0.00    +0.002 A 
ATOM     41  C   UNL     1      -3.480   5.426  -6.412  0.00  0.00    +0.026 A 
ENDBRANCH  31  32
ENDBRANCH   5  31
TORSDOF 4
