REMARK  Name = ZINC53136406
REMARK  4 active torsions:
REMARK  status: ('A' for Active; 'I' for Inactive)
REMARK    1  A    between atoms: C_8  and  C_11
REMARK    2  A    between atoms: C_11  and  N_12
REMARK    3  A    between atoms: C_13  and  C_15
REMARK    4  A    between atoms: C_15  and  N_16
REMARK                            x       y       z     vdW  Elec       q    Type
REMARK                         _______ _______ _______ _____ _____    ______ ____
ROOT
ATOM      1  C   UNL     1       7.484  -4.203   0.089  0.00  0.00    +0.213 C 
ENDROOT
BRANCH   1   2
ATOM      2  N   UNL     1       8.212  -5.254  -0.615  0.00  0.00    -0.215 N 
ATOM      3  C   UNL     1       8.286  -6.548  -0.230  0.00  0.00    +0.247 C 
ATOM      4  O   UNL     1       7.552  -7.151   0.513  0.00  0.00    -0.273 OA
ATOM      5  C   UNL     1       9.539  -7.069  -0.914  0.00  0.00    +0.113 C 
ATOM      6  C   UNL     1      10.748  -6.686  -0.064  0.00  0.00    +0.035 C 
ATOM      7  C   UNL     1      11.987  -7.494  -0.449  0.00  0.00    +0.003 C 
ATOM      8  C   UNL     1      12.725  -6.905  -1.665  0.00  0.00    +0.000 C 
ATOM      9  C   UNL     1      11.938  -7.274  -2.936  0.00  0.00    +0.000 C 
ATOM     10  C   UNL     1      11.471  -8.728  -2.849  0.00  0.00    +0.000 C 
ATOM     11  C   UNL     1       9.960  -8.817  -2.668  0.00  0.00    +0.003 C 
ATOM     12  C   UNL     1       9.500  -8.544  -1.237  0.00  0.00    +0.035 C 
ATOM     13  N   UNL     1       9.464  -6.252  -2.144  0.00  0.00    -0.285 N 
ATOM     14  C   UNL     1       8.879  -5.091  -1.764  0.00  0.00    +0.310 C 
ATOM     15  O   UNL     1       8.951  -4.054  -2.382  0.00  0.00    -0.252 OA
ATOM     16  H   UNL     1       9.656  -6.487  -3.051  0.00  0.00    +0.151 HD
ENDBRANCH   1   2
BRANCH   1  18
ATOM     17  N   UNL     1       5.193  -3.271   0.115  0.00  0.00    -0.310 N 
ATOM     18  C   UNL     1       6.058  -4.168  -0.397  0.00  0.00    +0.231 C 
ATOM     19  O   UNL     1       5.689  -4.947  -1.250  0.00  0.00    -0.274 OA
ATOM     20  H   UNL     1       5.488  -2.647   0.798  0.00  0.00    +0.149 HD
BRANCH  17  21
ATOM     21  C   UNL     1       3.807  -3.236  -0.358  0.00  0.00    +0.149 C 
BRANCH  21  29
ATOM     22  C   UNL     1      -0.017   1.379   0.010  0.00  0.00    +0.000 A 
ATOM     23  C   UNL     1       1.174   2.082   0.002  0.00  0.00    +0.004 A 
ATOM     24  C   UNL     1       2.379   1.411  -0.017  0.00  0.00    +0.046 A 
ATOM     25  C   UNL     1       2.407   0.019  -0.028  0.00  0.00    +0.124 A 
ATOM     26  C   UNL     1       1.204  -0.676  -0.013  0.00  0.00    -0.002 A 
ATOM     27  C   UNL     1       0.002  -0.004   0.002  0.00  0.00    +0.007 A 
ATOM     28  C   UNL     1       1.545  -2.154  -0.005  0.00  0.00    +0.085 C 
ATOM     29  C   UNL     1       3.043  -2.135   0.380  0.00  0.00    +0.195 C 
ATOM     30  O   UNL     1       3.468  -0.833  -0.059  0.00  0.00    -0.487 OA
ENDBRANCH  21  29
ENDBRANCH  17  21
ENDBRANCH   1  18
TORSDOF 4
