REMARK  Name = ZINC28470227
REMARK  5 active torsions:
REMARK  status: ('A' for Active; 'I' for Inactive)
REMARK    1  A    between atoms: C_1  and  C_2
REMARK    2  A    between atoms: C_3  and  C_15
REMARK    3  A    between atoms: C_4  and  C_10
REMARK    4  A    between atoms: N_17  and  C_18
REMARK    5  A    between atoms: C_21  and  N_24
REMARK                            x       y       z     vdW  Elec       q    Type
REMARK                         _______ _______ _______ _____ _____    ______ ____
ROOT
ATOM      1  C   UNL     1      -1.610   1.135   2.010  0.00  0.00    +0.061 C 
ATOM      2  C   UNL     1      -0.596   1.955   1.255  0.00  0.00    +0.017 C 
ATOM      3  C   UNL     1      -1.018   2.902   0.391  0.00  0.00    +0.056 C 
ATOM      4  C   UNL     1       0.035   3.700  -0.351  0.00  0.00    +0.146 C 
ATOM      5  N   UNL     1       1.442   3.378  -0.062  0.00  0.00    -0.315 N 
ATOM      6  C   UNL     1       1.707   2.406   0.833  0.00  0.00    +0.135 C 
ATOM      7  S   UNL     1       3.339   2.022   1.180  0.00  0.00    -0.019 S 
ATOM      8  N   UNL     1       0.736   1.732   1.461  0.00  0.00    -0.300 N 
ATOM      9  H   UNL     1       2.248   3.926  -0.573  0.00  0.00    +0.149 HD
ATOM     10  H   UNL     1       1.060   0.962   2.176  0.00  0.00    +0.154 HD
ENDROOT
BRANCH   4  11
ATOM     11  C   UNL     1      -0.192   3.507  -1.829  0.00  0.00    +0.015 A 
ATOM     12  C   UNL     1      -0.683   4.383  -2.739  0.00  0.00    +0.013 A 
ATOM     13  C   UNL     1      -0.804   3.984  -4.056  0.00  0.00    +0.008 A 
ATOM     14  C   UNL     1      -0.427   2.728  -4.400  0.00  0.00    +0.045 A 
ATOM     15  S   UNL     1       0.125   2.067  -2.836  0.00  0.00    -0.099 S 
ENDBRANCH   4  11
BRANCH   3  16
ATOM     16  C   UNL     1      -2.399   3.138   0.181  0.00  0.00    +0.248 C 
ATOM     17  O   UNL     1      -3.226   2.400   0.684  0.00  0.00    -0.270 OA
ATOM     18  N   UNL     1      -2.797   4.180  -0.576  0.00  0.00    -0.282 N 
ATOM     19  H   UNL     1      -2.050   4.806  -1.087  0.00  0.00    +0.155 HD
BRANCH  18  20
ATOM     20  C   UNL     1      -4.159   4.465  -0.712  0.00  0.00    +0.034 A 
ATOM     21  C   UNL     1      -5.079   3.431  -0.823  0.00  0.00    +0.025 A 
ATOM     22  C   UNL     1      -6.424   3.716  -0.952  0.00  0.00    +0.034 A 
ATOM     23  C   UNL     1      -6.854   5.030  -0.981  0.00  0.00    +0.126 A 
ATOM     24  C   UNL     1      -5.940   6.063  -0.876  0.00  0.00    +0.034 A 
ATOM     25  C   UNL     1      -4.594   5.784  -0.741  0.00  0.00    +0.025 A 
BRANCH  23  26
ATOM     26  N   UNL     1      -8.296   5.333  -1.125  0.00  0.00    +0.056 N 
ATOM     27  O   UNL     1      -8.676   6.490  -1.151  0.00  0.00    -0.126 OA
ATOM     28  O   UNL     1      -9.102   4.425  -1.218  0.00  0.00    -0.126 OA
ENDBRANCH  23  26
ENDBRANCH  18  20
ENDBRANCH   3  16
TORSDOF 4
