REMARK  Name = ZINC59498134
REMARK  11 active torsions:
REMARK  status: ('A' for Active; 'I' for Inactive)
REMARK    1  A    between atoms: C_1  and  C_2
REMARK    2  A    between atoms: C_2  and  C_3
REMARK    3  A    between atoms: C_3  and  C_4
REMARK    4  A    between atoms: C_4  and  C_5
REMARK    5  A    between atoms: C_5  and  C_24
REMARK    6  A    between atoms: N_8  and  C_18
REMARK    7  A    between atoms: N_9  and  C_12
REMARK    8  A    between atoms: C_24  and  C_25
REMARK    9  A    between atoms: N_27  and  C_28
REMARK   10  A    between atoms: C_28  and  C_29
REMARK   11  A    between atoms: C_28  and  C_35
REMARK                            x       y       z     vdW  Elec       q    Type
REMARK                         _______ _______ _______ _____ _____    ______ ____
ROOT
ATOM      1  C   UNL     1       1.590  -2.818  -2.823  0.00  0.00    +0.135 C 
ATOM      2  C   UNL     1       0.911  -2.046  -3.935  0.00  0.00    +0.252 C 
ATOM      3  O   UNL     1      -0.125  -2.337  -4.495  0.00  0.00    -0.273 OA
ATOM      4  N   UNL     1       1.685  -0.972  -4.177  0.00  0.00    -0.180 N 
ATOM      5  N   UNL     1       2.803  -0.946  -3.348  0.00  0.00    -0.180 N 
ATOM      6  C   UNL     1       2.828  -2.003  -2.514  0.00  0.00    +0.252 C 
ATOM      7  O   UNL     1       3.673  -2.251  -1.680  0.00  0.00    -0.273 OA
ENDROOT
BRANCH   5   8
ATOM      8  C   UNL     1       3.782   0.054  -3.379  0.00  0.00    +0.057 A 
ATOM      9  C   UNL     1       3.410   1.391  -3.349  0.00  0.00    +0.025 A 
ATOM     10  C   UNL     1       4.379   2.376  -3.379  0.00  0.00    +0.002 A 
ATOM     11  C   UNL     1       5.716   2.031  -3.440  0.00  0.00    +0.000 A 
ATOM     12  C   UNL     1       6.089   0.700  -3.471  0.00  0.00    +0.002 A 
ATOM     13  C   UNL     1       5.126  -0.290  -3.434  0.00  0.00    +0.025 A 
ENDBRANCH   5   8
BRANCH   4  14
ATOM     14  C   UNL     1       1.401  -0.000  -5.144  0.00  0.00    +0.057 A 
ATOM     15  C   UNL     1       2.381   0.389  -6.048  0.00  0.00    +0.025 A 
ATOM     16  C   UNL     1       2.098   1.348  -7.000  0.00  0.00    +0.002 A 
ATOM     17  C   UNL     1       0.841   1.921  -7.054  0.00  0.00    +0.000 A 
ATOM     18  C   UNL     1      -0.137   1.536  -6.155  0.00  0.00    +0.002 A 
ATOM     19  C   UNL     1       0.138   0.573  -5.204  0.00  0.00    +0.025 A 
ENDBRANCH   4  14
BRANCH   1  20
ATOM     20  C   UNL     1       0.681  -2.901  -1.595  0.00  0.00    +0.026 C 
BRANCH  20  21
ATOM     21  C   UNL     1       0.270  -1.491  -1.169  0.00  0.00    +0.001 C 
BRANCH  21  23
ATOM     22  C   UNL     1      -1.050  -0.163   0.486  0.00  0.00    +0.004 C 
ATOM     23  C   UNL     1      -0.639  -1.573   0.059  0.00  0.00    -0.003 C 
ENDBRANCH  21  23
ENDBRANCH  20  21
ENDBRANCH   1  20
BRANCH   1  24
ATOM     24  C   UNL     1       1.976  -4.221  -3.298  0.00  0.00    +0.121 C 
BRANCH  24  25
ATOM     25  C   UNL     1       2.870  -4.113  -4.507  0.00  0.00    +0.215 C 
ATOM     26  O   UNL     1       3.168  -3.022  -4.945  0.00  0.00    -0.276 OA
ATOM     27  N   UNL     1       3.337  -5.229  -5.101  0.00  0.00    -0.304 N 
ATOM     28  H   UNL     1       3.099  -6.101  -4.751  0.00  0.00    +0.150 HD
BRANCH  27  29
ATOM     29  C   UNL     1       4.206  -5.124  -6.276  0.00  0.00    +0.134 C 
BRANCH  29  30
ATOM     30  C   UNL     1       5.633  -4.937  -5.830  0.00  0.00    -0.023 A 
ATOM     31  C   UNL     1       6.119  -5.648  -4.749  0.00  0.00    +0.006 A 
ATOM     32  C   UNL     1       7.428  -5.476  -4.340  0.00  0.00    +0.000 A 
ATOM     33  C   UNL     1       8.252  -4.594  -5.013  0.00  0.00    +0.000 A 
ATOM     34  C   UNL     1       7.767  -3.884  -6.095  0.00  0.00    +0.000 A 
ATOM     35  C   UNL     1       6.459  -4.059  -6.507  0.00  0.00    +0.006 A 
ENDBRANCH  29  30
BRANCH  29  36
ATOM     36  C   UNL     1       4.097  -6.384  -7.096  0.00  0.00    -0.023 A 
ATOM     37  C   UNL     1       4.020  -7.612  -6.467  0.00  0.00    +0.006 A 
ATOM     38  C   UNL     1       3.919  -8.768  -7.219  0.00  0.00    +0.000 A 
ATOM     39  C   UNL     1       3.896  -8.695  -8.599  0.00  0.00    +0.000 A 
ATOM     40  C   UNL     1       3.972  -7.466  -9.227  0.00  0.00    +0.000 A 
ATOM     41  C   UNL     1       4.068  -6.310  -8.476  0.00  0.00    +0.006 A 
ENDBRANCH  29  36
ENDBRANCH  27  29
ENDBRANCH  24  25
ENDBRANCH   1  24
TORSDOF 10
