REMARK  Name = ZINC39556149
REMARK  10 active torsions:
REMARK  status: ('A' for Active; 'I' for Inactive)
REMARK    1  A    between atoms: C_1  and  C_2
REMARK    2  A    between atoms: C_4  and  N_8
REMARK    3  A    between atoms: C_9  and  C_11
REMARK    4  A    between atoms: C_11  and  S_12
REMARK    5  A    between atoms: S_12  and  C_13
REMARK    6  A    between atoms: C_23  and  C_28
REMARK    7  A    between atoms: C_28  and  C_29
REMARK    8  A    between atoms: C_29  and  C_30
REMARK    9  A    between atoms: N_32  and  C_33
REMARK   10  A    between atoms: C_33  and  C_34
REMARK                            x       y       z     vdW  Elec       q    Type
REMARK                         _______ _______ _______ _____ _____    ______ ____
ROOT
ATOM      1  C   UNL     1      -2.847  -7.332   3.398  0.00  0.00    +0.169 C 
ATOM      2  N   UNL     1      -2.722  -6.626   4.490  0.00  0.00    -0.225 NA
ATOM      3  C   UNL     1      -3.052  -7.119   5.710  0.00  0.00    +0.077 A 
ATOM      4  C   UNL     1      -2.912  -6.347   6.867  0.00  0.00    +0.028 A 
ATOM      5  C   UNL     1      -3.257  -6.881   8.089  0.00  0.00    +0.002 A 
ATOM      6  C   UNL     1      -3.743  -8.177   8.187  0.00  0.00    +0.001 A 
ATOM      7  C   UNL     1      -3.890  -8.956   7.059  0.00  0.00    +0.013 A 
ATOM      8  C   UNL     1      -3.547  -8.435   5.816  0.00  0.00    +0.041 A 
ATOM      9  C   UNL     1      -3.687  -9.233   4.578  0.00  0.00    +0.139 C 
ATOM     10  N   UNL     1      -4.112 -10.453   4.404  0.00  0.00    -0.255 NA
ATOM     11  C   UNL     1      -4.045 -10.751   2.966  0.00  0.00    +0.194 C 
ATOM     12  C   UNL     1      -3.504  -9.478   2.353  0.00  0.00    +0.251 C 
ATOM     13  O   UNL     1      -3.282  -9.265   1.180  0.00  0.00    -0.272 OA
ATOM     14  N   UNL     1      -3.325  -8.625   3.388  0.00  0.00    -0.200 N 
ENDROOT
BRANCH   1  15
ATOM     15  S   UNL     1      -2.389  -6.593   1.865  0.00  0.00    -0.080 S 
BRANCH  15  16
ATOM     16  C   UNL     1      -1.828  -4.931   2.329  0.00  0.00    +0.172 C 
BRANCH  16  18
ATOM     17  N   UNL     1      -0.946  -2.918   1.194  0.00  0.00    -0.288 N 
ATOM     18  C   UNL     1      -1.402  -4.182   1.093  0.00  0.00    +0.225 C 
ATOM     19  O   UNL     1      -1.470  -4.717   0.006  0.00  0.00    -0.275 OA
ATOM     20  H   UNL     1      -0.891  -2.491   2.063  0.00  0.00    +0.151 HD
BRANCH  17  24
ATOM     21  C   UNL     1      -0.018   1.503   0.010  0.00  0.00    +0.067 C 
ATOM     22  C   UNL     1       0.002  -0.004   0.002  0.00  0.00    +0.060 C 
ATOM     23  C   UNL     1      -1.086  -0.777   0.003  0.00  0.00    +0.045 C 
ATOM     24  C   UNL     1      -0.531  -2.190  -0.007  0.00  0.00    +0.239 C 
ATOM     25  N   UNL     1       0.926  -1.973  -0.013  0.00  0.00    -0.160 NA
ATOM     26  N   UNL     1       1.125  -0.756  -0.013  0.00  0.00    -0.157 NA
ENDBRANCH  17  24
ENDBRANCH  16  18
ENDBRANCH  15  16
ENDBRANCH   1  15
BRANCH  11  27
ATOM     27  C   UNL     1      -5.439 -11.063   2.418  0.00  0.00    +0.045 C 
BRANCH  27  28
ATOM     28  C   UNL     1      -5.949 -12.368   3.034  0.00  0.00    +0.098 C 
BRANCH  28  29
ATOM     29  C   UNL     1      -7.322 -12.675   2.494  0.00  0.00    +0.213 C 
ATOM     30  O   UNL     1      -7.841 -11.925   1.695  0.00  0.00    -0.276 OA
ATOM     31  N   UNL     1      -7.973 -13.784   2.899  0.00  0.00    -0.311 N 
ATOM     32  H   UNL     1      -7.557 -14.384   3.538  0.00  0.00    +0.149 HD
BRANCH  31  33
ATOM     33  C   UNL     1      -9.307 -14.083   2.373  0.00  0.00    +0.146 C 
BRANCH  33  34
ATOM     34  C   UNL     1      -9.809 -15.368   2.980  0.00  0.00    +0.007 A 
ATOM     35  C   UNL     1     -10.532 -15.552   4.112  0.00  0.00    +0.013 A 
ATOM     36  C   UNL     1     -10.886 -16.837   4.480  0.00  0.00    +0.008 A 
ATOM     37  C   UNL     1     -10.501 -17.874   3.698  0.00  0.00    +0.045 A 
ATOM     38  S   UNL     1      -9.614 -17.042   2.391  0.00  0.00    -0.100 S 
ENDBRANCH  33  34
ENDBRANCH  31  33
ENDBRANCH  28  29
ENDBRANCH  27  28
ENDBRANCH  11  27
TORSDOF 9
