REMARK  Name = ZINC39886174
REMARK  7 active torsions:
REMARK  status: ('A' for Active; 'I' for Inactive)
REMARK    1  A    between atoms: C_1  and  C_2
REMARK    2  A    between atoms: C_2  and  O_3
REMARK    3  A    between atoms: O_3  and  C_4
REMARK    4  A    between atoms: C_6  and  C_11
REMARK    5  A    between atoms: C_9  and  O_10
REMARK    6  A    between atoms: N_14  and  C_15
REMARK    7  A    between atoms: C_18  and  N_21
REMARK                            x       y       z     vdW  Elec       q    Type
REMARK                         _______ _______ _______ _____ _____    ______ ____
ROOT
ATOM      1  C   UNL     1       0.546  -4.907  -0.019  0.00  0.00    +0.026 C 
ATOM      2  C   UNL     1       0.368  -6.354   0.086  0.00  0.00    +0.058 C 
ATOM      3  C   UNL     1       1.362  -7.359   0.196  0.00  0.00    +0.140 C 
ATOM      4  N   UNL     1       2.650  -7.051   0.217  0.00  0.00    -0.231 NA
ATOM      5  N   UNL     1       0.943  -8.647   0.280  0.00  0.00    -0.260 N 
ATOM      6  C   UNL     1      -0.389  -8.874   0.252  0.00  0.00    +0.282 C 
ATOM      7  O   UNL     1      -0.979  -9.935   0.313  0.00  0.00    -0.262 OA
ATOM      8  S   UNL     1      -1.066  -7.232   0.111  0.00  0.00    -0.028 S 
ATOM      9  H   UNL     1       1.577  -9.378   0.357  0.00  0.00    +0.157 HD
ENDROOT
BRANCH   1  12
ATOM     10  C   UNL     1      -1.557  -1.900  -0.290  0.00  0.00    +0.162 A 
ATOM     11  C   UNL     1      -0.476  -2.688  -0.038  0.00  0.00    +0.057 A 
ATOM     12  C   UNL     1      -0.554  -4.084  -0.271  0.00  0.00    -0.020 A 
ATOM     13  C   UNL     1      -1.804  -4.653  -0.781  0.00  0.00    +0.012 A 
ATOM     14  C   UNL     1      -2.861  -3.831  -1.020  0.00  0.00    +0.050 A 
ATOM     15  C   UNL     1      -2.755  -2.457  -0.774  0.00  0.00    +0.158 A 
BRANCH  15  16
ATOM     16  O   UNL     1      -3.815  -1.654  -1.010  0.00  0.00    -0.503 OA
ATOM     17  H   UNL     1      -3.846  -1.297  -1.908  0.00  0.00    +0.292 HD
ENDBRANCH  15  16
BRANCH  10  18
ATOM     18  O   UNL     1      -1.481  -0.562  -0.066  0.00  0.00    -0.489 OA
BRANCH  18  20
ATOM     19  C   UNL     1      -0.343   1.458   0.616  0.00  0.00    +0.048 C 
ATOM     20  C   UNL     1      -0.238  -0.057   0.426  0.00  0.00    +0.226 C 
ENDBRANCH  18  20
ENDBRANCH  10  18
ENDBRANCH   1  12
BRANCH   4  21
ATOM     21  C   UNL     1       3.569  -8.022   0.322  0.00  0.00    +0.066 A 
ATOM     22  C   UNL     1       3.397  -9.066   1.256  0.00  0.00    +0.030 A 
ATOM     23  C   UNL     1       4.340 -10.049   1.353  0.00  0.00    +0.035 A 
ATOM     24  C   UNL     1       5.464 -10.024   0.539  0.00  0.00    +0.126 A 
ATOM     25  C   UNL     1       5.644  -9.002  -0.384  0.00  0.00    +0.035 A 
ATOM     26  C   UNL     1       4.713  -8.011  -0.505  0.00  0.00    +0.030 A 
BRANCH  24  27
ATOM     27  N   UNL     1       6.479 -11.095   0.655  0.00  0.00    +0.056 N 
ATOM     28  O   UNL     1       6.313 -12.067   1.528  0.00  0.00    -0.126 OA
ATOM     29  O   UNL     1       7.547 -11.077  -0.115  0.00  0.00    -0.126 OA
ENDBRANCH  24  27
ENDBRANCH   4  21
TORSDOF 6
