REMARK  Name = ZINC53128450
REMARK  5 active torsions:
REMARK  status: ('A' for Active; 'I' for Inactive)
REMARK    1  A    between atoms: C_1  and  C_2
REMARK    2  A    between atoms: C_7  and  C_9
REMARK    3  A    between atoms: C_7  and  N_11
REMARK    4  A    between atoms: C_9  and  O_10
REMARK    5  A    between atoms: C_13  and  N_19
REMARK                            x       y       z     vdW  Elec       q    Type
REMARK                         _______ _______ _______ _____ _____    ______ ____
ROOT
ATOM      1  N   UNL     1       1.292  -2.572   0.176  0.00  0.00    -0.319 N 
ATOM      2  C   UNL     1       2.673  -2.441   0.087  0.00  0.00    +0.151 A 
ATOM      3  C   UNL     1       3.341  -2.931  -1.030  0.00  0.00    +0.166 A 
ATOM      4  C   UNL     1       4.716  -2.793  -1.107  0.00  0.00    +0.039 A 
ATOM      5  C   UNL     1       5.379  -2.169  -0.059  0.00  0.00    +0.042 A 
ATOM      6  C   UNL     1       4.652  -1.706   1.021  0.00  0.00    +0.131 A 
ATOM      7  N   UNL     1       3.340  -1.846   1.064  0.00  0.00    -0.218 NA
ATOM      8 CL   UNL     1       5.474  -0.924   2.335  0.00  0.00    -0.062 Cl
ATOM      9  H   UNL     1       0.806  -3.055  -0.510  0.00  0.00    +0.148 HD
ENDROOT
BRANCH   1  15
ATOM     10  C   UNL     1       0.590   1.666   0.075  0.00  0.00    +0.007 C 
ATOM     11  C   UNL     1       0.335   0.158   0.039  0.00  0.00    -0.012 C 
ATOM     12  C   UNL     1      -1.165  -0.103  -0.120  0.00  0.00    +0.003 C 
ATOM     13  C   UNL     1      -1.419  -1.611  -0.156  0.00  0.00    +0.002 C 
ATOM     14  C   UNL     1      -0.928  -2.242   1.148  0.00  0.00    +0.028 C 
ATOM     15  C   UNL     1       0.572  -1.982   1.307  0.00  0.00    +0.057 C 
ATOM     16  C   UNL     1       0.827  -0.474   1.343  0.00  0.00    +0.031 C 
BRANCH  15  17
ATOM     17  C   UNL     1       1.063  -2.614   2.611  0.00  0.00    +0.181 C 
BRANCH  17  18
ATOM     18  O   UNL     1       0.888  -4.031   2.549  0.00  0.00    -0.393 OA
ATOM     19  H   UNL     1       1.179  -4.498   3.344  0.00  0.00    +0.209 HD
ENDBRANCH  17  18
ENDBRANCH  15  17
ENDBRANCH   1  15
BRANCH   3  20
ATOM     20  N   UNL     1       2.592  -3.590  -2.123  0.00  0.00    +0.060 N 
ATOM     21  O   UNL     1       3.164  -3.917  -3.137  0.00  0.00    -0.126 OA
ATOM     22  O   UNL     1       1.408  -3.801  -2.002  0.00  0.00    -0.126 OA
ENDBRANCH   3  20
TORSDOF 4
