REMARK  Name = ZINC08299809
REMARK  6 active torsions:
REMARK  status: ('A' for Active; 'I' for Inactive)
REMARK    1  A    between atoms: C_2  and  C_26
REMARK    2  A    between atoms: N_5  and  C_6
REMARK    3  A    between atoms: C_6  and  C_7
REMARK    4  A    between atoms: C_15  and  C_17
REMARK    5  A    between atoms: N_19  and  C_20
REMARK    6  A    between atoms: C_26  and  O_31
REMARK                            x       y       z     vdW  Elec       q    Type
REMARK                         _______ _______ _______ _____ _____    ______ ____
ROOT
ATOM      1  C   UNL     1      -0.013   1.086   0.008  0.00  0.00    -0.046 C 
ATOM      2  C   UNL     1      -0.751   1.594  -1.234  0.00  0.00    -0.010 C 
ATOM      3  C   UNL     1       0.208   2.460  -2.060  0.00  0.00    -0.004 C 
ATOM      4  C   UNL     1       0.687   3.627  -1.188  0.00  0.00    -0.015 C 
ATOM      5  C   UNL     1       1.386   3.063   0.052  0.00  0.00    -0.078 C 
ATOM      6  C   UNL     1       2.101   1.101  -1.175  0.00  0.00    -0.065 C 
ATOM      7  C   UNL     1       1.425   1.620  -2.467  0.00  0.00    +0.061 C 
ATOM      8  N   UNL     1       1.379   1.585   0.021  0.00  0.00    +0.383 N 
ATOM      9  H   UNL     1       1.852   1.232   0.862  0.00  0.00    -0.081 HD
ENDROOT
BRANCH   7  10
ATOM     10  C   UNL     1       2.382   2.471  -3.262  0.00  0.00    +0.215 C 
ATOM     11  O   UNL     1       2.119   3.634  -3.484  0.00  0.00    -0.276 OA
ATOM     12  N   UNL     1       3.530   1.939  -3.727  0.00  0.00    -0.312 N 
ATOM     13  H   UNL     1       3.740   1.008  -3.550  0.00  0.00    +0.149 HD
BRANCH  12  14
ATOM     14  C   UNL     1       4.460   2.765  -4.501  0.00  0.00    +0.073 C 
ATOM     15  C   UNL     1       4.037   2.769  -5.971  0.00  0.00    +0.022 C 
ATOM     16  C   UNL     1       5.008   3.632  -6.779  0.00  0.00    +0.002 C 
ATOM     17  C   UNL     1       6.422   3.060  -6.656  0.00  0.00    +0.000 C 
ATOM     18  C   UNL     1       6.845   3.057  -5.186  0.00  0.00    +0.002 C 
ATOM     19  C   UNL     1       5.873   2.194  -4.378  0.00  0.00    +0.022 C 
ENDBRANCH  12  14
ENDBRANCH   7  10
BRANCH   1  20
ATOM     20  C   UNL     1      -0.730   1.580   1.266  0.00  0.00    +0.130 C 
BRANCH  20  25
ATOM     21  C   UNL     1       0.406   1.688   3.502  0.00  0.00    +0.136 A 
ATOM     22  C   UNL     1       0.892   0.763   4.363  0.00  0.00    +0.114 A 
ATOM     23  N   UNL     1       0.676  -0.431   3.800  0.00  0.00    -0.132 NA
ATOM     24  N   UNL     1       0.091  -0.258   2.668  0.00  0.00    -0.065 NA
ATOM     25  N   UNL     1      -0.094   0.998   2.451  0.00  0.00    -0.253 N 
BRANCH  22  26
ATOM     26  C   UNL     1       1.552   1.028   5.691  0.00  0.00    +0.111 C 
ATOM     27  C   UNL     1       2.838   1.855   5.487  0.00  0.00    +0.041 C 
ATOM     28  C   UNL     1       3.828   1.282   6.533  0.00  0.00    +0.003 C 
ATOM     29  C   UNL     1       3.513  -0.234   6.508  0.00  0.00    +0.003 C 
ATOM     30  C   UNL     1       1.981  -0.300   6.341  0.00  0.00    +0.041 C 
BRANCH  26  31
ATOM     31  O   UNL     1       0.653   1.727   6.554  0.00  0.00    -0.382 OA
ATOM     32  H   UNL     1       0.354   2.578   6.205  0.00  0.00    +0.211 HD
ENDBRANCH  26  31
ENDBRANCH  22  26
ENDBRANCH  20  25
ENDBRANCH   1  20
TORSDOF 6
