REMARK  Name = ZINC34890397
REMARK  6 active torsions:
REMARK  status: ('A' for Active; 'I' for Inactive)
REMARK    1  A    between atoms: C_1  and  C_2
REMARK    2  A    between atoms: C_9  and  N_13
REMARK    3  A    between atoms: C_10  and  C_11
REMARK    4  A    between atoms: C_14  and  C_16
REMARK    5  A    between atoms: C_16  and  N_17
REMARK    6  A    between atoms: C_21  and  C_24
REMARK                            x       y       z     vdW  Elec       q    Type
REMARK                         _______ _______ _______ _____ _____    ______ ____
ROOT
ATOM      1  C   UNL     1       1.900  -7.501   3.824  0.00  0.00    +0.019 C 
ENDROOT
BRANCH   1   2
ATOM      2  N   UNL     1       3.019  -7.508   4.775  0.00  0.00    +0.386 N 
ATOM      3  C   UNL     1       4.256  -7.139   4.075  0.00  0.00    -0.078 C 
ATOM      4  C   UNL     1       5.411  -7.066   5.077  0.00  0.00    -0.018 C 
ATOM      5  C   UNL     1       5.588  -8.433   5.743  0.00  0.00    +0.007 C 
ATOM      6  C   UNL     1       4.270  -8.842   6.407  0.00  0.00    +0.040 C 
ATOM      7  C   UNL     1       3.158  -8.849   5.356  0.00  0.00    -0.067 C 
ATOM      8  H   UNL     1       2.839  -6.841   5.510  0.00  0.00    -0.081 HD
BRANCH   6   9
ATOM      9  C   UNL     1       4.412 -10.220   7.000  0.00  0.00    +0.135 A 
ATOM     10  N   UNL     1       4.707 -11.317   6.355  0.00  0.00    -0.134 NA
ATOM     11  N   UNL     1       4.752 -12.306   7.178  0.00  0.00    -0.134 NA
ATOM     12  C   UNL     1       4.492 -11.883   8.382  0.00  0.00    +0.133 A 
ATOM     13  N   UNL     1       4.263 -10.552   8.302  0.00  0.00    -0.315 N 
ATOM     14  C   UNL     1       3.908  -9.661   9.407  0.00  0.00    +0.125 C 
ATOM     15  C   UNL     1       4.488 -10.214  10.712  0.00  0.00    +0.022 C 
ATOM     16  C   UNL     1       3.484 -11.168  11.359  0.00  0.00    +0.002 C 
ATOM     17  C   UNL     1       3.201 -12.351  10.439  0.00  0.00    +0.008 C 
ATOM     18  C   UNL     1       4.458 -12.701   9.647  0.00  0.00    +0.076 C 
ENDBRANCH   6   9
ENDBRANCH   1   2
BRANCH   1  20
ATOM     19  N   UNL     1       0.696  -5.849   2.431  0.00  0.00    -0.281 N 
ATOM     20  C   UNL     1       1.678  -6.098   3.319  0.00  0.00    +0.201 C 
ATOM     21  O   UNL     1       2.384  -5.194   3.713  0.00  0.00    -0.278 OA
ATOM     22  H   UNL     1       0.132  -6.573   2.116  0.00  0.00    +0.155 HD
BRANCH  19  30
ATOM     23  C   UNL     1      -0.019   1.526   0.010  0.00  0.00    +0.008 C 
ATOM     24  C   UNL     1       0.002  -0.004   0.002  0.00  0.00    -0.009 C 
ATOM     25  C   UNL     1      -1.434  -0.537   0.019  0.00  0.00    +0.008 C 
ATOM     26  C   UNL     1      -1.433  -2.045  -0.237  0.00  0.00    +0.037 C 
ATOM     27  C   UNL     1      -0.464  -2.704   0.734  0.00  0.00    -0.018 A 
ATOM     28  C   UNL     1       0.485  -1.986   1.374  0.00  0.00    -0.004 A 
ATOM     29  S   UNL     1       1.344  -3.168   2.371  0.00  0.00    -0.077 S 
ATOM     30  C   UNL     1       0.493  -4.558   1.966  0.00  0.00    +0.090 A 
ATOM     31  C   UNL     1      -0.459  -4.119   1.059  0.00  0.00    +0.084 A 
ATOM     32  C   UNL     1       0.739  -0.515   1.248  0.00  0.00    +0.046 C 
BRANCH  31  33
ATOM     33  C   UNL     1      -1.399  -5.024   0.469  0.00  0.00    +0.102 C 
ATOM     34  N   UNL     1      -2.144  -5.741   0.000  0.00  0.00    -0.191 NA
ENDBRANCH  31  33
ENDBRANCH  19  30
ENDBRANCH   1  20
TORSDOF 5
