REMARK  Name = ZINC21276374
REMARK  12 active torsions:
REMARK  status: ('A' for Active; 'I' for Inactive)
REMARK    1  A    between atoms: C_1  and  C_2
REMARK    2  A    between atoms: C_2  and  C_4
REMARK    3  A    between atoms: C_2  and  S_16
REMARK    4  A    between atoms: N_6  and  C_7
REMARK    5  A    between atoms: C_10  and  C_13
REMARK    6  A    between atoms: S_16  and  C_17
REMARK    7  A    between atoms: C_20  and  C_23
REMARK    8  A    between atoms: N_21  and  C_22
REMARK    9  A    between atoms: C_30  and  C_33
REMARK   10  A    between atoms: C_33  and  C_34
REMARK   11  A    between atoms: C_33  and  C_35
REMARK   12  A    between atoms: C_33  and  C_36
REMARK                            x       y       z     vdW  Elec       q    Type
REMARK                         _______ _______ _______ _____ _____    ______ ____
ROOT
ATOM      1  C   UNL     1      -2.059   1.480   1.423  0.00  0.00    +0.192 A 
ATOM      2  N   UNL     1      -2.217   2.042   2.600  0.00  0.00    -0.122 NA
ATOM      3  N   UNL     1      -1.104   2.046   3.242  0.00  0.00    -0.128 NA
ATOM      4  C   UNL     1      -0.165   1.479   2.517  0.00  0.00    +0.171 A 
ATOM      5  N   UNL     1      -0.750   1.095   1.330  0.00  0.00    -0.305 N 
ATOM      6  C   UNL     1      -0.103   0.422   0.201  0.00  0.00    +0.153 C 
ENDROOT
BRANCH   4   7
ATOM      7  C   UNL     1       1.243   1.290   2.900  0.00  0.00    +0.057 A 
ATOM      8  C   UNL     1       1.949   1.880   3.914  0.00  0.00    +0.023 A 
ATOM      9  C   UNL     1       3.285   1.552   4.106  0.00  0.00    -0.036 A 
ATOM     10  C   UNL     1       3.824   0.646   3.240  0.00  0.00    -0.006 A 
ATOM     11  S   UNL     1       2.481   0.237   2.158  0.00  0.00    -0.090 S 
ATOM     12  C   UNL     1       5.226   0.128   3.222  0.00  0.00    +0.043 C 
ATOM     13  C   UNL     1       5.892   0.490   4.558  0.00  0.00    +0.009 C 
ATOM     14  C   UNL     1       5.615   1.965   4.861  0.00  0.00    -0.001 C 
ATOM     15  C   UNL     1       4.140   2.160   5.214  0.00  0.00    +0.040 C 
BRANCH  14  16
ATOM     16  C   UNL     1       6.482   2.413   6.040  0.00  0.00    -0.035 C 
ATOM     17  C   UNL     1       6.137   1.576   7.273  0.00  0.00    +0.011 C 
ATOM     18  C   UNL     1       7.959   2.219   5.689  0.00  0.00    +0.011 C 
ATOM     19  C   UNL     1       6.218   3.890   6.335  0.00  0.00    +0.011 C 
ENDBRANCH  14  16
ENDBRANCH   4   7
BRANCH   1  20
ATOM     20  S   UNL     1      -3.303   1.259   0.195  0.00  0.00    -0.074 S 
BRANCH  20  22
ATOM     21  C   UNL     1      -4.458   3.501   1.245  0.00  0.00    +0.029 C 
ATOM     22  C   UNL     1      -4.717   2.007   1.042  0.00  0.00    +0.137 C 
BRANCH  22  23
ATOM     23  C   UNL     1      -5.958   1.821   0.208  0.00  0.00    +0.230 C 
ATOM     24  O   UNL     1      -5.862   1.583  -0.977  0.00  0.00    -0.274 OA
ATOM     25  N   UNL     1      -7.175   1.920   0.779  0.00  0.00    -0.285 N 
ATOM     26  H   UNL     1      -7.263   2.050   1.867  0.00  0.00    +0.155 HD
BRANCH  25  27
ATOM     27  C   UNL     1      -8.322   1.858  -0.011  0.00  0.00    +0.033 A 
ATOM     28  C   UNL     1      -8.307   2.380  -1.300  0.00  0.00    +0.024 A 
ATOM     29  C   UNL     1      -9.437   2.316  -2.084  0.00  0.00    +0.015 A 
ATOM     30  C   UNL     1     -10.603   1.735  -1.580  0.00  0.00    +0.037 A 
ATOM     31  C   UNL     1     -10.617   1.216  -0.282  0.00  0.00    +0.015 A 
ATOM     32  C   UNL     1      -9.482   1.279   0.495  0.00  0.00    +0.024 A 
BRANCH  30  33
ATOM     33  C   UNL     1     -11.818   1.669  -2.415  0.00  0.00    +0.242 C 
ATOM     34  O   UNL     1     -12.832   1.163  -1.975  0.00  0.00    -0.270 OA
ATOM     35  N   UNL     1     -11.803   2.171  -3.667  0.00  0.00    -0.325 N 
ATOM     36  H   UNL     1     -12.709   2.121  -4.290  0.00  0.00    +0.145 HD
ATOM     37  H   UNL     1     -10.886   2.628  -4.065  0.00  0.00    +0.145 HD
ENDBRANCH  30  33
ENDBRANCH  25  27
ENDBRANCH  22  23
ENDBRANCH  20  22
ENDBRANCH   1  20
TORSDOF 7
