REMARK  Name = ZINC36206292
REMARK  17 active torsions:
REMARK  status: ('A' for Active; 'I' for Inactive)
REMARK    1  A    between atoms: C_1  and  C_2
REMARK    2  A    between atoms: C_2  and  C_3
REMARK    3  A    between atoms: C_2  and  C_4
REMARK    4  A    between atoms: C_4  and  O_5
REMARK    5  A    between atoms: O_5  and  C_6
REMARK    6  A    between atoms: C_6  and  C_7
REMARK    7  A    between atoms: C_7  and  C_9
REMARK    8  A    between atoms: C_7  and  O_34
REMARK    9  A    between atoms: C_9  and  N_10
REMARK   10  A    between atoms: N_10  and  C_11
REMARK   11  A    between atoms: N_10  and  C_31
REMARK   12  A    between atoms: C_11  and  C_12
REMARK   13  A    between atoms: C_18  and  C_23
REMARK   14  A    between atoms: C_26  and  O_29
REMARK   15  A    between atoms: O_29  and  C_30
REMARK   16  A    between atoms: C_31  and  C_32
REMARK   17  A    between atoms: C_31  and  C_33
REMARK                            x       y       z     vdW  Elec       q    Type
REMARK                         _______ _______ _______ _____ _____    ______ ____
ROOT
ATOM      1  C   UNL     1      -4.437  -8.573  -0.477  0.00  0.00    +0.094 A 
ATOM      2  N   UNL     1      -5.352  -9.543  -0.733  0.00  0.00    -0.312 N 
ATOM      3  H   UNL     1      -6.290  -9.307  -0.795  0.00  0.00    +0.170 HD
ATOM      4  C   UNL     1      -4.982 -10.826  -0.901  0.00  0.00    +0.260 A 
ATOM      5  O   UNL     1      -5.816 -11.685  -1.131  0.00  0.00    -0.267 OA
ATOM      6  C   UNL     1      -3.595 -11.167  -0.807  0.00  0.00    +0.080 A 
ATOM      7  C   UNL     1      -2.953 -12.468  -0.950  0.00  0.00    +0.004 A 
ATOM      8  C   UNL     1      -1.607 -12.548  -0.819  0.00  0.00    +0.056 A 
ATOM      9  S   UNL     1      -1.123 -10.864  -0.492  0.00  0.00    -0.076 S 
ATOM     10  C   UNL     1      -2.723 -10.099  -0.540  0.00  0.00    +0.116 A 
ATOM     11  N   UNL     1      -3.164  -8.852  -0.390  0.00  0.00    -0.229 NA
ENDROOT
BRANCH   7  12
ATOM     12  C   UNL     1      -3.758 -13.681  -1.234  0.00  0.00    -0.016 A 
ATOM     13  C   UNL     1      -4.884 -13.968  -0.463  0.00  0.00    +0.012 A 
ATOM     14  C   UNL     1      -5.630 -15.096  -0.730  0.00  0.00    +0.046 A 
ATOM     15  C   UNL     1      -5.262 -15.946  -1.764  0.00  0.00    +0.120 A 
ATOM     16  C   UNL     1      -4.141 -15.663  -2.532  0.00  0.00    +0.046 A 
ATOM     17  C   UNL     1      -3.393 -14.533  -2.275  0.00  0.00    +0.012 A 
BRANCH  15  18
ATOM     18  O   UNL     1      -6.000 -17.057  -2.024  0.00  0.00    -0.495 OA
ATOM     19  C   UNL     1      -5.564 -17.887  -3.102  0.00  0.00    +0.277 C 
ENDBRANCH  15  18
ENDBRANCH   7  12
BRANCH   1  20
ATOM     20  C   UNL     1      -4.897  -7.150  -0.296  0.00  0.00    -0.003 C 
BRANCH  20  21
ATOM     21  N   UNL     1      -3.765  -6.321   0.139  0.00  0.00    +0.388 N 
ATOM     22  H   UNL     1      -2.914  -6.669  -0.276  0.00  0.00    -0.081 HD
BRANCH  21  23
ATOM     23  C   UNL     1      -3.654  -6.373   1.603  0.00  0.00    -0.074 C 
ATOM     24  C   UNL     1      -4.914  -5.776   2.232  0.00  0.00    -0.014 C 
ATOM     25  C   UNL     1      -3.500  -7.828   2.050  0.00  0.00    -0.014 C 
ENDBRANCH  21  23
BRANCH  21  26
ATOM     26  C   UNL     1      -3.984  -4.932  -0.286  0.00  0.00    -0.044 C 
BRANCH  26  27
ATOM     27  C   UNL     1      -2.759  -4.089   0.074  0.00  0.00    +0.124 C 
BRANCH  27  28
ATOM     28  O   UNL     1      -1.610  -4.606  -0.600  0.00  0.00    -0.391 OA
ATOM     29  H   UNL     1      -1.685  -4.603  -1.564  0.00  0.00    +0.210 HD
ENDBRANCH  27  28
BRANCH  27  30
ATOM     30  C   UNL     1      -2.993  -2.639  -0.355  0.00  0.00    +0.189 C 
BRANCH  30  31
ATOM     31  O   UNL     1      -1.900  -1.830   0.085  0.00  0.00    -0.377 OA
BRANCH  31  32
ATOM     32  C   UNL     1      -2.020  -0.450  -0.268  0.00  0.00    +0.163 C 
BRANCH  32  34
ATOM     33  C   UNL     1      -0.868   1.766  -0.232  0.00  0.00    +0.009 C 
ATOM     34  C   UNL     1      -0.801   0.316   0.251  0.00  0.00    +0.009 C 
ATOM     35  C   UNL     1      -0.794   0.288   1.780  0.00  0.00    +0.009 C 
ENDBRANCH  32  34
ENDBRANCH  31  32
ENDBRANCH  30  31
ENDBRANCH  27  30
ENDBRANCH  26  27
ENDBRANCH  21  26
ENDBRANCH  20  21
ENDBRANCH   1  20
TORSDOF 12
