REMARK  Name = ZINC45805099
REMARK  11 active torsions:
REMARK  status: ('A' for Active; 'I' for Inactive)
REMARK    1  A    between atoms: C_1  and  C_2
REMARK    2  A    between atoms: C_2  and  C_3
REMARK    3  A    between atoms: C_3  and  C_4
REMARK    4  A    between atoms: C_4  and  N_5
REMARK    5  A    between atoms: N_5  and  C_6
REMARK    6  A    between atoms: N_5  and  C_23
REMARK    7  A    between atoms: C_6  and  C_7
REMARK    8  A    between atoms: C_7  and  C_8
REMARK    9  A    between atoms: N_10  and  C_11
REMARK   10  A    between atoms: C_12  and  C_21
REMARK   11  A    between atoms: C_23  and  C_24
REMARK                            x       y       z     vdW  Elec       q    Type
REMARK                         _______ _______ _______ _____ _____    ______ ____
ROOT
ATOM      1  C   UNL     1       1.448  -6.241  -3.496  0.00  0.00    +0.216 C 
ATOM      2  O   UNL     1       1.057  -6.751  -2.468  0.00  0.00    -0.276 OA
ATOM      3  N   UNL     1       1.734  -7.011  -4.564  0.00  0.00    -0.279 N 
ATOM      4  H   UNL     1       2.046  -6.603  -5.387  0.00  0.00    +0.155 HD
ENDROOT
BRANCH   3   5
ATOM      5  C   UNL     1       1.582  -8.389  -4.487  0.00  0.00    +0.090 A 
ATOM      6  C   UNL     1       1.831  -9.328  -5.472  0.00  0.00    +0.084 A 
ATOM      7  C   UNL     1       1.591 -10.725  -5.141  0.00  0.00    -0.018 A 
ATOM      8  C   UNL     1       1.140 -10.920  -3.884  0.00  0.00    -0.004 A 
ATOM      9  S   UNL     1       1.062  -9.298  -3.177  0.00  0.00    -0.077 S 
ATOM     10  C   UNL     1       0.777 -12.218  -3.233  0.00  0.00    +0.043 C 
ATOM     11  C   UNL     1       1.907 -13.230  -3.465  0.00  0.00    +0.005 C 
ATOM     12  C   UNL     1       1.635 -13.972  -4.770  0.00  0.00    +0.001 C 
ATOM     13  C   UNL     1       0.940 -13.049  -5.768  0.00  0.00    +0.005 C 
ATOM     14  C   UNL     1       1.839 -11.867  -6.117  0.00  0.00    +0.037 C 
BRANCH   6  15
ATOM     15  C   UNL     1       2.307  -8.941  -6.766  0.00  0.00    +0.102 C 
ATOM     16  N   UNL     1       2.683  -8.634  -7.793  0.00  0.00    -0.191 NA
ENDBRANCH   6  15
ENDBRANCH   3   5
BRANCH   1  17
ATOM     17  C   UNL     1       1.612  -4.745  -3.580  0.00  0.00    +0.077 C 
BRANCH  17  18
ATOM     18  C   UNL     1       1.223  -4.114  -2.241  0.00  0.00    -0.069 C 
BRANCH  18  19
ATOM     19  N   UNL     1       1.507  -2.673  -2.279  0.00  0.00    +0.386 N 
ATOM     20  H   UNL     1       2.472  -2.526  -2.535  0.00  0.00    -0.081 HD
BRANCH  19  21
ATOM     21  C   UNL     1       0.634  -2.027  -3.269  0.00  0.00    -0.078 C 
BRANCH  21  22
ATOM     22  C   UNL     1       1.014  -0.551  -3.398  0.00  0.00    -0.019 C 
BRANCH  22  24
ATOM     23  C   UNL     1       0.484   1.598  -4.558  0.00  0.00    +0.004 C 
ATOM     24  C   UNL     1       0.104   0.121  -4.429  0.00  0.00    -0.005 C 
ENDBRANCH  22  24
ENDBRANCH  21  22
ENDBRANCH  19  21
BRANCH  19  25
ATOM     25  C   UNL     1       1.258  -2.090  -0.953  0.00  0.00    +0.018 C 
BRANCH  25  26
ATOM     26  C   UNL     1       2.265  -2.631   0.029  0.00  0.00    +0.194 C 
ATOM     27  O   UNL     1       3.170  -3.339  -0.357  0.00  0.00    -0.278 OA
ATOM     28  N   UNL     1       2.158  -2.328   1.338  0.00  0.00    -0.331 N 
ATOM     29  H   UNL     1       1.434  -1.762   1.648  0.00  0.00    +0.145 HD
ATOM     30  H   UNL     1       2.806  -2.676   1.971  0.00  0.00    +0.145 HD
ENDBRANCH  25  26
ENDBRANCH  19  25
ENDBRANCH  18  19
ENDBRANCH  17  18
ENDBRANCH   1  17
TORSDOF 10
