REMARK  Name = ZINC00414772
REMARK  6 active torsions:
REMARK  status: ('A' for Active; 'I' for Inactive)
REMARK    1  A    between atoms: C_1  and  O_2
REMARK    2  A    between atoms: O_2  and  C_3
REMARK    3  A    between atoms: C_7  and  C_9
REMARK    4  A    between atoms: C_9  and  S_10
REMARK    5  A    between atoms: S_10  and  C_11
REMARK    6  A    between atoms: C_14  and  C_16
REMARK                            x       y       z     vdW  Elec       q    Type
REMARK                         _______ _______ _______ _____ _____    ______ ____
ROOT
ATOM      1  C   UNL     1       2.752  -6.452  -1.655  0.00  0.00    +0.278 A 
ATOM      2  N   UNL     1       1.800  -7.127  -2.253  0.00  0.00    -0.101 NA
ATOM      3  N   UNL     1       2.065  -8.385  -2.196  0.00  0.00    -0.106 NA
ATOM      4  C   UNL     1       3.197  -8.563  -1.559  0.00  0.00    +0.251 A 
ATOM      5  O   UNL     1       3.659  -7.343  -1.207  0.00  0.00    -0.411 OA
ENDROOT
BRANCH   4   6
ATOM      6  C   UNL     1       3.849  -9.857  -1.281  0.00  0.00    +0.063 A 
ATOM      7  C   UNL     1       5.019 -10.052  -0.617  0.00  0.00    +0.097 A 
ATOM      8  N   UNL     1       5.299 -11.386  -0.559  0.00  0.00    -0.360 N 
ATOM      9  H   UNL     1       6.081 -11.770  -0.134  0.00  0.00    +0.165 HD
ATOM     10  C   UNL     1       4.310 -12.108  -1.190  0.00  0.00    +0.047 A 
ATOM     11  C   UNL     1       3.357 -11.191  -1.665  0.00  0.00    +0.012 A 
ATOM     12  C   UNL     1       2.230 -11.646  -2.347  0.00  0.00    +0.011 A 
ATOM     13  C   UNL     1       2.055 -12.998  -2.550  0.00  0.00    +0.001 A 
ATOM     14  C   UNL     1       2.993 -13.904  -2.078  0.00  0.00    +0.002 A 
ATOM     15  C   UNL     1       4.117 -13.468  -1.410  0.00  0.00    +0.026 A 
ENDBRANCH   4   6
BRANCH   1  16
ATOM     16  S   UNL     1       2.834  -4.701  -1.477  0.00  0.00    -0.061 S 
BRANCH  16  17
ATOM     17  C   UNL     1       1.325  -4.106  -2.289  0.00  0.00    +0.114 C 
BRANCH  17  22
ATOM     18  C   UNL     1       0.606  -0.607  -1.056  0.00  0.00    +0.120 A 
ATOM     19  C   UNL     1       1.173   0.161  -2.063  0.00  0.00    +0.045 A 
ATOM     20  C   UNL     1       1.786  -0.455  -3.136  0.00  0.00    +0.004 A 
ATOM     21  C   UNL     1       1.836  -1.835  -3.208  0.00  0.00    +0.005 A 
ATOM     22  C   UNL     1       1.271  -2.602  -2.207  0.00  0.00    -0.034 A 
ATOM     23  C   UNL     1       0.661  -1.991  -1.128  0.00  0.00    +0.050 A 
BRANCH  18  25
ATOM     24  C   UNL     1      -0.017   1.425   0.010  0.00  0.00    +0.277 C 
ATOM     25  O   UNL     1       0.002  -0.004   0.002  0.00  0.00    -0.495 OA
ENDBRANCH  18  25
ENDBRANCH  17  22
ENDBRANCH  16  17
ENDBRANCH   1  16
TORSDOF 5
