REMARK  Name = ZINC06227025
REMARK  2 active torsions:
REMARK  status: ('A' for Active; 'I' for Inactive)
REMARK    1  A    between atoms: C_5  and  C_7
REMARK    2  A    between atoms: N_16  and  C_19
REMARK                            x       y       z     vdW  Elec       q    Type
REMARK                         _______ _______ _______ _____ _____    ______ ____
ROOT
ATOM      1  C   UNL     1       1.251  -2.159  -0.022  0.00  0.00    +0.081 C 
ATOM      2  N   UNL     1       0.141  -2.987   0.076  0.00  0.00    -0.264 N 
ATOM      3  O   UNL     1       0.532  -4.244  -0.513  0.00  0.00    -0.256 OA
ATOM      4  C   UNL     1       1.859  -4.369   0.023  0.00  0.00    +0.272 C 
ATOM      5  C   UNL     1       2.365  -2.926  -0.135  0.00  0.00    +0.081 C 
ATOM      6  H   UNL     1      -0.720  -2.765   0.462  0.00  0.00    +0.194 HD
ATOM      7  C   UNL     1       3.723  -3.112  -0.414  0.00  0.00    +0.258 C 
ATOM      8  O   UNL     1       4.609  -2.313  -0.166  0.00  0.00    -0.269 OA
ATOM      9  N   UNL     1       3.898  -4.313  -0.999  0.00  0.00    -0.204 N 
ATOM     10  C   UNL     1       2.821  -5.133  -0.844  0.00  0.00    +0.263 C 
ATOM     11  O   UNL     1       2.660  -6.238  -1.315  0.00  0.00    -0.271 OA
ENDROOT
BRANCH   9  12
ATOM     12  C   UNL     1       5.067  -4.686  -1.678  0.00  0.00    +0.046 A 
ATOM     13  C   UNL     1       5.162  -5.943  -2.259  0.00  0.00    +0.027 A 
ATOM     14  C   UNL     1       6.314  -6.309  -2.928  0.00  0.00    +0.041 A 
ATOM     15  C   UNL     1       7.374  -5.423  -3.020  0.00  0.00    +0.142 A 
ATOM     16  C   UNL     1       7.281  -4.168  -2.441  0.00  0.00    +0.078 A 
ATOM     17  C   UNL     1       6.128  -3.796  -1.776  0.00  0.00    +0.046 A 
ATOM     18 CL   UNL     1       8.612  -3.059  -2.556  0.00  0.00    -0.081 Cl
ATOM     19  F   UNL     1       8.499  -5.784  -3.674  0.00  0.00    -0.204 F 
ENDBRANCH   9  12
BRANCH   1  24
ATOM     20  C   UNL     1       1.748   1.414  -1.061  0.00  0.00    +0.001 A 
ATOM     21  C   UNL     1       1.171   2.087   0.003  0.00  0.00    +0.001 A 
ATOM     22  C   UNL     1       0.620   1.383   1.058  0.00  0.00    +0.020 A 
ATOM     23  C   UNL     1       0.642   0.002   1.057  0.00  0.00    +0.050 A 
ATOM     24  C   UNL     1       1.223  -0.683  -0.014  0.00  0.00    +0.019 A 
ATOM     25  C   UNL     1       1.777   0.036  -1.076  0.00  0.00    +0.011 A 
ATOM     26 CL   UNL     1      -0.049  -0.880   2.383  0.00  0.00    -0.083 Cl
ENDBRANCH   1  24
TORSDOF 2
