REMARK  Name = ZINC13143158
REMARK  10 active torsions:
REMARK  status: ('A' for Active; 'I' for Inactive)
REMARK    1  A    between atoms: C_1  and  C_2
REMARK    2  A    between atoms: C_2  and  C_4
REMARK    3  A    between atoms: C_4  and  S_14
REMARK    4  A    between atoms: N_5  and  N_6
REMARK    5  A    between atoms: N_6  and  C_7
REMARK    6  A    between atoms: S_14  and  C_15
REMARK    7  A    between atoms: C_18  and  C_26
REMARK    8  A    between atoms: N_19  and  C_20
REMARK    9  A    between atoms: C_26  and  C_28
REMARK   10  A    between atoms: C_26  and  O_34
REMARK                            x       y       z     vdW  Elec       q    Type
REMARK                         _______ _______ _______ _____ _____    ______ ____
ROOT
ATOM      1  C   UNL     1       0.053  -2.659  -3.153  0.00  0.00    +0.202 A 
ATOM      2  N   UNL     1       0.098  -1.747  -4.096  0.00  0.00    -0.122 NA
ATOM      3  N   UNL     1       0.123  -2.311  -5.250  0.00  0.00    -0.130 NA
ATOM      4  C   UNL     1       0.097  -3.607  -5.117  0.00  0.00    +0.172 A 
ATOM      5  N   UNL     1       0.056  -3.878  -3.775  0.00  0.00    -0.272 N 
ENDROOT
BRANCH   5   6
ATOM      6  C   UNL     1       0.022  -5.140  -3.165  0.00  0.00    +0.050 A 
ATOM      7  C   UNL     1       1.107  -5.999  -3.282  0.00  0.00    +0.026 A 
ATOM      8  C   UNL     1       1.070  -7.241  -2.680  0.00  0.00    +0.002 A 
ATOM      9  C   UNL     1      -0.045  -7.631  -1.962  0.00  0.00    +0.000 A 
ATOM     10  C   UNL     1      -1.127  -6.778  -1.844  0.00  0.00    +0.002 A 
ATOM     11  C   UNL     1      -1.094  -5.532  -2.439  0.00  0.00    +0.026 A 
ENDBRANCH   5   6
BRANCH   1  12
ATOM     12  S   UNL     1       0.005  -2.369  -1.415  0.00  0.00    -0.025 S 
BRANCH  12  13
ATOM     13  C   UNL     1       0.023  -0.613  -1.276  0.00  0.00    +0.164 C 
ATOM     14  N   UNL     1       0.064   0.130  -2.355  0.00  0.00    -0.172 NA
BRANCH  13  16
ATOM     15  C   UNL     1       1.230   0.004   0.862  0.00  0.00    +0.094 C 
ATOM     16  C   UNL     1      -0.007  -0.004   0.002  0.00  0.00    +0.187 C 
ATOM     17  O   UNL     1      -1.030   0.512   0.405  0.00  0.00    -0.290 OA
ENDBRANCH  13  16
BRANCH  14  18
ATOM     18  N   UNL     1       0.191   1.521  -2.243  0.00  0.00    -0.235 N 
ATOM     19  H   UNL     1       0.176   1.941  -1.369  0.00  0.00    +0.174 HD
BRANCH  18  20
ATOM     20  C   UNL     1       0.339   2.302  -3.390  0.00  0.00    +0.067 A 
ATOM     21  C   UNL     1       0.354   1.702  -4.644  0.00  0.00    +0.026 A 
ATOM     22  C   UNL     1       0.500   2.479  -5.777  0.00  0.00    +0.002 A 
ATOM     23  C   UNL     1       0.631   3.851  -5.665  0.00  0.00    +0.002 A 
ATOM     24  C   UNL     1       0.617   4.452  -4.420  0.00  0.00    +0.022 A 
ATOM     25  C   UNL     1       0.465   3.683  -3.282  0.00  0.00    +0.063 A 
ATOM     26 CL   UNL     1       0.440   4.438  -1.719  0.00  0.00    -0.082 Cl
ENDBRANCH  18  20
ENDBRANCH  14  18
ENDBRANCH  12  13
ENDBRANCH   1  12
BRANCH   4  27
ATOM     27  C   UNL     1       0.113  -4.621  -6.232  0.00  0.00    +0.212 C 
BRANCH  27  28
ATOM     28  C   UNL     1      -1.240  -4.662  -6.893  0.00  0.00    -0.012 A 
ATOM     29  C   UNL     1      -1.546  -3.765  -7.899  0.00  0.00    +0.006 A 
ATOM     30  C   UNL     1      -2.788  -3.803  -8.505  0.00  0.00    +0.000 A 
ATOM     31  C   UNL     1      -3.723  -4.739  -8.106  0.00  0.00    +0.000 A 
ATOM     32  C   UNL     1      -3.417  -5.637  -7.101  0.00  0.00    +0.000 A 
ATOM     33  C   UNL     1      -2.174  -5.602  -6.498  0.00  0.00    +0.006 A 
ENDBRANCH  27  28
BRANCH  27  34
ATOM     34  O   UNL     1       1.103  -4.253  -7.195  0.00  0.00    -0.379 OA
ATOM     35  H   UNL     1       0.956  -3.387  -7.599  0.00  0.00    +0.211 HD
ENDBRANCH  27  34
ENDBRANCH   4  27
TORSDOF 9
