REMARK  Name = ZINC09712404
REMARK  4 active torsions:
REMARK  status: ('A' for Active; 'I' for Inactive)
REMARK    1  A    between atoms: C_6  and  C_7
REMARK    2  A    between atoms: C_12  and  C_13
REMARK    3  A    between atoms: C_12  and  N_57
REMARK    4  A    between atoms: N_18  and  C_19
REMARK                            x       y       z     vdW  Elec       q    Type
REMARK                         _______ _______ _______ _____ _____    ______ ____
ROOT
ATOM      1  C   UNL     1       4.832  -4.007   0.220  0.00  0.00    +0.204 C 
ATOM      2  O   UNL     1       3.790  -4.627   0.229  0.00  0.00    -0.277 OA
ATOM      3  N   UNL     1       4.814  -2.662   0.127  0.00  0.00    -0.241 N 
ATOM      4  C   UNL     1       3.639  -2.008   0.045  0.00  0.00    +0.310 C 
ATOM      5  O   UNL     1       2.595  -2.630   0.055  0.00  0.00    -0.252 OA
ATOM      6  N   UNL     1       3.622  -0.663  -0.047  0.00  0.00    -0.269 N 
ATOM      7  H   UNL     1       5.647  -2.166   0.120  0.00  0.00    +0.159 HD
ATOM      8  H   UNL     1       4.454  -0.172  -0.132  0.00  0.00    +0.156 HD
ENDROOT
BRANCH   6   9
ATOM      9  C   UNL     1       2.401   0.025  -0.020  0.00  0.00    +0.038 A 
ATOM     10  C   UNL     1       1.346  -0.461   0.741  0.00  0.00    +0.027 A 
ATOM     11  C   UNL     1       0.143   0.216   0.766  0.00  0.00    +0.051 A 
ATOM     12  C   UNL     1      -0.016   1.383   0.033  0.00  0.00    +0.162 A 
ATOM     13  C   UNL     1       1.039   1.873  -0.728  0.00  0.00    +0.164 A 
ATOM     14  C   UNL     1       2.246   1.192  -0.754  0.00  0.00    +0.072 A 
ATOM     15  O   UNL     1       0.904   3.021  -1.447  0.00  0.00    -0.485 OA
ATOM     16  C   UNL     1      -0.431   3.473  -1.695  0.00  0.00    +0.270 C 
ATOM     17  C   UNL     1      -1.217   3.394  -0.379  0.00  0.00    +0.270 C 
ATOM     18  O   UNL     1      -1.213   2.032   0.063  0.00  0.00    -0.485 OA
ENDBRANCH   6   9
BRANCH   1  19
ATOM     19  C   UNL     1       6.146  -4.739   0.311  0.00  0.00    +0.020 C 
BRANCH  19  24
ATOM     20  C   UNL     1       7.159  -6.952   0.253  0.00  0.00    -0.037 C 
ATOM     21  C   UNL     1       6.855  -8.326   0.889  0.00  0.00    -0.013 C 
ATOM     22  C   UNL     1       5.698  -8.064   1.875  0.00  0.00    -0.020 C 
ATOM     23  C   UNL     1       5.400  -6.554   1.753  0.00  0.00    -0.077 C 
ATOM     24  N   UNL     1       5.904  -6.212   0.424  0.00  0.00    +0.390 N 
ATOM     25  H   UNL     1       5.226  -6.498  -0.292  0.00  0.00    -0.080 HD
BRANCH  20  31
ATOM     26  C   UNL     1       6.512  -7.372  -2.127  0.00  0.00    +0.006 A 
ATOM     27  C   UNL     1       6.828  -7.522  -3.464  0.00  0.00    +0.049 A 
ATOM     28  C   UNL     1       8.145  -7.410  -3.884  0.00  0.00    +0.162 A 
ATOM     29  C   UNL     1       9.146  -7.147  -2.956  0.00  0.00    +0.162 A 
ATOM     30  C   UNL     1       8.822  -6.995  -1.616  0.00  0.00    +0.051 A 
ATOM     31  C   UNL     1       7.508  -7.113  -1.204  0.00  0.00    -0.057 A 
ATOM     32  O   UNL     1      10.444  -7.029  -3.346  0.00  0.00    -0.485 OA
ATOM     33  C   UNL     1      10.778  -7.554  -4.636  0.00  0.00    +0.270 C 
ATOM     34  C   UNL     1       9.716  -7.078  -5.637  0.00  0.00    +0.270 C 
ATOM     35  O   UNL     1       8.441  -7.564  -5.203  0.00  0.00    -0.485 OA
ENDBRANCH  20  31
ENDBRANCH  19  24
ENDBRANCH   1  19
TORSDOF 4
