REMARK  Name = ZINC61824073
REMARK  5 active torsions:
REMARK  status: ('A' for Active; 'I' for Inactive)
REMARK    1  A    between atoms: C_1  and  C_2
REMARK    2  A    between atoms: C_2  and  C_19
REMARK    3  A    between atoms: N_5  and  C_8
REMARK    4  A    between atoms: C_10  and  C_16
REMARK    5  A    between atoms: C_11  and  N_15
REMARK                            x       y       z     vdW  Elec       q    Type
REMARK                         _______ _______ _______ _____ _____    ______ ____
ROOT
ATOM      1  C   UNL     1      -1.104  -3.400   2.081  0.00  0.00    +0.066 A 
ATOM      2  C   UNL     1      -0.902  -4.713   1.706  0.00  0.00    +0.043 A 
ATOM      3  C   UNL     1      -1.383  -5.751   2.515  0.00  0.00    +0.086 A 
ATOM      4  C   UNL     1      -2.068  -5.446   3.703  0.00  0.00    +0.042 A 
ATOM      5  C   UNL     1      -2.263  -4.120   4.066  0.00  0.00    +0.063 A 
ATOM      6  C   UNL     1      -1.780  -3.103   3.264  0.00  0.00    +0.146 A 
ATOM      7  F   UNL     1      -1.968  -1.815   3.626  0.00  0.00    -0.203 F 
ENDROOT
BRANCH   1  12
ATOM      8  C   UNL     1      -0.177   1.819   0.613  0.00  0.00    +0.011 C 
ATOM      9  C   UNL     1      -0.111   0.299   0.457  0.00  0.00    -0.032 C 
ATOM     10  C   UNL     1      -1.530  -0.270   0.402  0.00  0.00    +0.025 C 
ATOM     11  C   UNL     1      -1.460  -1.789   0.211  0.00  0.00    +0.106 C 
ATOM     12  N   UNL     1      -0.622  -2.361   1.273  0.00  0.00    -0.328 N 
ATOM     13  C   UNL     1       0.731  -1.823   1.472  0.00  0.00    +0.106 C 
ATOM     14  C   UNL     1       0.636  -0.304   1.649  0.00  0.00    +0.025 C 
ATOM     15  C   UNL     1       0.629  -0.049  -0.837  0.00  0.00    +0.011 C 
ENDBRANCH   1  12
BRANCH   4  16
ATOM     16  N   UNL     1      -2.550  -6.468   4.512  0.00  0.00    -0.357 N 
ATOM     17  H   UNL     1      -2.342  -7.392   4.302  0.00  0.00    +0.142 HD
ATOM     18  H   UNL     1      -3.095  -6.258   5.287  0.00  0.00    +0.142 HD
ENDBRANCH   4  16
BRANCH   3  19
ATOM     19  C   UNL     1      -1.173  -7.151   2.122  0.00  0.00    +0.388 C 
ATOM     20  O   UNL     1      -0.679  -7.414   1.034  0.00  0.00    -0.241 OA
ATOM     21  O   UNL     1      -1.491  -8.054   2.884  0.00  0.00    -0.241 OA
ENDBRANCH   3  19
TORSDOF 3
