REMARK  Name = ZINC18210988
REMARK  7 active torsions:
REMARK  status: ('A' for Active; 'I' for Inactive)
REMARK    1  A    between atoms: C_1  and  C_2
REMARK    2  A    between atoms: C_10  and  C_12
REMARK    3  A    between atoms: C_12  and  C_14
REMARK    4  A    between atoms: C_12  and  O_28
REMARK    5  A    between atoms: C_14  and  C_16
REMARK    6  A    between atoms: C_14  and  O_27
REMARK    7  A    between atoms: C_22  and  C_26
REMARK                            x       y       z     vdW  Elec       q    Type
REMARK                         _______ _______ _______ _____ _____    ______ ____
ROOT
ATOM      1  C   UNL     1       0.090  -5.594   2.249  0.00  0.00    +0.216 C 
ENDROOT
BRANCH   1  11
ATOM      2  C   UNL     1      -0.018   1.503   0.010  0.00  0.00    +0.044 C 
ATOM      3  C   UNL     1       0.002  -0.004   0.002  0.00  0.00    -0.048 A 
ATOM      4  C   UNL     1       0.006  -0.687  -1.206  0.00  0.00    +0.005 A 
ATOM      5  C   UNL     1       0.024  -2.052  -1.235  0.00  0.00    +0.030 A 
ATOM      6  C   UNL     1       0.040  -2.774  -0.039  0.00  0.00    +0.089 A 
ATOM      7  C   UNL     1       0.037  -2.083   1.185  0.00  0.00    +0.067 A 
ATOM      8  C   UNL     1       0.023  -0.695   1.195  0.00  0.00    +0.031 A 
ATOM      9  N   UNL     1       0.055  -3.051   2.169  0.00  0.00    -0.340 N 
ATOM     10  H   UNL     1       0.057  -2.898   3.127  0.00  0.00    +0.167 HD
ATOM     11  C   UNL     1       0.068  -4.261   1.546  0.00  0.00    +0.140 A 
ATOM     12  N   UNL     1       0.059  -4.099   0.255  0.00  0.00    -0.230 NA
ENDBRANCH   1  11
BRANCH   1  13
ATOM     13  O   UNL     1      -0.022  -5.390   3.659  0.00  0.00    -0.381 OA
ATOM     14  H   UNL     1      -0.834  -4.939   3.928  0.00  0.00    +0.210 HD
ENDBRANCH   1  13
BRANCH   1  15
ATOM     15  C   UNL     1      -1.082  -6.447   1.762  0.00  0.00    +0.216 C 
BRANCH  15  16
ATOM     16  C   UNL     1      -1.133  -7.729   2.552  0.00  0.00    +0.140 A 
ATOM     17  N   UNL     1      -2.219  -8.181   3.235  0.00  0.00    -0.340 N 
ATOM     18  H   UNL     1      -3.082  -7.743   3.298  0.00  0.00    +0.167 HD
ATOM     19  C   UNL     1      -1.865  -9.380   3.821  0.00  0.00    +0.066 A 
ATOM     20  C   UNL     1      -2.530 -10.297   4.624  0.00  0.00    +0.028 A 
ATOM     21  C   UNL     1      -1.873 -11.429   5.056  0.00  0.00    +0.005 A 
ATOM     22  C   UNL     1      -0.553 -11.658   4.694  0.00  0.00    -0.048 A 
ATOM     23  C   UNL     1       0.117 -10.767   3.905  0.00  0.00    +0.033 A 
ATOM     24  C   UNL     1      -0.529  -9.612   3.455  0.00  0.00    +0.089 A 
ATOM     25  N   UNL     1      -0.146  -8.568   2.675  0.00  0.00    -0.230 NA
ATOM     26  C   UNL     1       0.148 -12.901   5.177  0.00  0.00    +0.044 C 
ENDBRANCH  15  16
BRANCH  15  27
ATOM     27  O   UNL     1      -2.303  -5.727   1.944  0.00  0.00    -0.381 OA
ATOM     28  H   UNL     1      -2.486  -5.489   2.863  0.00  0.00    +0.210 HD
ENDBRANCH  15  27
ENDBRANCH   1  15
TORSDOF 5
