REMARK  Name = ZINC38976226
REMARK  6 active torsions:
REMARK  status: ('A' for Active; 'I' for Inactive)
REMARK    1  A    between atoms: C_1  and  C_2
REMARK    2  A    between atoms: C_2  and  N_3
REMARK    3  A    between atoms: C_14  and  N_16
REMARK    4  A    between atoms: N_16  and  C_17
REMARK    5  A    between atoms: N_20  and  S_21
REMARK    6  A    between atoms: S_21  and  C_24
REMARK                            x       y       z     vdW  Elec       q    Type
REMARK                         _______ _______ _______ _____ _____    ______ ____
ROOT
ATOM      1  C   UNL     1       7.066  -1.447  -1.447  0.00  0.00    +0.235 C 
ATOM      2  C   UNL     1       7.964  -2.663  -1.478  0.00  0.00    +0.170 C 
ATOM      3  N   UNL     1       7.487  -3.842  -1.209  0.00  0.00    -0.111 NA
ATOM      4  N   UNL     1       9.261  -2.507  -1.787  0.00  0.00    -0.338 N 
ATOM      5  C   UNL     1       9.767  -1.323  -2.064  0.00  0.00    +0.064 A 
ATOM      6  C   UNL     1      11.142  -1.196  -2.388  0.00  0.00    +0.028 A 
ATOM      7  C   UNL     1      11.667   0.016  -2.672  0.00  0.00    +0.002 A 
ATOM      8  C   UNL     1      10.903   1.195  -2.666  0.00  0.00    +0.002 A 
ATOM      9  C   UNL     1       9.585   1.186  -2.371  0.00  0.00    +0.027 A 
ATOM     10  C   UNL     1       8.937  -0.094  -2.050  0.00  0.00    +0.061 A 
ATOM     11  N   UNL     1       7.667  -0.141  -1.762  0.00  0.00    -0.359 N 
ATOM     12  H   UNL     1       7.130   0.666  -1.755  0.00  0.00    +0.162 HD
ATOM     13  H   UNL     1       9.839  -3.285  -1.808  0.00  0.00    +0.167 HD
ENDROOT
BRANCH   3  14
ATOM     14  S   UNL     1       8.481  -5.166  -1.246  0.00  0.00    +0.107 S 
ATOM     15  O   UNL     1       8.882  -5.334  -2.599  0.00  0.00    -0.146 OA
ATOM     16  O   UNL     1       9.416  -5.001  -0.189  0.00  0.00    -0.146 OA
BRANCH  14  17
ATOM     17  C   UNL     1       7.497  -6.568  -0.834  0.00  0.00    +0.150 A 
ATOM     18  C   UNL     1       6.800  -7.392  -1.654  0.00  0.00    +0.037 A 
ATOM     19  C   UNL     1       6.091  -8.443  -1.102  0.00  0.00    +0.010 A 
ATOM     20  C   UNL     1       6.115  -8.619   0.241  0.00  0.00    +0.047 A 
ATOM     21  S   UNL     1       7.168  -7.278   0.771  0.00  0.00    -0.076 S 
ENDBRANCH  14  17
ENDBRANCH   3  14
BRANCH   1  22
ATOM     22  N   UNL     1       5.971  -1.675  -2.394  0.00  0.00    -0.318 N 
ATOM     23  H   UNL     1       6.166  -1.945  -3.305  0.00  0.00    +0.148 HD
BRANCH  22  35
ATOM     24  N   UNL     1       0.798  -0.898  -0.550  0.00  0.00    -0.340 N 
ATOM     25  C   UNL     1       1.034  -0.348   0.697  0.00  0.00    +0.050 A 
ATOM     26  C   UNL     1       0.179   0.085   1.707  0.00  0.00    +0.026 A 
ATOM     27  C   UNL     1       0.697   0.603   2.874  0.00  0.00    +0.002 A 
ATOM     28  C   UNL     1       2.069   0.699   3.056  0.00  0.00    +0.001 A 
ATOM     29  C   UNL     1       2.931   0.276   2.068  0.00  0.00    +0.010 A 
ATOM     30  C   UNL     1       2.421  -0.250   0.883  0.00  0.00    +0.008 A 
ATOM     31  C   UNL     1       3.046  -0.781  -0.342  0.00  0.00    +0.009 A 
ATOM     32  C   UNL     1       1.998  -1.171  -1.188  0.00  0.00    +0.050 A 
ATOM     33  C   UNL     1       2.291  -1.722  -2.431  0.00  0.00    +0.028 A 
ATOM     34  C   UNL     1       3.602  -1.886  -2.824  0.00  0.00    +0.025 A 
ATOM     35  C   UNL     1       4.644  -1.503  -1.984  0.00  0.00    +0.030 A 
ATOM     36  C   UNL     1       4.369  -0.944  -0.748  0.00  0.00    +0.033 A 
BRANCH  24  38
ATOM     37  C   UNL     1      -0.979  -2.570  -0.722  0.00  0.00    +0.027 C 
ATOM     38  C   UNL     1      -0.529  -1.161  -1.112  0.00  0.00    +0.119 C 
ENDBRANCH  24  38
ENDBRANCH  22  35
ENDBRANCH   1  22
TORSDOF 5
