REMARK  Name = ZINC12445481
REMARK  15 active torsions:
REMARK  status: ('A' for Active; 'I' for Inactive)
REMARK    1  A    between atoms: C_1  and  C_2
REMARK    2  A    between atoms: C_2  and  C_3
REMARK    3  A    between atoms: C_3  and  C_4
REMARK    4  A    between atoms: C_4  and  N_5
REMARK    5  A    between atoms: C_6  and  C_18
REMARK    6  A    between atoms: C_9  and  S_10
REMARK    7  A    between atoms: S_10  and  C_13
REMARK    8  A    between atoms: C_13  and  C_14
REMARK    9  A    between atoms: C_18  and  N_68
REMARK   10  A    between atoms: C_19  and  N_68
REMARK   11  A    between atoms: C_20  and  C_21
REMARK   12  A    between atoms: C_20  and  N_68
REMARK   13  A    between atoms: C_21  and  C_22
REMARK   14  A    between atoms: C_22  and  C_24
REMARK   15  A    between atoms: C_22  and  N_70
REMARK                            x       y       z     vdW  Elec       q    Type
REMARK                         _______ _______ _______ _____ _____    ______ ____
ROOT
ATOM      1  N   UNL     1      -1.248  -0.414  -4.037  0.00  0.00    -0.315 N 
ATOM      2  C   UNL     1      -0.150   0.285  -3.614  0.00  0.00    +0.023 A 
ATOM      3  C   UNL     1       0.181   1.131  -4.608  0.00  0.00    +0.133 A 
ATOM      4  N   UNL     1      -0.687   0.948  -5.615  0.00  0.00    -0.220 NA
ATOM      5  C   UNL     1      -1.547   0.026  -5.279  0.00  0.00    +0.251 A 
ENDROOT
BRANCH   5   6
ATOM      6  S   UNL     1      -2.879  -0.550  -6.279  0.00  0.00    +0.030 S 
ATOM      7  O   UNL     1      -2.460  -0.306  -7.615  0.00  0.00    -0.166 OA
ATOM      8  O   UNL     1      -3.125  -1.875  -5.827  0.00  0.00    -0.166 OA
BRANCH   6   9
ATOM      9  C   UNL     1      -4.278   0.524  -5.856  0.00  0.00    +0.179 C 
BRANCH   9  10
ATOM     10  C   UNL     1      -5.503   0.112  -6.674  0.00  0.00    +0.011 C 
ATOM     11  C   UNL     1      -5.585   0.795  -8.049  0.00  0.00    +0.005 C 
ATOM     12  C   UNL     1      -7.098   0.927  -7.806  0.00  0.00    +0.001 C 
ATOM     13  C   UNL     1      -6.780   0.883  -6.302  0.00  0.00    +0.005 C 
ENDBRANCH   9  10
ENDBRANCH   6   9
ENDBRANCH   5   6
BRANCH   1  14
ATOM     14  C   UNL     1      -1.964  -1.446  -3.285  0.00  0.00    +0.125 C 
BRANCH  14  15
ATOM     15  C   UNL     1      -3.075  -0.796  -2.457  0.00  0.00    +0.021 C 
BRANCH  15  17
ATOM     16  C   UNL     1      -4.934  -1.224  -0.843  0.00  0.00    +0.004 C 
ATOM     17  C   UNL     1      -3.823  -1.874  -1.671  0.00  0.00    -0.002 C 
ENDBRANCH  15  17
ENDBRANCH  14  15
ENDBRANCH   1  14
BRANCH   2  18
ATOM     18  C   UNL     1       0.551   0.140  -2.288  0.00  0.00    -0.023 C 
BRANCH  18  20
ATOM     19  C   UNL     1       0.021   2.401  -1.602  0.00  0.00    -0.096 C 
ATOM     20  N   UNL     1      -0.152   0.968  -1.284  0.00  0.00    +0.381 N 
ATOM     21  H   UNL     1      -1.153   0.739  -1.306  0.00  0.00    -0.082 HD
BRANCH  20  22
ATOM     22  C   UNL     1       0.377   0.682   0.066  0.00  0.00    -0.080 C 
BRANCH  22  23
ATOM     23  C   UNL     1      -0.510   1.377   1.101  0.00  0.00    -0.034 C 
BRANCH  23  24
ATOM     24  C   UNL     1       0.011   1.072   2.506  0.00  0.00    -0.073 C 
ATOM     25  C   UNL     1      -0.946   1.663   3.544  0.00  0.00    -0.013 C 
BRANCH  24  30
ATOM     26  C   UNL     1       1.258   3.149   2.757  0.00  0.00    -0.079 C 
ATOM     27  C   UNL     1       2.592   3.543   3.439  0.00  0.00    -0.020 C 
ATOM     28  C   UNL     1       2.804   2.409   4.467  0.00  0.00    -0.020 C 
ATOM     29  C   UNL     1       1.965   1.229   3.942  0.00  0.00    -0.079 C 
ATOM     30  N   UNL     1       1.363   1.683   2.688  0.00  0.00    +0.381 N 
ATOM     31  H   UNL     1       1.962   1.415   1.898  0.00  0.00    -0.081 HD
ENDBRANCH  24  30
ENDBRANCH  23  24
ENDBRANCH  22  23
ENDBRANCH  20  22
ENDBRANCH  18  20
ENDBRANCH   2  18
TORSDOF 12
