REMARK  Name = ZINC64649141
REMARK  4 active torsions:
REMARK  status: ('A' for Active; 'I' for Inactive)
REMARK    1  A    between atoms: C_1  and  C_2
REMARK    2  A    between atoms: C_4  and  C_7
REMARK    3  A    between atoms: C_10  and  C_13
REMARK    4  A    between atoms: C_16  and  C_19
REMARK                            x       y       z     vdW  Elec       q    Type
REMARK                         _______ _______ _______ _____ _____    ______ ____
ROOT
ATOM      1  C   UNL     1      -5.266  -5.782  -0.006  0.00  0.00    +0.168 C 
ATOM      2  N   UNL     1      -5.153  -7.071  -0.003  0.00  0.00    -0.067 NA
ATOM      3  O   UNL     1      -6.425  -7.690  -0.004  0.00  0.00    -0.367 OA
ATOM      4  C   UNL     1      -7.395  -6.632  -0.008  0.00  0.00    +0.318 C 
ATOM      5  N   UNL     1      -6.594  -5.397  -0.003  0.00  0.00    -0.288 N 
ATOM      6  H   UNL     1      -6.933  -4.488  -0.000  0.00  0.00    +0.151 HD
ENDROOT
BRANCH   4   7
ATOM      7  C   UNL     1      -8.268  -6.704   1.246  0.00  0.00    +0.165 C 
ATOM      8  C   UNL     1      -7.416  -6.543   2.485  0.00  0.00    +0.012 C 
ATOM      9  C   UNL     1      -7.568  -7.684   3.195  0.00  0.00    -0.004 A 
ATOM     10  C   UNL     1      -7.011  -8.141   4.474  0.00  0.00    +0.010 A 
ATOM     11  C   UNL     1      -7.356  -9.362   4.941  0.00  0.00    +0.001 A 
ATOM     12  C   UNL     1      -8.230 -10.201   4.235  0.00  0.00    +0.002 A 
ATOM     13  C   UNL     1      -8.781  -9.851   3.054  0.00  0.00    +0.026 A 
ATOM     14  C   UNL     1      -8.488  -8.588   2.470  0.00  0.00    +0.043 A 
ATOM     15  N   UNL     1      -8.891  -8.028   1.353  0.00  0.00    -0.373 N 
ATOM     16  H   UNL     1      -9.498  -8.422   0.708  0.00  0.00    +0.160 HD
ENDBRANCH   4   7
BRANCH   1  20
ATOM     17  C   UNL     1      -1.982  -3.082  -0.006  0.00  0.00    +0.001 A 
ATOM     18  C   UNL     1      -1.753  -4.459  -0.009  0.00  0.00    +0.011 A 
ATOM     19  C   UNL     1      -2.816  -5.333  -0.009  0.00  0.00    +0.012 A 
ATOM     20  C   UNL     1      -4.123  -4.843  -0.006  0.00  0.00    +0.018 A 
ATOM     21  C   UNL     1      -4.352  -3.466  -0.003  0.00  0.00    +0.012 A 
ATOM     22  C   UNL     1      -3.288  -2.592   0.003  0.00  0.00    +0.011 A 
BRANCH  17  26
ATOM     23  C   UNL     1      -0.018   1.503   0.010  0.00  0.00    +0.073 C 
ATOM     24  C   UNL     1       0.002  -0.004   0.002  0.00  0.00    +0.076 A 
ATOM     25  N   UNL     1      -1.013  -0.827   0.002  0.00  0.00    -0.244 NA
ATOM     26  C   UNL     1      -0.837  -2.141  -0.007  0.00  0.00    +0.078 A 
ATOM     27  C   UNL     1       0.460  -2.583  -0.015  0.00  0.00    +0.075 A 
ATOM     28  S   UNL     1       1.337  -1.028  -0.017  0.00  0.00    -0.080 S 
ENDBRANCH  17  26
ENDBRANCH   1  20
TORSDOF 3
