REMARK  Name = ZINC12211985
REMARK  10 active torsions:
REMARK  status: ('A' for Active; 'I' for Inactive)
REMARK    1  A    between atoms: C_1  and  C_2
REMARK    2  A    between atoms: C_2  and  C_3
REMARK    3  A    between atoms: C_3  and  C_14
REMARK    4  A    between atoms: N_6  and  C_10
REMARK    5  A    between atoms: C_10  and  C_11
REMARK    6  A    between atoms: C_11  and  C_13
REMARK    7  A    between atoms: C_19  and  C_20
REMARK    8  A    between atoms: C_19  and  N_69
REMARK    9  A    between atoms: C_22  and  C_25
REMARK   10  A    between atoms: C_25  and  N_71
REMARK                            x       y       z     vdW  Elec       q    Type
REMARK                         _______ _______ _______ _____ _____    ______ ____
ROOT
ATOM      1  C   UNL     1       0.970  -2.049   3.630  0.00  0.00    +0.018 C 
ATOM      2  C   UNL     1      -0.314  -2.412   2.880  0.00  0.00    -0.013 C 
ATOM      3  C   UNL     1      -0.196  -1.953   1.425  0.00  0.00    -0.078 C 
ATOM      4  C   UNL     1       1.274  -0.133   2.058  0.00  0.00    -0.078 C 
ATOM      5  C   UNL     1       1.200  -0.538   3.532  0.00  0.00    -0.013 C 
ATOM      6  N   UNL     1      -0.001  -0.488   1.398  0.00  0.00    +0.383 N 
ATOM      7  H   UNL     1      -0.774  -0.040   1.904  0.00  0.00    -0.081 HD
ENDROOT
BRANCH   1   8
ATOM      8  C   UNL     1       0.835  -2.452   5.100  0.00  0.00    +0.115 C 
ATOM      9  C   UNL     1       0.583  -3.942   5.223  0.00  0.00    +0.247 C 
ATOM     10  O   UNL     1       1.312  -4.840   4.863  0.00  0.00    -0.273 OA
ATOM     11  N   UNL     1      -0.621  -4.059   5.817  0.00  0.00    -0.220 N 
ATOM     12  C   UNL     1      -1.159  -2.863   6.084  0.00  0.00    +0.310 C 
ATOM     13  O   UNL     1      -2.240  -2.713   6.618  0.00  0.00    -0.252 OA
ATOM     14  N   UNL     1      -0.369  -1.847   5.695  0.00  0.00    -0.285 N 
ATOM     15  H   UNL     1      -0.556  -0.899   5.788  0.00  0.00    +0.151 HD
BRANCH   8  17
ATOM     16  C   UNL     1       1.925  -2.465   7.348  0.00  0.00    +0.006 C 
ATOM     17  C   UNL     1       2.086  -2.051   5.884  0.00  0.00    +0.032 C 
ENDBRANCH   8  17
BRANCH  11  18
ATOM     18  C   UNL     1      -1.262  -5.338   6.133  0.00  0.00    +0.148 C 
BRANCH  18  19
ATOM     19  C   UNL     1      -0.852  -5.777   7.516  0.00  0.00    -0.062 C 
ATOM     20  C   UNL     1      -1.615  -5.499   8.544  0.00  0.00    +0.009 C 
ATOM     21  C   UNL     1       0.434  -6.537   7.715  0.00  0.00    +0.040 C 
ENDBRANCH  18  19
ENDBRANCH  11  18
ENDBRANCH   1   8
BRANCH   6  22
ATOM     22  C   UNL     1       0.002  -0.004   0.002  0.00  0.00    -0.036 C 
BRANCH  22  23
ATOM     23  C   UNL     1      -0.018   1.503   0.010  0.00  0.00    -0.027 A 
ATOM     24  C   UNL     1       1.023   2.371   0.005  0.00  0.00    +0.011 A 
ATOM     25  C   UNL     1       0.764   3.728   0.014  0.00  0.00    -0.057 A 
ATOM     26  C   UNL     1      -0.524   4.152   0.028  0.00  0.00    +0.047 A 
ATOM     27  S   UNL     1      -1.420   2.608   0.022  0.00  0.00    -0.103 S 
BRANCH  25  28
ATOM     28  C   UNL     1       1.896   4.723   0.008  0.00  0.00    -0.042 C 
BRANCH  28  34
ATOM     29  C   UNL     1       2.803   3.883  -2.073  0.00  0.00    -0.078 C 
ATOM     30  C   UNL     1       3.024   4.221  -3.549  0.00  0.00    -0.019 C 
ATOM     31  C   UNL     1       3.990   5.405  -3.657  0.00  0.00    -0.004 C 
ATOM     32  C   UNL     1       3.414   6.595  -2.885  0.00  0.00    -0.019 C 
ATOM     33  C   UNL     1       3.181   6.188  -1.428  0.00  0.00    -0.078 C 
ATOM     34  N   UNL     1       2.225   5.061  -1.392  0.00  0.00    +0.382 N 
ATOM     35  H   UNL     1       1.365   5.338  -1.879  0.00  0.00    -0.081 HD
ENDBRANCH  28  34
ENDBRANCH  25  28
ENDBRANCH  22  23
ENDBRANCH   6  22
TORSDOF 8
