REMARK  Name = ZINC20501958
REMARK  6 active torsions:
REMARK  status: ('A' for Active; 'I' for Inactive)
REMARK    1  A    between atoms: C_1  and  C_2
REMARK    2  A    between atoms: C_2  and  C_3
REMARK    3  A    between atoms: C_4  and  C_18
REMARK    4  A    between atoms: C_5  and  C_16
REMARK    5  A    between atoms: C_8  and  C_9
REMARK    6  A    between atoms: C_21  and  C_23
REMARK                            x       y       z     vdW  Elec       q    Type
REMARK                         _______ _______ _______ _____ _____    ______ ____
ROOT
ATOM      1  C   UNL     1      -3.452  -0.005   4.352  0.00  0.00    -0.010 A 
ATOM      2  C   UNL     1      -2.385   0.898   4.372  0.00  0.00    +0.043 A 
ATOM      3  C   UNL     1      -2.065   1.524   5.600  0.00  0.00    +0.102 A 
ATOM      4  C   UNL     1      -2.836   1.221   6.736  0.00  0.00    +0.135 A 
ATOM      5  N   UNL     1      -3.835   0.359   6.660  0.00  0.00    -0.231 NA
ATOM      6  C   UNL     1      -4.157  -0.250   5.524  0.00  0.00    +0.077 A 
ATOM      7  N   UNL     1      -2.542   1.827   7.945  0.00  0.00    -0.342 N 
ATOM      8  H   UNL     1      -3.142   1.594   8.837  0.00  0.00    +0.144 HD
ATOM      9  H   UNL     1      -1.709   2.542   8.014  0.00  0.00    +0.144 HD
ENDROOT
BRANCH   6  10
ATOM     10  C   UNL     1      -5.289  -1.207   5.506  0.00  0.00    +0.001 A 
ATOM     11  C   UNL     1      -6.297  -1.082   4.551  0.00  0.00    +0.010 A 
ATOM     12  C   UNL     1      -7.345  -1.980   4.536  0.00  0.00    +0.001 A 
ATOM     13  C   UNL     1      -7.403  -2.994   5.474  0.00  0.00    +0.000 A 
ATOM     14  C   UNL     1      -6.410  -3.120   6.428  0.00  0.00    +0.001 A 
ATOM     15  C   UNL     1      -5.353  -2.232   6.449  0.00  0.00    +0.010 A 
ENDBRANCH   6  10
BRANCH   2  16
ATOM     16  C   UNL     1      -1.612   1.185   3.151  0.00  0.00    +0.137 A 
ATOM     17  C   UNL     1      -1.551   2.383   2.506  0.00  0.00    +0.050 A 
ATOM     18  C   UNL     1      -0.699   2.205   1.401  0.00  0.00    +0.045 A 
ATOM     19  C   UNL     1      -0.291   0.919   1.418  0.00  0.00    +0.103 A 
ATOM     20  O   UNL     1      -0.842   0.307   2.478  0.00  0.00    -0.460 OA
ATOM     21  C   UNL     1       0.636   0.278   0.418  0.00  0.00    +0.086 C 
ENDBRANCH   2  16
BRANCH   1  23
ATOM     22  C   UNL     1      -3.169  -2.084   3.029  0.00  0.00    +0.009 C 
ATOM     23  C   UNL     1      -3.833  -0.706   3.073  0.00  0.00    +0.034 C 
ENDBRANCH   1  23
BRANCH   3  24
ATOM     24  C   UNL     1      -0.979   2.453   5.682  0.00  0.00    +0.103 C 
ATOM     25  N   UNL     1      -0.117   3.191   5.748  0.00  0.00    -0.191 NA
ENDBRANCH   3  24
TORSDOF 4
