REMARK  Name = ZINC11531189
REMARK  4 active torsions:
REMARK  status: ('A' for Active; 'I' for Inactive)
REMARK    1  A    between atoms: C_6  and  C_7
REMARK    2  A    between atoms: N_10  and  C_12
REMARK    3  A    between atoms: C_12  and  C_13
REMARK    4  A    between atoms: N_18  and  C_19
REMARK                            x       y       z     vdW  Elec       q    Type
REMARK                         _______ _______ _______ _____ _____    ______ ____
ROOT
ATOM      1  C   UNL     1      -0.014   1.208   0.009  0.00  0.00    +0.244 C 
ATOM      2  O   UNL     1       0.002  -0.004   0.002  0.00  0.00    -0.273 OA
ATOM      3  N   UNL     1       1.143   1.898   0.001  0.00  0.00    -0.239 N 
ATOM      4  C   UNL     1       2.320   1.240  -0.013  0.00  0.00    +0.306 C 
ATOM      5  O   UNL     1       2.336   0.025  -0.020  0.00  0.00    -0.252 OA
ATOM      6  N   UNL     1       3.478   1.930  -0.021  0.00  0.00    -0.294 N 
ATOM      7  H   UNL     1       1.130   2.868   0.007  0.00  0.00    +0.159 HD
ATOM      8  H   UNL     1       3.465   2.900  -0.015  0.00  0.00    +0.151 HD
ENDROOT
BRANCH   6   9
ATOM      9  C   UNL     1       4.756   1.214  -0.037  0.00  0.00    +0.037 C 
ATOM     10  C   UNL     1       4.861   0.329   1.207  0.00  0.00    +0.029 C 
ATOM     11  C   UNL     1       6.196  -0.417   1.190  0.00  0.00    -0.008 C 
ATOM     12  C   UNL     1       7.346   0.592   1.184  0.00  0.00    +0.007 C 
ATOM     13  C   UNL     1       7.241   1.478  -0.059  0.00  0.00    -0.008 C 
ATOM     14  C   UNL     1       5.905   2.224  -0.042  0.00  0.00    +0.029 C 
ATOM     15  C   UNL     1       7.322   0.606  -1.314  0.00  0.00    +0.007 C 
ATOM     16  C   UNL     1       6.172  -0.404  -1.308  0.00  0.00    -0.008 C 
ATOM     17  C   UNL     1       6.277  -1.289  -0.065  0.00  0.00    +0.007 C 
ATOM     18  C   UNL     1       4.837   0.343  -1.292  0.00  0.00    +0.029 C 
ENDBRANCH   6   9
BRANCH   1  19
ATOM     19  C   UNL     1      -1.330   1.944   0.019  0.00  0.00    +0.264 C 
BRANCH  19  23
ATOM     20  C   UNL     1      -3.937  -0.342  -0.635  0.00  0.00    +0.205 A 
ATOM     21  N   UNL     1      -3.916  -0.335   0.705  0.00  0.00    -0.108 NA
ATOM     22  N   UNL     1      -2.985   0.480   1.069  0.00  0.00    -0.045 NA
ATOM     23  N   UNL     1      -2.430   0.977   0.019  0.00  0.00    -0.154 N 
ATOM     24  N   UNL     1      -2.998   0.494  -1.032  0.00  0.00    -0.130 NA
BRANCH  20  30
ATOM     25  C   UNL     1      -4.752  -1.028  -2.890  0.00  0.00    +0.013 A 
ATOM     26  C   UNL     1      -5.596  -1.768  -3.693  0.00  0.00    +0.021 A 
ATOM     27  C   UNL     1      -6.542  -2.603  -3.124  0.00  0.00    +0.041 A 
ATOM     28  C   UNL     1      -6.642  -2.705  -1.747  0.00  0.00    +0.021 A 
ATOM     29  C   UNL     1      -5.799  -1.974  -0.935  0.00  0.00    +0.013 A 
ATOM     30  C   UNL     1      -4.846  -1.131  -1.504  0.00  0.00    +0.023 A 
ATOM     31 CL   UNL     1      -7.605  -3.526  -4.139  0.00  0.00    -0.084 Cl
ENDBRANCH  20  30
ENDBRANCH  19  23
ENDBRANCH   1  19
TORSDOF 4
