REMARK  Name = ZINC39485165
REMARK  5 active torsions:
REMARK  status: ('A' for Active; 'I' for Inactive)
REMARK    1  A    between atoms: C_1  and  O_2
REMARK    2  A    between atoms: O_2  and  C_3
REMARK    3  A    between atoms: C_5  and  C_10
REMARK    4  A    between atoms: C_8  and  O_9
REMARK    5  A    between atoms: N_19  and  C_20
REMARK                            x       y       z     vdW  Elec       q    Type
REMARK                         _______ _______ _______ _____ _____    ______ ____
ROOT
ATOM      1  C   UNL     1       2.403   0.379  -4.230  0.00  0.00    +0.205 C 
ATOM      2  N   UNL     1       3.577  -0.325  -4.819  0.00  0.00    -0.267 NA
ATOM      3  C   UNL     1       4.414   0.814  -5.221  0.00  0.00    +0.212 C 
ATOM      4  C   UNL     1       4.099   1.883  -4.175  0.00  0.00    +0.094 C 
ATOM      5  N   UNL     1       2.938   1.633  -3.674  0.00  0.00    -0.260 NA
ATOM      6  C   UNL     1       5.348   2.645  -4.131  0.00  0.00    +0.156 C 
ATOM      7  N   UNL     1       6.317   1.870  -4.535  0.00  0.00    -0.189 NA
ATOM      8  N   UNL     1       5.853   0.618  -5.025  0.00  0.00    -0.229 N 
ATOM      9  H   UNL     1       4.044  -0.890  -4.126  0.00  0.00    +0.126 HD
ENDROOT
BRANCH   1  12
ATOM     10  C   UNL     1       0.606  -0.608  -1.056  0.00  0.00    +0.162 A 
ATOM     11  C   UNL     1       1.173   0.159  -2.062  0.00  0.00    +0.056 A 
ATOM     12  C   UNL     1       1.787  -0.456  -3.137  0.00  0.00    -0.005 A 
ATOM     13  C   UNL     1       1.837  -1.836  -3.212  0.00  0.00    +0.011 A 
ATOM     14  C   UNL     1       1.273  -2.606  -2.212  0.00  0.00    +0.049 A 
ATOM     15  C   UNL     1       0.662  -1.996  -1.129  0.00  0.00    +0.158 A 
BRANCH  10  17
ATOM     16  C   UNL     1      -0.017   1.425   0.010  0.00  0.00    +0.277 C 
ATOM     17  O   UNL     1       0.002  -0.004   0.002  0.00  0.00    -0.491 OA
ENDBRANCH  10  17
BRANCH  15  18
ATOM     18  O   UNL     1       0.112  -2.753  -0.142  0.00  0.00    -0.503 OA
ATOM     19  H   UNL     1      -0.816  -2.979  -0.291  0.00  0.00    +0.292 HD
ENDBRANCH  15  18
ENDBRANCH   1  12
BRANCH   8  20
ATOM     20  C   UNL     1       6.626  -0.602  -5.269  0.00  0.00    +0.095 C 
ATOM     21  C   UNL     1       7.286  -1.058  -3.966  0.00  0.00    +0.024 C 
ATOM     22  C   UNL     1       8.094  -2.332  -4.221  0.00  0.00    +0.002 C 
ATOM     23  C   UNL     1       9.174  -2.050  -5.268  0.00  0.00    +0.000 C 
ATOM     24  C   UNL     1       8.514  -1.594  -6.571  0.00  0.00    +0.002 C 
ATOM     25  C   UNL     1       7.706  -0.320  -6.316  0.00  0.00    +0.024 C 
ENDBRANCH   8  20
TORSDOF 4
