REMARK  Name = ZINC09046137
REMARK  10 active torsions:
REMARK  status: ('A' for Active; 'I' for Inactive)
REMARK    1  A    between atoms: C_1  and  C_2
REMARK    2  A    between atoms: C_2  and  O_3
REMARK    3  A    between atoms: O_3  and  C_4
REMARK    4  A    between atoms: C_9  and  O_10
REMARK    5  A    between atoms: O_10  and  C_11
REMARK    6  A    between atoms: C_16  and  C_17
REMARK    7  A    between atoms: C_20  and  O_24
REMARK    8  A    between atoms: C_22  and  O_23
REMARK    9  A    between atoms: O_24  and  C_25
REMARK   10  A    between atoms: C_25  and  C_26
REMARK                            x       y       z     vdW  Elec       q    Type
REMARK                         _______ _______ _______ _____ _____    ______ ____
ROOT
ATOM      1  C   UNL     1      -7.262   5.536   1.052  0.00  0.00    +0.173 A 
ATOM      2  C   UNL     1      -8.307   6.388   1.380  0.00  0.00    +0.162 A 
ATOM      3  N   UNL     1      -8.710   6.463   2.639  0.00  0.00    -0.219 NA
ATOM      4  C   UNL     1      -8.134   5.735   3.585  0.00  0.00    +0.213 A 
ATOM      5  N   UNL     1      -7.139   4.906   3.319  0.00  0.00    -0.211 NA
ATOM      6  C   UNL     1      -6.678   4.775   2.076  0.00  0.00    +0.122 A 
ATOM      7  N   UNL     1      -8.589   5.846   4.890  0.00  0.00    -0.327 N 
ATOM      8  H   UNL     1      -8.177   5.319   5.593  0.00  0.00    +0.145 HD
ATOM      9  H   UNL     1      -9.318   6.450   5.100  0.00  0.00    +0.145 HD
ENDROOT
BRANCH   6  10
ATOM     10  C   UNL     1      -5.563   3.847   1.780  0.00  0.00    +0.046 A 
ATOM     11  C   UNL     1      -5.659   2.956   0.711  0.00  0.00    +0.017 A 
ATOM     12  C   UNL     1      -4.617   2.097   0.436  0.00  0.00    +0.046 A 
ATOM     13  C   UNL     1      -3.474   2.107   1.227  0.00  0.00    +0.124 A 
ATOM     14  C   UNL     1      -3.371   2.989   2.292  0.00  0.00    +0.091 A 
ATOM     15  C   UNL     1      -4.409   3.860   2.573  0.00  0.00    +0.130 A 
BRANCH  15  16
ATOM     16  O   UNL     1      -4.310   4.725   3.616  0.00  0.00    -0.506 OA
ATOM     17  H   UNL     1      -3.920   5.579   3.383  0.00  0.00    +0.292 HD
ENDBRANCH  15  16
BRANCH  13  18
ATOM     18  O   UNL     1      -2.454   1.254   0.953  0.00  0.00    -0.487 OA
BRANCH  18  19
ATOM     19  C   UNL     1      -2.626   0.371  -0.158  0.00  0.00    +0.264 C 
BRANCH  19  20
ATOM     20  C   UNL     1      -1.401  -0.493  -0.308  0.00  0.00    -0.010 A 
ATOM     21  C   UNL     1      -0.353  -0.075  -1.106  0.00  0.00    +0.008 A 
ATOM     22  C   UNL     1       0.768  -0.870  -1.248  0.00  0.00    +0.020 A 
ATOM     23  C   UNL     1       0.842  -2.085  -0.591  0.00  0.00    +0.041 A 
ATOM     24  C   UNL     1      -0.207  -2.504   0.208  0.00  0.00    +0.020 A 
ATOM     25  C   UNL     1      -1.328  -1.708   0.349  0.00  0.00    +0.008 A 
ATOM     26 CL   UNL     1       2.250  -3.084  -0.769  0.00  0.00    -0.084 Cl
ENDBRANCH  19  20
ENDBRANCH  18  19
ENDBRANCH  13  18
ENDBRANCH   6  10
BRANCH   1  27
ATOM     27  O   UNL     1      -6.819   5.437  -0.229  0.00  0.00    -0.449 OA
BRANCH  27  33
ATOM     28  C   UNL     1      -5.318   6.191  -1.920  0.00  0.00    +0.163 A 
ATOM     29  C   UNL     1      -4.253   6.993  -2.299  0.00  0.00    +0.049 A 
ATOM     30  C   UNL     1      -3.648   7.822  -1.373  0.00  0.00    +0.004 A 
ATOM     31  C   UNL     1      -4.102   7.852  -0.067  0.00  0.00    +0.004 A 
ATOM     32  C   UNL     1      -5.166   7.058   0.317  0.00  0.00    +0.050 A 
ATOM     33  C   UNL     1      -5.775   6.221  -0.606  0.00  0.00    +0.170 A 
BRANCH  28  34
ATOM     34  O   UNL     1      -5.915   5.376  -2.831  0.00  0.00    -0.489 OA
BRANCH  34  36
ATOM     35  C   UNL     1      -6.186   4.424  -5.035  0.00  0.00    +0.048 C 
ATOM     36  C   UNL     1      -5.393   5.397  -4.161  0.00  0.00    +0.226 C 
ENDBRANCH  34  36
ENDBRANCH  28  34
ENDBRANCH  27  33
ENDBRANCH   1  27
TORSDOF 9
