REMARK  Name = ZINC08666726
REMARK  9 active torsions:
REMARK  status: ('A' for Active; 'I' for Inactive)
REMARK    1  A    between atoms: C_1  and  C_2
REMARK    2  A    between atoms: C_5  and  C_37
REMARK    3  A    between atoms: N_8  and  C_10
REMARK    4  A    between atoms: C_13  and  C_19
REMARK    5  A    between atoms: C_15  and  N_16
REMARK    6  A    between atoms: C_19  and  O_21
REMARK    7  A    between atoms: O_21  and  C_22
REMARK    8  A    between atoms: C_22  and  C_23
REMARK    9  A    between atoms: N_25  and  C_26
REMARK                            x       y       z     vdW  Elec       q    Type
REMARK                         _______ _______ _______ _____ _____    ______ ____
ROOT
ATOM      1  C   UNL     1       4.592   2.746   5.350  0.00  0.00    +0.340 C 
ATOM      2  O   UNL     1       5.153   2.148   6.247  0.00  0.00    -0.245 OA
ENDROOT
BRANCH   1   6
ATOM      3  C   UNL     1       2.756   0.598   2.188  0.00  0.00    +0.060 A 
ATOM      4  C   UNL     1       2.717   1.990   2.202  0.00  0.00    +0.026 A 
ATOM      5  C   UNL     1       3.307   2.684   3.219  0.00  0.00    +0.017 A 
ATOM      6  C   UNL     1       3.954   1.997   4.252  0.00  0.00    +0.061 A 
ATOM      7  C   UNL     1       3.994   0.599   4.241  0.00  0.00    +0.049 A 
ATOM      8  C   UNL     1       3.393  -0.094   3.215  0.00  0.00    +0.148 A 
BRANCH   3  14
ATOM      9  C   UNL     1      -0.019   1.526   0.010  0.00  0.00    +0.009 C 
ATOM     10  C   UNL     1       0.002  -0.004   0.002  0.00  0.00    +0.003 C 
ATOM     11  C   UNL     1       0.720  -0.498  -1.256  0.00  0.00    +0.009 C 
ATOM     12  C   UNL     1       2.145   0.059  -1.285  0.00  0.00    +0.003 C 
ATOM     13  C   UNL     1       2.912  -0.448  -0.060  0.00  0.00    +0.108 C 
ATOM     14  N   UNL     1       2.153  -0.103   1.150  0.00  0.00    -0.328 N 
ATOM     15  C   UNL     1       0.744  -0.512   1.242  0.00  0.00    +0.108 C 
ATOM     16  C   UNL     1       2.850  -0.408  -2.559  0.00  0.00    +0.009 C 
ENDBRANCH   3  14
BRANCH   8  17
ATOM     17  N   UNL     1       3.428  -1.574   3.201  0.00  0.00    +0.058 N 
ATOM     18  O   UNL     1       3.981  -2.174   4.093  0.00  0.00    -0.126 OA
ATOM     19  O   UNL     1       2.904  -2.182   2.297  0.00  0.00    -0.126 OA
ENDBRANCH   8  17
ENDBRANCH   1   6
BRANCH   1  20
ATOM     20  O   UNL     1       4.552   4.093   5.359  0.00  0.00    -0.452 OA
BRANCH  20  21
ATOM     21  C   UNL     1       5.191   4.753   6.454  0.00  0.00    +0.328 C 
BRANCH  21  22
ATOM     22  C   UNL     1       5.045   6.245   6.295  0.00  0.00    +0.251 C 
ATOM     23  O   UNL     1       4.453   6.697   5.339  0.00  0.00    -0.272 OA
ATOM     24  N   UNL     1       5.573   7.075   7.216  0.00  0.00    -0.306 N 
ATOM     25  H   UNL     1       6.047   6.713   7.981  0.00  0.00    +0.149 HD
BRANCH  24  26
ATOM     26  C   UNL     1       5.432   8.525   7.061  0.00  0.00    +0.104 C 
ATOM     27  C   UNL     1       6.576   9.223   7.793  0.00  0.00    +0.027 C 
ATOM     28  C   UNL     1       6.293  10.730   7.806  0.00  0.00    +0.007 C 
ATOM     29  C   UNL     1       5.112  10.990   8.738  0.00  0.00    +0.035 C 
ATOM     30  C   UNL     1       3.955  10.091   8.390  0.00  0.00    -0.042 A 
ATOM     31  C   UNL     1       4.103   8.957   7.624  0.00  0.00    -0.024 A 
ATOM     32  C   UNL     1       2.995   8.167   7.345  0.00  0.00    +0.006 A 
ATOM     33  C   UNL     1       1.749   8.511   7.827  0.00  0.00    +0.000 A 
ATOM     34  C   UNL     1       1.601   9.652   8.594  0.00  0.00    +0.000 A 
ATOM     35  C   UNL     1       2.699  10.437   8.872  0.00  0.00    +0.004 A 
ENDBRANCH  24  26
ENDBRANCH  21  22
ENDBRANCH  20  21
ENDBRANCH   1  20
TORSDOF 7
