REMARK  Name = ZINC36150438
REMARK  3 active torsions:
REMARK  status: ('A' for Active; 'I' for Inactive)
REMARK    1  A    between atoms: C_6  and  N_7
REMARK    2  A    between atoms: N_7  and  S_8
REMARK    3  A    between atoms: S_8  and  C_11
REMARK                            x       y       z     vdW  Elec       q    Type
REMARK                         _______ _______ _______ _____ _____    ______ ____
ROOT
ATOM      1  N   UNL     1      -1.200  -0.720   0.010  0.00  0.00    -0.220 N 
ATOM      2  H   UNL     1      -1.307  -1.482   0.601  0.00  0.00    +0.173 HD
ENDROOT
BRANCH   1   8
ATOM      3  C   UNL     1      -0.017   1.384   0.010  0.00  0.00    +0.028 A 
ATOM      4  C   UNL     1       1.170   2.093   0.002  0.00  0.00    +0.051 A 
ATOM      5  C   UNL     1       2.381   1.421  -0.013  0.00  0.00    +0.166 A 
ATOM      6  C   UNL     1       2.403   0.028  -0.021  0.00  0.00    +0.168 A 
ATOM      7  C   UNL     1       1.214  -0.682  -0.013  0.00  0.00    +0.074 A 
ATOM      8  C   UNL     1       0.002  -0.004   0.002  0.00  0.00    +0.051 A 
ATOM      9  O   UNL     1       3.703  -0.388  -0.036  0.00  0.00    -0.453 OA
ATOM     10  C   UNL     1       4.469   0.759  -0.450  0.00  0.00    +0.466 C 
ATOM     11  O   UNL     1       3.669   1.877  -0.023  0.00  0.00    -0.453 OA
ENDBRANCH   1   8
BRANCH   1  12
ATOM     12  S   UNL     1      -2.440  -0.267  -0.990  0.00  0.00    +0.046 S 
ATOM     13  O   UNL     1      -3.489  -1.182  -0.704  0.00  0.00    -0.155 OA
ATOM     14  O   UNL     1      -2.607   1.124  -0.753  0.00  0.00    -0.155 OA
BRANCH  12  15
ATOM     15  C   UNL     1      -1.810  -0.544  -2.669  0.00  0.00    +0.151 C 
ATOM     16  C   UNL     1      -0.519   0.271  -2.890  0.00  0.00    +0.028 C 
ATOM     17  C   UNL     1      -0.617   0.745  -4.361  0.00  0.00    +0.002 C 
ATOM     18  C   UNL     1      -2.125   1.063  -4.519  0.00  0.00    +0.002 C 
ATOM     19  C   UNL     1      -2.831  -0.041  -3.704  0.00  0.00    +0.028 C 
ENDBRANCH  12  15
ENDBRANCH   1  12
TORSDOF 3
