REMARK  Name = ZINC06894789
REMARK  5 active torsions:
REMARK  status: ('A' for Active; 'I' for Inactive)
REMARK    1  A    between atoms: C_1  and  N_2
REMARK    2  A    between atoms: C_12  and  C_20
REMARK    3  A    between atoms: N_22  and  C_23
REMARK    4  A    between atoms: C_23  and  C_24
REMARK    5  A    between atoms: C_24  and  C_25
REMARK                            x       y       z     vdW  Elec       q    Type
REMARK                         _______ _______ _______ _____ _____    ______ ____
ROOT
ATOM      1  C   UNL     1       3.127   5.588  -0.252  0.00  0.00    +0.138 C 
ATOM      2  N   UNL     1       3.405   4.160  -0.427  0.00  0.00    -0.275 N 
ATOM      3  C   UNL     1       3.874   3.598  -1.616  0.00  0.00    +0.038 A 
ATOM      4  C   UNL     1       4.178   4.184  -2.842  0.00  0.00    +0.024 A 
ATOM      5  C   UNL     1       4.635   3.409  -3.888  0.00  0.00    +0.002 A 
ATOM      6  C   UNL     1       4.795   2.045  -3.728  0.00  0.00    +0.000 A 
ATOM      7  C   UNL     1       4.495   1.454  -2.513  0.00  0.00    +0.004 A 
ATOM      8  C   UNL     1       4.038   2.224  -1.467  0.00  0.00    -0.027 A 
ATOM      9  C   UNL     1       3.631   1.911  -0.054  0.00  0.00    +0.052 C 
ATOM     10  C   UNL     1       3.236   3.238   0.539  0.00  0.00    +0.214 C 
ATOM     11  O   UNL     1       2.842   3.437   1.669  0.00  0.00    -0.276 OA
ATOM     12  C   UNL     1       2.462   0.920  -0.017  0.00  0.00    +0.076 C 
ATOM     13  C   UNL     1       2.664   0.145   1.302  0.00  0.00    -0.003 C 
ATOM     14  C   UNL     1       4.113   0.417   1.724  0.00  0.00    -0.066 C 
ATOM     15  C   UNL     1       5.498   0.395  -0.201  0.00  0.00    -0.077 C 
ATOM     16  C   UNL     1       6.062  -0.691   0.746  0.00  0.00    -0.020 C 
ATOM     17  C   UNL     1       4.913  -0.894   1.761  0.00  0.00    -0.017 C 
ATOM     18  N   UNL     1       4.710   1.258   0.700  0.00  0.00    +0.394 N 
ATOM     19  H   UNL     1       5.316   1.967   1.129  0.00  0.00    -0.079 HD
ENDROOT
BRANCH  12  20
ATOM     20  C   UNL     1       1.147   1.655   0.000  0.00  0.00    +0.216 C 
ATOM     21  O   UNL     1       0.627   1.946   1.057  0.00  0.00    -0.276 OA
ATOM     22  N   UNL     1       0.548   1.991  -1.160  0.00  0.00    -0.315 N 
ATOM     23  H   UNL     1       0.963   1.759  -2.005  0.00  0.00    +0.149 HD
BRANCH  22  24
ATOM     24  C   UNL     1      -0.728   2.712  -1.144  0.00  0.00    +0.109 C 
BRANCH  24  25
ATOM     25  C   UNL     1      -1.183   2.974  -2.580  0.00  0.00    +0.054 C 
BRANCH  25  26
ATOM     26  C   UNL     1      -2.495   3.715  -2.564  0.00  0.00    -0.046 A 
ATOM     27  C   UNL     1      -3.686   3.012  -2.566  0.00  0.00    +0.005 A 
ATOM     28  C   UNL     1      -4.890   3.691  -2.545  0.00  0.00    +0.020 A 
ATOM     29  C   UNL     1      -4.903   5.075  -2.534  0.00  0.00    +0.041 A 
ATOM     30  C   UNL     1      -3.711   5.777  -2.538  0.00  0.00    +0.020 A 
ATOM     31  C   UNL     1      -2.508   5.097  -2.553  0.00  0.00    +0.005 A 
ATOM     32 CL   UNL     1      -6.414   5.928  -2.514  0.00  0.00    -0.084 Cl
ENDBRANCH  25  26
ENDBRANCH  24  25
ENDBRANCH  22  24
ENDBRANCH  12  20
TORSDOF 4
