REMARK  Name = ZINC10341113
REMARK  3 active torsions:
REMARK  status: ('A' for Active; 'I' for Inactive)
REMARK    1  A    between atoms: C_12  and  N_17
REMARK    2  A    between atoms: C_18  and  C_20
REMARK    3  A    between atoms: C_20  and  N_21
REMARK                            x       y       z     vdW  Elec       q    Type
REMARK                         _______ _______ _______ _____ _____    ______ ____
ROOT
ATOM      1  C   UNL     1      -2.119  -2.443   1.578  0.00  0.00    +0.001 A 
ATOM      2  C   UNL     1      -1.968  -3.602   2.318  0.00  0.00    +0.001 A 
ATOM      3  C   UNL     1      -0.766  -4.288   2.307  0.00  0.00    +0.012 A 
ATOM      4  C   UNL     1       0.298  -3.811   1.547  0.00  0.00    +0.033 A 
ATOM      5  C   UNL     1       0.145  -2.634   0.794  0.00  0.00    +0.033 A 
ATOM      6  C   UNL     1      -1.071  -1.956   0.817  0.00  0.00    +0.012 A 
ATOM      7  C   UNL     1       1.270  -2.120  -0.015  0.00  0.00    +0.195 C 
ATOM      8  O   UNL     1       1.136  -1.102  -0.665  0.00  0.00    -0.287 OA
ATOM      9  C   UNL     1       2.555  -2.844  -0.033  0.00  0.00    +0.033 A 
ATOM     10  C   UNL     1       3.620  -2.363  -0.795  0.00  0.00    +0.014 A 
ATOM     11  C   UNL     1       4.821  -3.043  -0.808  0.00  0.00    +0.024 A 
ATOM     12  C   UNL     1       4.978  -4.208  -0.066  0.00  0.00    +0.034 A 
ATOM     13  C   UNL     1       3.923  -4.700   0.699  0.00  0.00    +0.035 A 
ATOM     14  C   UNL     1       2.710  -4.023   0.720  0.00  0.00    +0.035 A 
ATOM     15  C   UNL     1       1.585  -4.538   1.529  0.00  0.00    +0.195 C 
ATOM     16  O   UNL     1       1.719  -5.555   2.180  0.00  0.00    -0.287 OA
ENDROOT
BRANCH  12  17
ATOM     17  N   UNL     1       6.196  -4.887  -0.088  0.00  0.00    -0.287 N 
ATOM     18  C   UNL     1       6.220  -6.231   0.006  0.00  0.00    +0.201 C 
ATOM     19  O   UNL     1       5.181  -6.857   0.012  0.00  0.00    -0.278 OA
ATOM     20  H   UNL     1       7.026  -4.392  -0.170  0.00  0.00    +0.155 HD
BRANCH  18  21
ATOM     21  C   UNL     1       7.537  -6.957   0.102  0.00  0.00    +0.019 C 
BRANCH  21  22
ATOM     22  N   UNL     1       7.294  -8.403   0.193  0.00  0.00    +0.388 N 
ATOM     23  C   UNL     1       8.568  -9.092   0.439  0.00  0.00    -0.073 C 
ATOM     24  C   UNL     1       8.276 -10.542   0.860  0.00  0.00    +0.024 C 
ATOM     25  C   UNL     1       7.274 -11.097  -0.099  0.00  0.00    -0.011 A 
ATOM     26  C   UNL     1       6.528 -10.386  -0.991  0.00  0.00    -0.054 A 
ATOM     27  C   UNL     1       5.657 -11.116  -1.795  0.00  0.00    +0.009 A 
ATOM     28  C   UNL     1       5.582 -12.461  -1.663  0.00  0.00    +0.045 A 
ATOM     29  S   UNL     1       6.769 -12.772  -0.364  0.00  0.00    -0.101 S 
ATOM     30  C   UNL     1       6.681  -8.869  -1.056  0.00  0.00    -0.042 C 
ATOM     31  H   UNL     1       6.665  -8.586   0.960  0.00  0.00    -0.081 HD
ENDBRANCH  21  22
ENDBRANCH  18  21
ENDBRANCH  12  17
TORSDOF 3
