REMARK  Name = ZINC09482697
REMARK  6 active torsions:
REMARK  status: ('A' for Active; 'I' for Inactive)
REMARK    1  A    between atoms: C_1  and  C_2
REMARK    2  A    between atoms: C_5  and  C_8
REMARK    3  A    between atoms: C_13  and  C_17
REMARK    4  A    between atoms: C_13  and  C_18
REMARK    5  A    between atoms: C_27  and  C_29
REMARK    6  A    between atoms: C_29  and  N_69
REMARK                            x       y       z     vdW  Elec       q    Type
REMARK                         _______ _______ _______ _____ _____    ______ ____
ROOT
ATOM      1  C   UNL     1      -2.718   2.949   4.763  0.00  0.00    +0.146 C 
ATOM      2  C   UNL     1      -2.780   4.456   4.718  0.00  0.00    +0.037 C 
ATOM      3  C   UNL     1      -3.888   5.194   4.527  0.00  0.00    +0.017 C 
ATOM      4  C   UNL     1      -3.812   6.712   4.518  0.00  0.00    +0.058 C 
ATOM      5  C   UNL     1      -2.463   7.164   3.962  0.00  0.00    -0.023 C 
ATOM      6  C   UNL     1      -1.368   6.578   4.861  0.00  0.00    +0.086 C 
ATOM      7  C   UNL     1      -1.527   5.088   4.896  0.00  0.00    +0.163 C 
ATOM      8  O   UNL     1      -0.544   4.398   5.085  0.00  0.00    -0.292 OA
ATOM      9  C   UNL     1      -2.292   6.646   2.532  0.00  0.00    +0.011 C 
ATOM     10  C   UNL     1      -2.383   8.692   3.973  0.00  0.00    +0.011 C 
ATOM     11  N   UNL     1      -5.133   4.685   4.349  0.00  0.00    -0.316 N 
ATOM     12  C   UNL     1      -5.450   3.637   3.494  0.00  0.00    +0.053 A 
ATOM     13  C   UNL     1      -6.261   3.805   2.384  0.00  0.00    +0.025 A 
ATOM     14  C   UNL     1      -6.575   2.707   1.602  0.00  0.00    +0.002 A 
ATOM     15  C   UNL     1      -6.085   1.455   1.927  0.00  0.00    +0.002 A 
ATOM     16  C   UNL     1      -5.260   1.289   3.026  0.00  0.00    +0.025 A 
ATOM     17  C   UNL     1      -4.925   2.390   3.797  0.00  0.00    +0.058 A 
ATOM     18  N   UNL     1      -4.007   2.297   4.841  0.00  0.00    -0.259 N 
ATOM     19  C   UNL     1      -4.326   1.583   5.939  0.00  0.00    +0.204 C 
ATOM     20  O   UNL     1      -3.534   1.491   6.853  0.00  0.00    -0.277 OA
ATOM     21  H   UNL     1      -5.857   5.083   4.857  0.00  0.00    +0.152 HD
ENDROOT
BRANCH   1  26
ATOM     22  C   UNL     1      -0.014   1.086   0.007  0.00  0.00    +0.044 C 
ATOM     23  C   UNL     1      -0.719   1.572   1.247  0.00  0.00    -0.050 A 
ATOM     24  C   UNL     1      -1.918   2.251   1.139  0.00  0.00    +0.004 A 
ATOM     25  C   UNL     1      -2.567   2.693   2.277  0.00  0.00    +0.006 A 
ATOM     26  C   UNL     1      -2.012   2.464   3.522  0.00  0.00    -0.022 A 
ATOM     27  C   UNL     1      -0.810   1.789   3.630  0.00  0.00    +0.006 A 
ATOM     28  C   UNL     1      -0.164   1.344   2.493  0.00  0.00    +0.004 A 
ENDBRANCH   1  26
BRANCH  19  29
ATOM     29  C   UNL     1      -5.666   0.900   6.031  0.00  0.00    +0.019 C 
BRANCH  29  35
ATOM     30  C   UNL     1      -4.802  -0.909   7.388  0.00  0.00    -0.078 C 
ATOM     31  C   UNL     1      -4.836  -1.527   8.787  0.00  0.00    -0.019 C 
ATOM     32  C   UNL     1      -6.249  -2.041   9.079  0.00  0.00    -0.004 C 
ATOM     33  C   UNL     1      -7.242  -0.882   8.950  0.00  0.00    -0.019 C 
ATOM     34  C   UNL     1      -7.138  -0.283   7.545  0.00  0.00    -0.078 C 
ATOM     35  N   UNL     1      -5.762   0.215   7.336  0.00  0.00    +0.385 N 
ATOM     36  H   UNL     1      -5.532   0.883   8.081  0.00  0.00    -0.081 HD
ENDBRANCH  29  35
ENDBRANCH  19  29
TORSDOF 3
