REMARK  Name = ZINC64958725
REMARK  4 active torsions:
REMARK  status: ('A' for Active; 'I' for Inactive)
REMARK    1  A    between atoms: C_6  and  C_7
REMARK    2  A    between atoms: C_20  and  C_23
REMARK    3  A    between atoms: N_25  and  C_26
REMARK    4  A    between atoms: C_26  and  C_27
REMARK                            x       y       z     vdW  Elec       q    Type
REMARK                         _______ _______ _______ _____ _____    ______ ____
ROOT
ATOM      1  C   UNL     1      -1.422  -0.854   1.094  0.00  0.00    +0.094 A 
ATOM      2  C   UNL     1      -1.504  -2.225   0.841  0.00  0.00    +0.061 A 
ATOM      3  C   UNL     1      -2.793  -2.495   0.418  0.00  0.00    +0.107 A 
ATOM      4  C   UNL     1      -3.465  -3.677   0.024  0.00  0.00    +0.147 A 
ATOM      5  N   UNL     1      -4.732  -3.613  -0.338  0.00  0.00    -0.237 NA
ATOM      6  C   UNL     1      -5.393  -2.450  -0.338  0.00  0.00    +0.132 A 
ATOM      7  C   UNL     1      -4.794  -1.300   0.029  0.00  0.00    +0.133 A 
ATOM      8  N   UNL     1      -3.479  -1.306   0.415  0.00  0.00    -0.234 N 
ATOM      9  N   UNL     1      -2.601  -0.307   0.845  0.00  0.00    -0.166 NA
ATOM     10  N   UNL     1      -2.797  -4.891   0.017  0.00  0.00    -0.313 N 
ATOM     11  C   UNL     1      -1.334  -4.939  -0.099  0.00  0.00    +0.106 C 
ATOM     12  C   UNL     1      -0.961  -5.860  -1.265  0.00  0.00    +0.020 C 
ATOM     13  C   UNL     1      -1.621  -7.226  -1.062  0.00  0.00    +0.016 C 
ATOM     14  C   UNL     1      -3.143  -7.061  -1.043  0.00  0.00    +0.092 C 
ATOM     15  C   UNL     1      -3.539  -6.154   0.131  0.00  0.00    +0.119 C 
ENDROOT
BRANCH   1  21
ATOM     16  C   UNL     1      -0.266   1.242   1.789  0.00  0.00    +0.013 A 
ATOM     17  C   UNL     1       0.859   1.910   2.231  0.00  0.00    +0.039 A 
ATOM     18  C   UNL     1       2.036   1.214   2.455  0.00  0.00    +0.123 A 
ATOM     19  C   UNL     1       2.090  -0.152   2.237  0.00  0.00    +0.039 A 
ATOM     20  C   UNL     1       0.971  -0.828   1.795  0.00  0.00    +0.013 A 
ATOM     21  C   UNL     1      -0.215  -0.132   1.569  0.00  0.00    +0.002 A 
ATOM     22  F   UNL     1       3.134   1.872   2.888  0.00  0.00    -0.205 F 
ENDBRANCH   1  21
BRANCH  14  23
ATOM     23  C   UNL     1      -3.793  -8.411  -0.877  0.00  0.00    +0.218 C 
ATOM     24  O   UNL     1      -4.506  -8.626   0.080  0.00  0.00    -0.275 OA
ATOM     25  N   UNL     1      -3.582  -9.378  -1.791  0.00  0.00    -0.311 N 
ATOM     26  H   UNL     1      -3.011  -9.206  -2.557  0.00  0.00    +0.149 HD
BRANCH  25  27
ATOM     27  C   UNL     1      -4.214 -10.690  -1.629  0.00  0.00    +0.139 C 
BRANCH  27  28
ATOM     28  C   UNL     1      -3.820 -11.582  -2.778  0.00  0.00    -0.027 A 
ATOM     29  C   UNL     1      -4.586 -11.606  -3.928  0.00  0.00    +0.009 A 
ATOM     30  C   UNL     1      -4.228 -12.422  -4.984  0.00  0.00    +0.050 A 
ATOM     31  C   UNL     1      -3.100 -13.221  -4.892  0.00  0.00    +0.166 A 
ATOM     32  C   UNL     1      -2.327 -13.197  -3.733  0.00  0.00    +0.167 A 
ATOM     33  C   UNL     1      -2.689 -12.372  -2.681  0.00  0.00    +0.054 A 
ATOM     34  O   UNL     1      -1.282 -14.061  -3.888  0.00  0.00    -0.453 OA
ATOM     35  C   UNL     1      -1.649 -14.916  -4.987  0.00  0.00    +0.466 C 
ATOM     36  O   UNL     1      -2.538 -14.100  -5.773  0.00  0.00    -0.453 OA
ENDBRANCH  27  28
ENDBRANCH  25  27
ENDBRANCH  14  23
TORSDOF 4
