REMARK  Name = ZINC38735743
REMARK  6 active torsions:
REMARK  status: ('A' for Active; 'I' for Inactive)
REMARK    1  A    between atoms: C_1  and  C_2
REMARK    2  A    between atoms: C_2  and  C_4
REMARK    3  A    between atoms: C_2  and  O_21
REMARK    4  A    between atoms: N_6  and  C_7
REMARK    5  A    between atoms: C_10  and  C_13
REMARK    6  A    between atoms: O_21  and  C_22
REMARK                            x       y       z     vdW  Elec       q    Type
REMARK                         _______ _______ _______ _____ _____    ______ ____
ROOT
ATOM      1  C   UNL     1       0.334  -0.423  -1.475  0.00  0.00    +0.258 C 
ATOM      2  O   UNL     1      -0.388  -0.675  -2.417  0.00  0.00    -0.271 OA
ATOM      3  N   UNL     1       1.666  -0.330  -1.653  0.00  0.00    -0.282 N 
ATOM      4  H   UNL     1       2.251  -0.210  -0.888  0.00  0.00    +0.155 HD
ENDROOT
BRANCH   3   5
ATOM      5  C   UNL     1       2.207  -0.406  -2.942  0.00  0.00    +0.034 A 
ATOM      6  C   UNL     1       1.504   0.115  -4.021  0.00  0.00    +0.024 A 
ATOM      7  C   UNL     1       2.034   0.041  -5.291  0.00  0.00    +0.012 A 
ATOM      8  C   UNL     1       3.277  -0.558  -5.493  0.00  0.00    +0.002 A 
ATOM      9  C   UNL     1       3.980  -1.081  -4.408  0.00  0.00    +0.012 A 
ATOM     10  C   UNL     1       3.448  -0.999  -3.139  0.00  0.00    +0.024 A 
BRANCH   8  11
ATOM     11  C   UNL     1       3.850  -0.640  -6.859  0.00  0.00    +0.090 A 
ATOM     12  C   UNL     1       5.036  -1.197  -7.191  0.00  0.00    +0.116 A 
ATOM     13  N   UNL     1       5.184  -1.075  -8.570  0.00  0.00    -0.324 N 
ATOM     14  C   UNL     1       4.071  -0.414  -8.998  0.00  0.00    +0.170 A 
ATOM     15  N   UNL     1       3.273  -0.176  -7.994  0.00  0.00    -0.222 NA
ATOM     16  S   UNL     1       4.269  -0.191 -10.754  0.00  0.00    -0.086 S 
ATOM     17  C   UNL     1       6.050  -0.646 -10.875  0.00  0.00    +0.099 C 
ATOM     18  C   UNL     1       6.175  -1.476  -9.575  0.00  0.00    +0.135 C 
ENDBRANCH   8  11
ENDBRANCH   3   5
BRANCH   1  20
ATOM     19  C   UNL     1      -0.026   1.234   0.335  0.00  0.00    +0.062 C 
ATOM     20  C   UNL     1      -0.260  -0.212  -0.106  0.00  0.00    +0.256 C 
BRANCH  20  21
ATOM     21  O   UNL     1      -1.664  -0.475  -0.150  0.00  0.00    -0.480 OA
BRANCH  21  22
ATOM     22  C   UNL     1      -2.261  -0.839   1.016  0.00  0.00    +0.125 A 
ATOM     23  C   UNL     1      -3.593  -1.225   1.023  0.00  0.00    +0.049 A 
ATOM     24  C   UNL     1      -4.202  -1.595   2.207  0.00  0.00    +0.053 A 
ATOM     25  C   UNL     1      -3.483  -1.582   3.391  0.00  0.00    +0.166 A 
ATOM     26  C   UNL     1      -2.145  -1.196   3.387  0.00  0.00    +0.170 A 
ATOM     27  C   UNL     1      -1.536  -0.830   2.198  0.00  0.00    +0.095 A 
ATOM     28  O   UNL     1      -1.666  -1.267   4.664  0.00  0.00    -0.452 OA
ATOM     29  C   UNL     1      -2.831  -1.308   5.510  0.00  0.00    +0.466 C 
ATOM     30  O   UNL     1      -3.842  -1.897   4.671  0.00  0.00    -0.453 OA
ENDBRANCH  21  22
ENDBRANCH  20  21
ENDBRANCH   1  20
TORSDOF 5
