REMARK  Name = ZINC16291097
REMARK  12 active torsions:
REMARK  status: ('A' for Active; 'I' for Inactive)
REMARK    1  A    between atoms: C_1  and  C_2
REMARK    2  A    between atoms: C_5  and  C_33
REMARK    3  A    between atoms: C_6  and  O_8
REMARK    4  A    between atoms: O_8  and  C_9
REMARK    5  A    between atoms: C_9  and  C_10
REMARK    6  A    between atoms: N_12  and  C_13
REMARK    7  A    between atoms: C_13  and  N_15
REMARK    8  A    between atoms: N_15  and  C_16
REMARK    9  A    between atoms: C_19  and  C_23
REMARK   10  A    between atoms: C_20  and  O_22
REMARK   11  A    between atoms: C_33  and  C_34
REMARK   12  A    between atoms: C_33  and  C_35
REMARK                            x       y       z     vdW  Elec       q    Type
REMARK                         _______ _______ _______ _____ _____    ______ ____
ROOT
ATOM      1  N   UNL     1       0.077  -2.747   8.312  0.00  0.00    -0.296 N 
ATOM      2  H   UNL     1      -0.143  -1.807   8.409  0.00  0.00    +0.154 HD
ENDROOT
BRANCH   1   3
ATOM      3  C   UNL     1      -0.012  -3.602   9.412  0.00  0.00    +0.036 A 
ATOM      4  C   UNL     1       1.019  -4.498   9.679  0.00  0.00    +0.024 A 
ATOM      5  C   UNL     1       0.938  -5.344  10.762  0.00  0.00    +0.018 A 
ATOM      6  C   UNL     1      -0.182  -5.304  11.597  0.00  0.00    +0.078 A 
ATOM      7  C   UNL     1      -1.220  -4.401  11.327  0.00  0.00    +0.131 A 
ATOM      8  C   UNL     1      -1.126  -3.551  10.239  0.00  0.00    +0.069 A 
BRANCH   6   9
ATOM      9  C   UNL     1      -0.271  -6.210  12.758  0.00  0.00    +0.232 A 
ATOM     10  N   UNL     1      -1.276  -6.257  13.598  0.00  0.00    -0.209 NA
ATOM     11  C   UNL     1      -1.016  -7.204  14.536  0.00  0.00    +0.111 A 
ATOM     12  C   UNL     1      -1.715  -7.675  15.650  0.00  0.00    +0.051 A 
ATOM     13  C   UNL     1      -1.169  -8.673  16.428  0.00  0.00    +0.043 A 
ATOM     14  C   UNL     1       0.071  -9.211  16.111  0.00  0.00    +0.024 A 
ATOM     15  C   UNL     1       0.772  -8.755  15.013  0.00  0.00    +0.050 A 
ATOM     16  C   UNL     1       0.238  -7.752  14.220  0.00  0.00    +0.156 A 
ATOM     17  O   UNL     1       0.664  -7.113  13.107  0.00  0.00    -0.435 OA
ATOM     18 CL   UNL     1      -2.035  -9.259  17.813  0.00  0.00    -0.083 Cl
ENDBRANCH   6   9
BRANCH   7  19
ATOM     19  O   UNL     1      -2.310  -4.357  12.134  0.00  0.00    -0.506 OA
ATOM     20  H   UNL     1      -2.229  -3.737  12.872  0.00  0.00    +0.292 HD
ENDBRANCH   7  19
ENDBRANCH   1   3
BRANCH   1  21
ATOM     21  C   UNL     1       0.468  -3.227   7.115  0.00  0.00    +0.141 C 
ATOM     22  S   UNL     1       0.961  -4.860   6.968  0.00  0.00    -0.018 S 
BRANCH  21  25
ATOM     23  C   UNL     1       0.865  -2.902   4.838  0.00  0.00    +0.256 C 
ATOM     24  O   UNL     1       1.213  -4.058   4.733  0.00  0.00    -0.272 OA
ATOM     25  N   UNL     1       0.473  -2.422   6.035  0.00  0.00    -0.265 N 
ATOM     26  H   UNL     1       0.194  -1.496   6.118  0.00  0.00    +0.157 HD
BRANCH  23  27
ATOM     27  C   UNL     1       0.869  -2.001   3.630  0.00  0.00    +0.325 C 
BRANCH  27  28
ATOM     28  O   UNL     1       1.321  -2.736   2.490  0.00  0.00    -0.482 OA
BRANCH  28  34
ATOM     29  C   UNL     1       0.689   1.404  -0.018  0.00  0.00    +0.044 C 
ATOM     30  C   UNL     1       1.085  -0.048   0.049  0.00  0.00    -0.047 A 
ATOM     31  C   UNL     1       1.514  -0.700  -1.093  0.00  0.00    +0.004 A 
ATOM     32  C   UNL     1       1.877  -2.033  -1.036  0.00  0.00    +0.008 A 
ATOM     33  C   UNL     1       1.814  -2.716   0.163  0.00  0.00    -0.003 A 
ATOM     34  C   UNL     1       1.384  -2.065   1.309  0.00  0.00    +0.125 A 
ATOM     35  C   UNL     1       1.025  -0.726   1.251  0.00  0.00    +0.049 A 
BRANCH  33  36
ATOM     36  C   UNL     1       2.209  -4.169   0.224  0.00  0.00    +0.016 C 
ATOM     37  C   UNL     1       1.314  -4.982  -0.713  0.00  0.00    +0.012 C 
ATOM     38  C   UNL     1       3.669  -4.319  -0.209  0.00  0.00    +0.012 C 
ENDBRANCH  33  36
ENDBRANCH  28  34
ENDBRANCH  27  28
ENDBRANCH  23  27
ENDBRANCH  21  25
ENDBRANCH   1  21
TORSDOF 9
