REMARK  Name = ZINC02605883
REMARK  2 active torsions:
REMARK  status: ('A' for Active; 'I' for Inactive)
REMARK    1  A    between atoms: C_4  and  C_7
REMARK    2  A    between atoms: C_10  and  C_17
REMARK                            x       y       z     vdW  Elec       q    Type
REMARK                         _______ _______ _______ _____ _____    ______ ____
ROOT
ATOM      1  C   UNL     1       3.711  -0.707  -0.038  0.00  0.00    +0.148 C 
ATOM      2  C   UNL     1       3.817  -1.610   1.198  0.00  0.00    +0.088 C 
ATOM      3  C   UNL     1       4.872  -2.663   1.011  0.00  0.00    +0.055 C 
ATOM      4  N   UNL     1       5.133  -3.202  -0.150  0.00  0.00    -0.214 NA
ATOM      5  C   UNL     1       4.476  -2.741  -1.246  0.00  0.00    +0.270 A 
ATOM      6  N   UNL     1       3.787  -1.555  -1.224  0.00  0.00    -0.202 N 
ATOM      7  N   UNL     1       3.250  -1.408  -2.498  0.00  0.00    -0.042 NA
ATOM      8  N   UNL     1       3.635  -2.438  -3.182  0.00  0.00    -0.021 NA
ATOM      9  N   UNL     1       4.362  -3.220  -2.457  0.00  0.00    -0.088 NA
ENDROOT
BRANCH   3  10
ATOM     10  C   UNL     1       5.644  -3.104   2.183  0.00  0.00    -0.003 A 
ATOM     11  C   UNL     1       5.386  -2.551   3.442  0.00  0.00    +0.012 A 
ATOM     12  C   UNL     1       6.112  -2.969   4.537  0.00  0.00    +0.039 A 
ATOM     13  C   UNL     1       7.096  -3.935   4.392  0.00  0.00    +0.123 A 
ATOM     14  C   UNL     1       7.356  -4.487   3.146  0.00  0.00    +0.039 A 
ATOM     15  C   UNL     1       6.634  -4.082   2.045  0.00  0.00    +0.012 A 
ATOM     16  F   UNL     1       7.805  -4.340   5.468  0.00  0.00    -0.205 F 
ENDBRANCH   3  10
BRANCH   1  20
ATOM     17  C   UNL     1      -0.017   1.378   0.010  0.00  0.00    +0.000 A 
ATOM     18  C   UNL     1       1.171   2.086   0.002  0.00  0.00    +0.000 A 
ATOM     19  C   UNL     1       2.377   1.411  -0.013  0.00  0.00    +0.006 A 
ATOM     20  C   UNL     1       2.396   0.029  -0.020  0.00  0.00    -0.023 A 
ATOM     21  C   UNL     1       1.208  -0.679  -0.012  0.00  0.00    +0.006 A 
ATOM     22  C   UNL     1       0.002  -0.004   0.002  0.00  0.00    +0.000 A 
ENDBRANCH   1  20
TORSDOF 2
