REMARK  Name = ZINC39711061
REMARK  13 active torsions:
REMARK  status: ('A' for Active; 'I' for Inactive)
REMARK    1  A    between atoms: C_1  and  C_2
REMARK    2  A    between atoms: C_4  and  C_41
REMARK    3  A    between atoms: C_9  and  C_14
REMARK    4  A    between atoms: C_14  and  C_16
REMARK    5  A    between atoms: C_14  and  N_26
REMARK    6  A    between atoms: N_21  and  C_22
REMARK    7  A    between atoms: C_22  and  C_23
REMARK    8  A    between atoms: C_22  and  C_24
REMARK    9  A    between atoms: C_22  and  C_25
REMARK   10  A    between atoms: N_26  and  C_27
REMARK   11  A    between atoms: N_26  and  C_35
REMARK   12  A    between atoms: C_27  and  C_28
REMARK   13  A    between atoms: C_35  and  C_36
REMARK                            x       y       z     vdW  Elec       q    Type
REMARK                         _______ _______ _______ _____ _____    ______ ____
ROOT
ATOM      1  C   UNL     1      -0.855  -5.503   2.476  0.00  0.00    -0.010 C 
ENDROOT
BRANCH   1  10
ATOM      2  C   UNL     1       4.219  -2.231  -1.339  0.00  0.00    +0.044 C 
ATOM      3  C   UNL     1       3.348  -3.409  -0.989  0.00  0.00    -0.050 A 
ATOM      4  C   UNL     1       3.114  -4.394  -1.949  0.00  0.00    +0.008 A 
ATOM      5  C   UNL     1       2.340  -5.485  -1.706  0.00  0.00    -0.028 A 
ATOM      6  C   UNL     1       1.733  -5.665  -0.450  0.00  0.00    +0.043 A 
ATOM      7  N   UNL     1       0.977  -6.739  -0.223  0.00  0.00    -0.284 N 
ATOM      8  C   UNL     1       0.378  -6.969   0.933  0.00  0.00    +0.223 C 
ATOM      9  O   UNL     1      -0.301  -7.967   1.081  0.00  0.00    -0.275 OA
ATOM     10  C   UNL     1       0.539  -5.986   2.071  0.00  0.00    +0.088 C 
ATOM     11  C   UNL     1       1.399  -4.763   1.818  0.00  0.00    -0.006 C 
ATOM     12  C   UNL     1       1.963  -4.640   0.583  0.00  0.00    -0.007 A 
ATOM     13  C   UNL     1       2.812  -3.493   0.256  0.00  0.00    +0.012 A 
ATOM     14  C   UNL     1       2.131  -6.509  -2.792  0.00  0.00    +0.046 C 
ATOM     15  H   UNL     1       0.860  -7.381  -0.940  0.00  0.00    +0.155 HD
ENDBRANCH   1  10
BRANCH   1  16
ATOM     16  C   UNL     1      -1.429  -4.617   1.368  0.00  0.00    +0.183 C 
ATOM     17  N   UNL     1      -1.052  -5.133   0.039  0.00  0.00    -0.229 N 
ATOM     18  N   UNL     1      -0.292  -4.123  -0.562  0.00  0.00    -0.064 NA
ATOM     19  N   UNL     1      -0.161  -3.137   0.158  0.00  0.00    -0.061 NA
ATOM     20  N   UNL     1      -0.809  -3.279   1.395  0.00  0.00    -0.211 N 
ATOM     21  H   UNL     1      -1.283  -5.995  -0.341  0.00  0.00    +0.172 HD
BRANCH  20  22
ATOM     22  C   UNL     1      -0.861  -2.304   2.487  0.00  0.00    +0.047 C 
ATOM     23  C   UNL     1      -0.031  -2.814   3.666  0.00  0.00    +0.033 C 
ATOM     24  C   UNL     1      -0.293  -0.967   2.004  0.00  0.00    +0.033 C 
ATOM     25  C   UNL     1      -2.312  -2.111   2.930  0.00  0.00    +0.033 C 
ENDBRANCH  20  22
ENDBRANCH   1  16
BRANCH   1  26
ATOM     26  N   UNL     1      -1.734  -6.662   2.682  0.00  0.00    +0.392 N 
ATOM     27  H   UNL     1      -1.880  -7.134   1.802  0.00  0.00    -0.080 HD
BRANCH  26  28
ATOM     28  C   UNL     1      -3.025  -6.208   3.215  0.00  0.00    -0.040 C 
BRANCH  28  29
ATOM     29  C   UNL     1      -3.921  -5.794   2.076  0.00  0.00    -0.046 A 
ATOM     30  C   UNL     1      -4.400  -4.499   2.009  0.00  0.00    +0.003 A 
ATOM     31  C   UNL     1      -5.222  -4.120   0.964  0.00  0.00    +0.000 A 
ATOM     32  C   UNL     1      -5.565  -5.034  -0.014  0.00  0.00    +0.001 A 
ATOM     33  C   UNL     1      -5.087  -6.329   0.052  0.00  0.00    +0.020 A 
ATOM     34  C   UNL     1      -4.259  -6.708   1.094  0.00  0.00    +0.042 A 
ATOM     35 CL   UNL     1      -3.653  -8.333   1.175  0.00  0.00    -0.083 Cl
ENDBRANCH  28  29
ENDBRANCH  26  28
BRANCH  26  36
ATOM     36  C   UNL     1      -1.108  -7.587   3.636  0.00  0.00    -0.002 C 
BRANCH  36  37
ATOM     37  C   UNL     1      -1.960  -8.823   3.769  0.00  0.00    +0.089 A 
ATOM     38  C   UNL     1      -1.791  -9.972   3.090  0.00  0.00    +0.042 A 
ATOM     39  C   UNL     1      -2.805 -10.857   3.523  0.00  0.00    +0.041 A 
ATOM     40  C   UNL     1      -3.533 -10.196   4.441  0.00  0.00    +0.195 A 
ATOM     41  O   UNL     1      -3.013  -8.966   4.590  0.00  0.00    -0.470 OA
ENDBRANCH  36  37
ENDBRANCH  26  36
ENDBRANCH   1  26
TORSDOF 8
