REMARK  Name = ZINC04116574
REMARK  4 active torsions:
REMARK  status: ('A' for Active; 'I' for Inactive)
REMARK    1  A    between atoms: C_6  and  N_7
REMARK    2  A    between atoms: N_7  and  C_8
REMARK    3  A    between atoms: C_8  and  N_10
REMARK    4  A    between atoms: C_11  and  C_13
REMARK                            x       y       z     vdW  Elec       q    Type
REMARK                         _______ _______ _______ _____ _____    ______ ____
ROOT
ATOM      1  N   UNL     1       6.586  -1.844   3.470  0.00  0.00    -0.267 N 
ATOM      2  C   UNL     1       6.966  -2.978   4.092  0.00  0.00    +0.225 C 
ATOM      3  O   UNL     1       6.231  -3.943   4.095  0.00  0.00    -0.275 OA
ATOM      4  H   UNL     1       7.173  -1.072   3.468  0.00  0.00    +0.157 HD
ENDROOT
BRANCH   2   5
ATOM      5  C   UNL     1       8.303  -3.047   4.783  0.00  0.00    +0.048 C 
ATOM      6  C   UNL     1       9.417  -2.793   3.765  0.00  0.00    +0.019 C 
ATOM      7  C   UNL     1      10.774  -2.863   4.467  0.00  0.00    -0.009 C 
ATOM      8  C   UNL     1      10.957  -4.249   5.087  0.00  0.00    +0.007 C 
ATOM      9  C   UNL     1       9.844  -4.503   6.105  0.00  0.00    -0.009 C 
ATOM     10  C   UNL     1       8.486  -4.434   5.403  0.00  0.00    +0.019 C 
ATOM     11  C   UNL     1       9.905  -3.441   7.204  0.00  0.00    +0.007 C 
ATOM     12  C   UNL     1       9.722  -2.054   6.584  0.00  0.00    -0.009 C 
ATOM     13  C   UNL     1      10.836  -1.800   5.566  0.00  0.00    +0.007 C 
ATOM     14  C   UNL     1       8.364  -1.984   5.882  0.00  0.00    +0.019 C 
ENDBRANCH   2   5
BRANCH   1  15
ATOM     15  C   UNL     1       5.390  -1.782   2.852  0.00  0.00    +0.141 C 
ATOM     16  S   UNL     1       4.353  -3.145   2.857  0.00  0.00    -0.018 S 
BRANCH  15  17
ATOM     17  N   UNL     1       5.010  -0.648   2.231  0.00  0.00    -0.296 N 
ATOM     18  H   UNL     1       5.622   0.102   2.175  0.00  0.00    +0.154 HD
BRANCH  17  24
ATOM     19  C   UNL     1       2.963   0.583   1.873  0.00  0.00    +0.027 A 
ATOM     20  C   UNL     1       1.702   0.677   1.316  0.00  0.00    +0.051 A 
ATOM     21  C   UNL     1       1.202  -0.361   0.547  0.00  0.00    +0.166 A 
ATOM     22  C   UNL     1       1.972  -1.503   0.337  0.00  0.00    +0.168 A 
ATOM     23  C   UNL     1       3.234  -1.598   0.896  0.00  0.00    +0.072 A 
ATOM     24  C   UNL     1       3.732  -0.554   1.665  0.00  0.00    +0.036 A 
ATOM     25  O   UNL     1       1.262  -2.369  -0.445  0.00  0.00    -0.453 OA
ATOM     26  C   UNL     1       0.221  -1.579  -1.047  0.00  0.00    +0.466 C 
ATOM     27  O   UNL     1       0.010  -0.512  -0.103  0.00  0.00    -0.453 OA
ENDBRANCH  17  24
ENDBRANCH  15  17
ENDBRANCH   1  15
TORSDOF 4
