REMARK  Name = ZINC49036211
REMARK  11 active torsions:
REMARK  status: ('A' for Active; 'I' for Inactive)
REMARK    1  A    between atoms: C_1  and  C_2
REMARK    2  A    between atoms: C_2  and  O_3
REMARK    3  A    between atoms: O_3  and  C_4
REMARK    4  A    between atoms: C_4  and  C_6
REMARK    5  A    between atoms: N_8  and  C_33
REMARK    6  A    between atoms: C_10  and  C_32
REMARK    7  A    between atoms: C_11  and  N_17
REMARK    8  A    between atoms: C_12  and  N_16
REMARK    9  A    between atoms: N_24  and  O_25
REMARK   10  A    between atoms: O_25  and  C_26
REMARK   11  A    between atoms: C_27  and  C_31
REMARK                            x       y       z     vdW  Elec       q    Type
REMARK                         _______ _______ _______ _____ _____    ______ ____
ROOT
ATOM      1  C   UNL     1       0.565  -3.570  -3.989  0.00  0.00    +0.055 C 
ATOM      2  C   UNL     1       0.812  -4.889  -4.067  0.00  0.00    +0.086 C 
ATOM      3  N   UNL     1       1.811  -5.376  -4.857  0.00  0.00    -0.302 N 
ATOM      4  C   UNL     1       2.827  -4.524  -5.303  0.00  0.00    +0.042 A 
ATOM      5  C   UNL     1       4.017  -5.060  -5.780  0.00  0.00    -0.006 A 
ATOM      6  C   UNL     1       5.028  -4.220  -6.220  0.00  0.00    +0.056 A 
ATOM      7  C   UNL     1       4.845  -2.838  -6.181  0.00  0.00    +0.047 A 
ATOM      8  C   UNL     1       3.656  -2.309  -5.706  0.00  0.00    +0.030 A 
ATOM      9  C   UNL     1       2.645  -3.150  -5.269  0.00  0.00    -0.019 A 
ATOM     10  C   UNL     1       1.353  -2.560  -4.769  0.00  0.00    +0.080 C 
ATOM     11  C   UNL     1       4.209  -6.554  -5.819  0.00  0.00    +0.047 C 
ENDROOT
BRANCH   6  12
ATOM     12  N   UNL     1       6.228  -4.757  -6.700  0.00  0.00    -0.323 N 
ATOM     13  C   UNL     1       6.373  -5.184  -8.103  0.00  0.00    +0.110 C 
ATOM     14  C   UNL     1       7.439  -4.293  -8.736  0.00  0.00    +0.061 C 
ATOM     15  C   UNL     1       8.662  -4.192  -7.858  0.00  0.00    -0.007 C 
ATOM     16  C   UNL     1       8.653  -4.461  -6.545  0.00  0.00    +0.004 C 
ATOM     17  C   UNL     1       7.397  -4.913  -5.835  0.00  0.00    +0.143 C 
ATOM     18  C   UNL     1       9.800  -4.351  -5.725  0.00  0.00    +0.089 C 
ATOM     19  N   UNL     1       9.641  -4.635  -4.466  0.00  0.00    -0.089 NA
ATOM     20  C   UNL     1      11.169  -3.945  -6.145  0.00  0.00    +0.048 C 
ATOM     21  C   UNL     1      11.447  -4.411  -7.579  0.00  0.00    +0.083 C 
ATOM     22  S   UNL     1      10.167  -3.681  -8.643  0.00  0.00    -0.128 S 
ATOM     23  C   UNL     1      12.196  -4.577  -5.204  0.00  0.00    +0.015 C 
BRANCH  19  24
ATOM     24  O   UNL     1       8.487  -5.335  -4.039  0.00  0.00    -0.397 OA
ATOM     25  C   UNL     1       8.443  -5.579  -2.631  0.00  0.00    +0.313 C 
ENDBRANCH  19  24
ENDBRANCH   6  12
BRANCH   7  26
ATOM     26  N   UNL     1       5.865  -1.983  -6.622  0.00  0.00    -0.357 N 
ATOM     27  H   UNL     1       6.698  -2.353  -6.954  0.00  0.00    +0.142 HD
ATOM     28  H   UNL     1       5.738  -1.022  -6.595  0.00  0.00    +0.142 HD
ENDBRANCH   7  26
BRANCH   3  29
ATOM     29  C   UNL     1       1.820  -6.791  -5.237  0.00  0.00    +0.079 C 
ATOM     30  C   UNL     1       0.642  -7.654  -4.779  0.00  0.00    +0.024 C 
ATOM     31  C   UNL     1       2.015  -7.821  -4.123  0.00  0.00    +0.024 C 
ENDBRANCH   3  29
BRANCH   1  32
ATOM     32  C   UNL     1      -0.475  -3.120  -3.147  0.00  0.00    +0.337 C 
ATOM     33  O   UNL     1      -1.127  -3.922  -2.504  0.00  0.00    -0.245 OA
BRANCH  32  34
ATOM     34  O   UNL     1      -0.746  -1.801  -3.055  0.00  0.00    -0.462 OA
BRANCH  34  36
ATOM     35  C   UNL     1      -1.969   0.104  -2.211  0.00  0.00    +0.048 C 
ATOM     36  C   UNL     1      -1.812  -1.417  -2.184  0.00  0.00    +0.229 C 
ENDBRANCH  34  36
ENDBRANCH  32  34
ENDBRANCH   1  32
TORSDOF 7
