REMARK  Name = ZINC11603374
REMARK  8 active torsions:
REMARK  status: ('A' for Active; 'I' for Inactive)
REMARK    1  A    between atoms: C_1  and  O_2
REMARK    2  A    between atoms: O_2  and  C_3
REMARK    3  A    between atoms: C_8  and  C_9
REMARK    4  A    between atoms: C_9  and  C_11
REMARK    5  A    between atoms: C_9  and  N_57
REMARK    6  A    between atoms: C_11  and  N_12
REMARK    7  A    between atoms: C_13  and  C_15
REMARK    8  A    between atoms: C_15  and  C_16
REMARK                            x       y       z     vdW  Elec       q    Type
REMARK                         _______ _______ _______ _____ _____    ______ ____
ROOT
ATOM      1  N   UNL     1       0.043  -0.034  -0.059  0.00  0.00    -0.316 N 
ATOM      2  C   UNL     1      -1.083  -0.760   0.078  0.00  0.00    +0.215 C 
ATOM      3  O   UNL     1      -2.137  -0.207   0.313  0.00  0.00    -0.276 OA
ATOM      4  H   UNL     1       0.886  -0.476  -0.247  0.00  0.00    +0.149 HD
ENDROOT
BRANCH   1   5
ATOM      5  C   UNL     1      -0.004   1.424   0.075  0.00  0.00    +0.093 C 
BRANCH   5   6
ATOM      6  C   UNL     1       1.415   1.990  -0.000  0.00  0.00    -0.017 C 
BRANCH   6  12
ATOM      7  C   UNL     1       1.161   4.354  -0.798  0.00  0.00    +0.122 A 
ATOM      8  C   UNL     1       1.126   5.720  -0.562  0.00  0.00    +0.046 A 
ATOM      9  C   UNL     1       1.309   6.203   0.720  0.00  0.00    +0.004 A 
ATOM     10  C   UNL     1       1.526   5.325   1.766  0.00  0.00    +0.000 A 
ATOM     11  C   UNL     1       1.555   3.963   1.534  0.00  0.00    +0.005 A 
ATOM     12  C   UNL     1       1.378   3.475   0.253  0.00  0.00    -0.018 A 
BRANCH   7  14
ATOM     13  C   UNL     1       0.762   4.839  -3.091  0.00  0.00    +0.277 C 
ATOM     14  O   UNL     1       0.981   3.876  -2.058  0.00  0.00    -0.495 OA
ENDBRANCH   7  14
ENDBRANCH   6  12
BRANCH   6  19
ATOM     15  C   UNL     1       3.497   2.120   1.256  0.00  0.00    -0.078 C 
ATOM     16  C   UNL     1       3.962   1.623   2.648  0.00  0.00    -0.020 C 
ATOM     17  C   UNL     1       2.631   1.437   3.412  0.00  0.00    -0.020 C 
ATOM     18  C   UNL     1       1.559   1.278   2.318  0.00  0.00    -0.078 C 
ATOM     19  N   UNL     1       2.268   1.340   1.040  0.00  0.00    +0.385 N 
ATOM     20  H   UNL     1       2.510   0.391   0.731  0.00  0.00    -0.081 HD
ENDBRANCH   6  19
ENDBRANCH   5   6
ENDBRANCH   1   5
BRANCH   2  21
ATOM     21  C   UNL     1      -1.034  -2.260  -0.060  0.00  0.00    +0.119 C 
BRANCH  21  22
ATOM     22  C   UNL     1      -2.437  -2.837   0.140  0.00  0.00    +0.146 C 
ATOM     23  C   UNL     1      -2.377  -4.342   0.099  0.00  0.00    +0.231 C 
ATOM     24  O   UNL     1      -2.352  -4.947   1.150  0.00  0.00    -0.274 OA
ATOM     25  N   UNL     1      -2.349  -5.038  -1.033  0.00  0.00    -0.284 N 
ATOM     26  C   UNL     1      -2.485  -4.532  -2.322  0.00  0.00    +0.048 A 
ATOM     27  C   UNL     1      -2.084  -5.311  -3.403  0.00  0.00    +0.044 A 
ATOM     28  C   UNL     1      -2.199  -4.827  -4.692  0.00  0.00    +0.043 A 
ATOM     29  C   UNL     1      -2.713  -3.563  -4.923  0.00  0.00    +0.021 A 
ATOM     30  C   UNL     1      -3.119  -2.780  -3.858  0.00  0.00    +0.018 A 
ATOM     31  C   UNL     1      -3.007  -3.261  -2.564  0.00  0.00    +0.030 A 
ATOM     32  S   UNL     1      -3.528  -2.268  -1.200  0.00  0.00    -0.110 S 
ATOM     33 CL   UNL     1      -1.693  -5.810  -6.030  0.00  0.00    -0.083 Cl
ATOM     34  H   UNL     1      -2.222  -5.996  -0.952  0.00  0.00    +0.155 HD
ENDBRANCH  21  22
ENDBRANCH   2  21
TORSDOF 7
