REMARK  Name = ZINC02386133
REMARK  11 active torsions:
REMARK  status: ('A' for Active; 'I' for Inactive)
REMARK    1  A    between atoms: C_1  and  C_2
REMARK    2  A    between atoms: C_2  and  C_3
REMARK    3  A    between atoms: C_3  and  C_5
REMARK    4  A    between atoms: C_3  and  N_6
REMARK    5  A    between atoms: C_7  and  C_9
REMARK    6  A    between atoms: N_20  and  N_23
REMARK    7  A    between atoms: C_21  and  N_22
REMARK    8  A    between atoms: C_24  and  C_25
REMARK    9  A    between atoms: C_28  and  C_31
REMARK   10  A    between atoms: C_31  and  C_32
REMARK   11  A    between atoms: C_31  and  C_33
REMARK                            x       y       z     vdW  Elec       q    Type
REMARK                         _______ _______ _______ _____ _____    ______ ____
ROOT
ATOM      1  C   UNL     1      -5.168   5.343   7.469  0.00  0.00    +0.105 A 
ATOM      2  C   UNL     1      -3.915   5.375   8.242  0.00  0.00    +0.124 A 
ATOM      3  C   UNL     1      -2.873   4.929   7.312  0.00  0.00    +0.183 A 
ATOM      4  N   UNL     1      -1.626   4.854   7.725  0.00  0.00    -0.224 NA
ATOM      5  C   UNL     1      -1.320   5.184   8.986  0.00  0.00    +0.092 A 
ATOM      6  C   UNL     1       0.011   5.107   9.437  0.00  0.00    +0.030 A 
ATOM      7  C   UNL     1       0.312   5.445  10.720  0.00  0.00    +0.002 A 
ATOM      8  C   UNL     1      -0.680   5.869  11.602  0.00  0.00    +0.002 A 
ATOM      9  C   UNL     1      -1.978   5.956  11.203  0.00  0.00    +0.030 A 
ATOM     10  C   UNL     1      -2.329   5.615   9.883  0.00  0.00    +0.090 A 
ATOM     11  N   UNL     1      -3.603   5.697   9.481  0.00  0.00    -0.241 NA
ATOM     12  N   UNL     1      -3.494   4.665   6.106  0.00  0.00    -0.198 N 
ATOM     13  C   UNL     1      -4.833   4.911   6.190  0.00  0.00    +0.134 A 
ENDROOT
BRANCH   1  15
ATOM     14  N   UNL     1      -7.292   4.762   8.504  0.00  0.00    -0.309 N 
ATOM     15  C   UNL     1      -6.500   5.701   7.950  0.00  0.00    +0.250 C 
ATOM     16  O   UNL     1      -6.896   6.849   7.850  0.00  0.00    -0.270 OA
ATOM     17  H   UNL     1      -6.977   3.848   8.583  0.00  0.00    +0.149 HD
BRANCH  14  18
ATOM     18  C   UNL     1      -8.628   5.121   8.986  0.00  0.00    +0.070 C 
ATOM     19  C   UNL     1      -9.622   5.063   7.824  0.00  0.00    +0.028 C 
BRANCH  18  21
ATOM     20  C   UNL     1      -8.138   4.282  11.288  0.00  0.00    +0.005 C 
ATOM     21  C   UNL     1      -9.059   4.136  10.075  0.00  0.00    +0.018 C 
ENDBRANCH  18  21
ENDBRANCH  14  18
ENDBRANCH   1  15
BRANCH  13  22
ATOM     22  N   UNL     1      -5.724   4.751   5.160  0.00  0.00    -0.342 N 
ATOM     23  H   UNL     1      -5.414   4.442   4.295  0.00  0.00    +0.144 HD
ATOM     24  H   UNL     1      -6.664   4.947   5.297  0.00  0.00    +0.144 HD
ENDBRANCH  13  22
BRANCH  12  25
ATOM     25  N   UNL     1      -2.838   4.213   4.954  0.00  0.00    -0.171 NA
ATOM     26  C   UNL     1      -2.705   2.941   4.740  0.00  0.00    +0.141 C 
BRANCH  26  27
ATOM     27  C   UNL     1      -2.014   2.465   3.527  0.00  0.00    -0.005 A 
ATOM     28  C   UNL     1      -1.869   1.095   3.293  0.00  0.00    +0.010 A 
ATOM     29  C   UNL     1      -1.222   0.658   2.156  0.00  0.00    +0.004 A 
ATOM     30  C   UNL     1      -0.718   1.572   1.248  0.00  0.00    -0.045 A 
ATOM     31  C   UNL     1      -0.854   2.930   1.475  0.00  0.00    +0.004 A 
ATOM     32  C   UNL     1      -1.503   3.382   2.605  0.00  0.00    +0.010 A 
BRANCH  30  33
ATOM     33  C   UNL     1      -0.013   1.086   0.008  0.00  0.00    +0.013 C 
ATOM     34  C   UNL     1       1.423   1.615  -0.003  0.00  0.00    +0.012 C 
ATOM     35  C   UNL     1      -0.753   1.593  -1.232  0.00  0.00    +0.012 C 
ENDBRANCH  30  33
ENDBRANCH  26  27
ENDBRANCH  12  25
TORSDOF 7
