REMARK  Name = ZINC20567627
REMARK  4 active torsions:
REMARK  status: ('A' for Active; 'I' for Inactive)
REMARK    1  A    between atoms: C_1  and  C_2
REMARK    2  A    between atoms: C_2  and  N_3
REMARK    3  A    between atoms: C_16  and  C_18
REMARK    4  A    between atoms: N_22  and  C_25
REMARK                            x       y       z     vdW  Elec       q    Type
REMARK                         _______ _______ _______ _____ _____    ______ ____
ROOT
ATOM      1  N   UNL     1       0.474   0.168   0.668  0.00  0.00    +0.388 N 
ATOM      2  C   UNL     1       0.402   1.083  -0.478  0.00  0.00    -0.073 C 
ATOM      3  C   UNL     1      -1.033   1.610  -0.625  0.00  0.00    +0.019 C 
ATOM      4  C   UNL     1      -1.965   0.425  -0.586  0.00  0.00    -0.022 A 
ATOM      5  C   UNL     1      -3.354   0.334  -0.974  0.00  0.00    +0.003 A 
ATOM      6  C   UNL     1      -4.261   1.265  -1.489  0.00  0.00    +0.010 A 
ATOM      7  C   UNL     1      -5.532   0.817  -1.748  0.00  0.00    +0.001 A 
ATOM      8  C   UNL     1      -5.913  -0.494  -1.514  0.00  0.00    +0.002 A 
ATOM      9  C   UNL     1      -5.037  -1.437  -1.004  0.00  0.00    +0.026 A 
ATOM     10  C   UNL     1      -3.739  -1.011  -0.732  0.00  0.00    +0.047 A 
ATOM     11  N   UNL     1      -2.646  -1.664  -0.236  0.00  0.00    -0.359 N 
ATOM     12  H   UNL     1      -2.623  -2.600   0.017  0.00  0.00    +0.166 HD
ATOM     13  C   UNL     1      -1.589  -0.800  -0.151  0.00  0.00    +0.011 A 
ATOM     14  C   UNL     1      -0.196  -1.102   0.347  0.00  0.00    +0.021 C 
ATOM     15  H   UNL     1       0.020   0.594   1.462  0.00  0.00    -0.080 HD
ENDROOT
BRANCH  14  16
ATOM     16  C   UNL     1      -0.276  -1.959   1.584  0.00  0.00    +0.074 A 
ATOM     17  C   UNL     1       0.231  -3.224   1.582  0.00  0.00    +0.260 A 
ATOM     18  N   UNL     1       0.148  -3.987   2.720  0.00  0.00    -0.274 N 
ATOM     19  C   UNL     1      -0.428  -3.492   3.831  0.00  0.00    +0.337 A 
ATOM     20  N   UNL     1      -0.934  -2.246   3.853  0.00  0.00    -0.229 N 
ATOM     21  C   UNL     1      -0.868  -1.462   2.759  0.00  0.00    +0.267 A 
ATOM     22  O   UNL     1      -1.323  -0.331   2.785  0.00  0.00    -0.267 OA
ATOM     23  O   UNL     1      -0.492  -4.182   4.830  0.00  0.00    -0.246 OA
ATOM     24  O   UNL     1       0.809  -3.724   0.469  0.00  0.00    -0.267 OA
ATOM     25  H   UNL     1       0.506  -4.888   2.723  0.00  0.00    +0.173 HD
BRANCH  20  26
ATOM     26  C   UNL     1      -1.529  -1.757   5.024  0.00  0.00    +0.054 A 
ATOM     27  C   UNL     1      -2.888  -1.940   5.242  0.00  0.00    +0.028 A 
ATOM     28  C   UNL     1      -3.471  -1.457   6.397  0.00  0.00    +0.022 A 
ATOM     29  C   UNL     1      -2.703  -0.791   7.336  0.00  0.00    +0.041 A 
ATOM     30  C   UNL     1      -1.349  -0.608   7.121  0.00  0.00    +0.022 A 
ATOM     31  C   UNL     1      -0.759  -1.094   5.971  0.00  0.00    +0.028 A 
ATOM     32 CL   UNL     1      -3.441  -0.184   8.786  0.00  0.00    -0.084 Cl
ENDBRANCH  20  26
ENDBRANCH  14  16
BRANCH   1  34
ATOM     33  C   UNL     1       2.550   1.206   1.449  0.00  0.00    -0.017 C 
ATOM     34  C   UNL     1       1.882  -0.094   0.995  0.00  0.00    -0.081 C 
ENDBRANCH   1  34
TORSDOF 3
