REMARK  Name = ZINC09730468
REMARK  7 active torsions:
REMARK  status: ('A' for Active; 'I' for Inactive)
REMARK    1  A    between atoms: C_4  and  C_7
REMARK    2  A    between atoms: C_7  and  C_8
REMARK    3  A    between atoms: C_8  and  C_10
REMARK    4  A    between atoms: C_8  and  N_20
REMARK    5  A    between atoms: C_21  and  C_23
REMARK    6  A    between atoms: C_26  and  N_32
REMARK    7  A    between atoms: C_27  and  N_29
REMARK                            x       y       z     vdW  Elec       q    Type
REMARK                         _______ _______ _______ _____ _____    ______ ____
ROOT
ATOM      1  C   UNL     1      -5.045   1.694   0.864  0.00  0.00    +0.143 C 
ENDROOT
BRANCH   1   2
ATOM      2  C   UNL     1      -6.086   2.623   0.295  0.00  0.00    +0.129 A 
ATOM      3  N   UNL     1      -5.820   3.735  -0.441  0.00  0.00    -0.340 N 
ATOM      4  H   UNL     1      -4.914   4.074  -0.696  0.00  0.00    +0.167 HD
ATOM      5  C   UNL     1      -7.031   4.308  -0.773  0.00  0.00    +0.066 A 
ATOM      6  C   UNL     1      -7.403   5.432  -1.497  0.00  0.00    +0.028 A 
ATOM      7  C   UNL     1      -8.739   5.739  -1.644  0.00  0.00    +0.002 A 
ATOM      8  C   UNL     1      -9.713   4.933  -1.071  0.00  0.00    +0.002 A 
ATOM      9  C   UNL     1      -9.366   3.823  -0.355  0.00  0.00    +0.030 A 
ATOM     10  C   UNL     1      -8.018   3.491  -0.194  0.00  0.00    +0.089 A 
ATOM     11  N   UNL     1      -7.371   2.481   0.443  0.00  0.00    -0.231 NA
ENDBRANCH   1   2
BRANCH   1  12
ATOM     12  N   UNL     1      -3.710   2.235   0.596  0.00  0.00    -0.301 N 
ATOM     13  C   UNL     1      -2.647   1.408   0.537  0.00  0.00    +0.245 C 
ATOM     14  O   UNL     1      -2.796   0.213   0.706  0.00  0.00    -0.270 OA
ATOM     15  H   UNL     1      -3.591   3.188   0.462  0.00  0.00    +0.150 HD
BRANCH  13  16
ATOM     16  C   UNL     1      -1.301   1.953   0.267  0.00  0.00    +0.039 A 
ATOM     17  C   UNL     1      -1.127   3.326   0.078  0.00  0.00    +0.015 A 
ATOM     18  C   UNL     1       0.128   3.830  -0.179  0.00  0.00    +0.029 A 
ATOM     19  C   UNL     1       1.223   2.975  -0.245  0.00  0.00    +0.078 A 
ATOM     20  C   UNL     1       1.054   1.609  -0.052  0.00  0.00    +0.151 A 
ATOM     21  C   UNL     1      -0.199   1.097   0.206  0.00  0.00    +0.048 A 
BRANCH  19  22
ATOM     22  N   UNL     1       2.496   3.491  -0.507  0.00  0.00    -0.304 N 
ATOM     23  C   UNL     1       3.154   4.448   0.223  0.00  0.00    +0.112 A 
ATOM     24  C   UNL     1       4.345   4.644  -0.375  0.00  0.00    +0.130 A 
ATOM     25  N   UNL     1       4.414   3.838  -1.445  0.00  0.00    -0.244 NA
ATOM     26  C   UNL     1       3.313   3.142  -1.535  0.00  0.00    +0.204 A 
ENDBRANCH  19  22
BRANCH  20  27
ATOM     27  N   UNL     1       2.222   0.702  -0.122  0.00  0.00    +0.058 N 
ATOM     28  O   UNL     1       2.060  -0.504  -0.079  0.00  0.00    -0.126 OA
ATOM     29  O   UNL     1       3.345   1.163  -0.224  0.00  0.00    -0.126 OA
ENDBRANCH  20  27
ENDBRANCH  13  16
ENDBRANCH   1  12
BRANCH   1  30
ATOM     30  C   UNL     1      -5.248   1.562   2.374  0.00  0.00    +0.065 C 
BRANCH  30  34
ATOM     31  C   UNL     1      -2.522  -1.334   3.933  0.00  0.00    +0.000 A 
ATOM     32  C   UNL     1      -2.153  -0.004   3.864  0.00  0.00    +0.000 A 
ATOM     33  C   UNL     1      -3.035   0.933   3.360  0.00  0.00    +0.004 A 
ATOM     34  C   UNL     1      -4.287   0.540   2.924  0.00  0.00    -0.045 A 
ATOM     35  C   UNL     1      -4.658  -0.789   2.997  0.00  0.00    +0.004 A 
ATOM     36  C   UNL     1      -3.774  -1.727   3.496  0.00  0.00    +0.000 A 
ENDBRANCH  30  34
ENDBRANCH   1  30
TORSDOF 7
