REMARK  Name = ZINC36054123
REMARK  7 active torsions:
REMARK  status: ('A' for Active; 'I' for Inactive)
REMARK    1  A    between atoms: C_3  and  C_9
REMARK    2  A    between atoms: C_9  and  N_10
REMARK    3  A    between atoms: N_10  and  C_11
REMARK    4  A    between atoms: N_10  and  C_21
REMARK    5  A    between atoms: C_11  and  C_12
REMARK    6  A    between atoms: C_21  and  C_22
REMARK    7  A    between atoms: C_24  and  C_27
REMARK                            x       y       z     vdW  Elec       q    Type
REMARK                         _______ _______ _______ _____ _____    ______ ____
ROOT
ATOM      1  N   UNK     1       4.207   2.217   1.341  0.00  0.00    +0.391 N 
ATOM      2  H   UNK     1       3.427   2.462   1.933  0.00  0.00    -0.080 HD
ENDROOT
BRANCH   1   3
ATOM      3  C   UNK     1       3.773   2.209  -0.063  0.00  0.00    -0.040 C 
BRANCH   3   6
ATOM      4  C   UNK     1       0.212   0.971  -0.265  0.00  0.00    +0.002 A 
ATOM      5  C   UNK     1       1.304   1.808  -0.124  0.00  0.00    +0.003 A 
ATOM      6  C   UNK     1       2.584   1.296  -0.215  0.00  0.00    -0.044 A 
ATOM      7  C   UNK     1       2.774  -0.054  -0.448  0.00  0.00    +0.061 A 
ATOM      8  C   UNK     1       1.681  -0.892  -0.589  0.00  0.00    +0.059 A 
ATOM      9  C   UNK     1       0.400  -0.378  -0.497  0.00  0.00    +0.021 A 
ATOM     10 CL   UNK     1       1.918  -2.587  -0.881  0.00  0.00    -0.082 Cl
ATOM     11 CL   UNK     1       4.382  -0.698  -0.564  0.00  0.00    -0.082 Cl
ENDBRANCH   3   6
ENDBRANCH   1   3
BRANCH   1  12
ATOM     12  C   UNK     1       4.702   0.884   1.709  0.00  0.00    -0.042 C 
BRANCH  12  13
ATOM     13  C   UNK     1       5.045   0.863   3.176  0.00  0.00    -0.060 A 
ATOM     14  C   UNK     1       6.348   1.082   3.583  0.00  0.00    +0.005 A 
ATOM     15  C   UNK     1       6.668   1.064   4.928  0.00  0.00    +0.050 A 
ATOM     16  C   UNK     1       5.682   0.825   5.871  0.00  0.00    +0.166 A 
ATOM     17  C   UNK     1       4.369   0.604   5.462  0.00  0.00    +0.166 A 
ATOM     18  C   UNK     1       4.055   0.629   4.112  0.00  0.00    +0.051 A 
ATOM     19  O   UNK     1       3.596   0.396   6.567  0.00  0.00    -0.453 OA
ATOM     20  C   UNK     1       4.519   0.086   7.628  0.00  0.00    +0.466 C 
ATOM     21  O   UNK     1       5.731   0.755   7.234  0.00  0.00    -0.453 OA
ENDBRANCH  12  13
ENDBRANCH   1  12
BRANCH   1  22
ATOM     22  C   UNK     1       5.281   3.204   1.516  0.00  0.00    +0.018 C 
BRANCH  22  23
ATOM     23  C   UNK     1       4.741   4.587   1.257  0.00  0.00    +0.158 A 
ATOM     24  N   UNK     1       4.224   5.371   2.154  0.00  0.00    -0.323 N 
ATOM     25  C   UNK     1       3.849   6.531   1.547  0.00  0.00    +0.166 A 
ATOM     26  C   UNK     1       4.166   6.412   0.226  0.00  0.00    +0.230 A 
ATOM     27  O   UNK     1       4.723   5.202   0.066  0.00  0.00    -0.451 OA
ATOM     28  H   UNK     1       4.122   5.165   3.096  0.00  0.00    +0.169 HD
BRANCH  25  29
ATOM     29  C   UNK     1       3.220   7.692   2.194  0.00  0.00    +0.406 C 
ATOM     30  O   UNK     1       2.986   7.671   3.395  0.00  0.00    -0.239 OA
ATOM     31  O   UNK     1       2.930   8.679   1.531  0.00  0.00    -0.239 OA
ENDBRANCH  25  29
ENDBRANCH  22  23
ENDBRANCH   1  22
TORSDOF 7
