REMARK  Name = ZINC10001658
REMARK  12 active torsions:
REMARK  status: ('A' for Active; 'I' for Inactive)
REMARK    1  A    between atoms: C_1  and  C_2
REMARK    2  A    between atoms: C_2  and  N_3
REMARK    3  A    between atoms: C_4  and  C_20
REMARK    4  A    between atoms: C_7  and  S_8
REMARK    5  A    between atoms: S_8  and  C_9
REMARK    6  A    between atoms: C_9  and  C_10
REMARK    7  A    between atoms: N_12  and  C_13
REMARK    8  A    between atoms: C_20  and  C_22
REMARK    9  A    between atoms: C_20  and  N_25
REMARK   10  A    between atoms: C_22  and  C_23
REMARK   11  A    between atoms: C_22  and  C_24
REMARK   12  A    between atoms: C_26  and  C_28
REMARK                            x       y       z     vdW  Elec       q    Type
REMARK                         _______ _______ _______ _____ _____    ______ ____
ROOT
ATOM      1  N   UNL     1      -0.268   0.803  -3.966  0.00  0.00    -0.305 N 
ATOM      2  C   UNL     1       0.772   0.128  -4.545  0.00  0.00    +0.155 A 
ATOM      3  N   UNL     1       1.391  -0.516  -3.597  0.00  0.00    -0.132 NA
ATOM      4  N   UNL     1       0.822  -0.293  -2.466  0.00  0.00    -0.122 NA
ATOM      5  C   UNL     1      -0.206   0.506  -2.635  0.00  0.00    +0.192 A 
ENDROOT
BRANCH   1   7
ATOM      6  C   UNL     1      -0.799   3.124  -4.526  0.00  0.00    +0.027 C 
ATOM      7  C   UNL     1      -1.245   1.664  -4.636  0.00  0.00    +0.122 C 
ENDBRANCH   1   7
BRANCH   5   8
ATOM      8  S   UNL     1      -1.295   1.091  -1.379  0.00  0.00    -0.077 S 
BRANCH   8   9
ATOM      9  C   UNL     1      -0.574   0.276   0.067  0.00  0.00    +0.173 C 
BRANCH   9  10
ATOM     10  C   UNL     1      -1.365   0.642   1.296  0.00  0.00    +0.227 C 
ATOM     11  O   UNL     1      -2.323   1.381   1.203  0.00  0.00    -0.275 OA
ATOM     12  N   UNL     1      -1.010   0.148   2.498  0.00  0.00    -0.285 N 
ATOM     13  H   UNL     1      -0.202  -0.383   2.585  0.00  0.00    +0.155 HD
BRANCH  12  14
ATOM     14  C   UNL     1      -1.805   0.401   3.622  0.00  0.00    +0.033 A 
ATOM     15  C   UNL     1      -1.216   0.558   4.870  0.00  0.00    +0.025 A 
ATOM     16  C   UNL     1      -2.003   0.812   5.976  0.00  0.00    +0.022 A 
ATOM     17  C   UNL     1      -3.378   0.899   5.844  0.00  0.00    +0.041 A 
ATOM     18  C   UNL     1      -3.967   0.737   4.603  0.00  0.00    +0.022 A 
ATOM     19  C   UNL     1      -3.185   0.488   3.492  0.00  0.00    +0.025 A 
ATOM     20 CL   UNL     1      -4.364   1.212   7.238  0.00  0.00    -0.084 Cl
ENDBRANCH  12  14
ENDBRANCH   9  10
ENDBRANCH   8   9
ENDBRANCH   5   8
BRANCH   2  21
ATOM     21  C   UNL     1       1.134   0.130  -6.008  0.00  0.00    +0.144 C 
BRANCH  21  22
ATOM     22  N   UNL     1       1.278  -1.250  -6.477  0.00  0.00    -0.301 N 
ATOM     23  C   UNL     1       1.098  -1.540  -7.781  0.00  0.00    +0.245 C 
ATOM     24  O   UNL     1       0.817  -0.657  -8.567  0.00  0.00    -0.270 OA
ATOM     25  H   UNL     1       1.502  -1.955  -5.849  0.00  0.00    +0.150 HD
BRANCH  23  26
ATOM     26  C   UNL     1       1.242  -2.931  -8.254  0.00  0.00    +0.040 A 
ATOM     27  C   UNL     1       1.571  -3.947  -7.352  0.00  0.00    +0.017 A 
ATOM     28  C   UNL     1       1.700  -5.245  -7.795  0.00  0.00    +0.050 A 
ATOM     29  C   UNL     1       1.516  -5.548  -9.137  0.00  0.00    +0.166 A 
ATOM     30  C   UNL     1       1.193  -4.537 -10.044  0.00  0.00    +0.167 A 
ATOM     31  C   UNL     1       1.057  -3.234  -9.605  0.00  0.00    +0.062 A 
ATOM     32  O   UNL     1       1.068  -5.090 -11.286  0.00  0.00    -0.453 OA
ATOM     33  C   UNL     1       1.717  -6.372 -11.202  0.00  0.00    +0.466 C 
ATOM     34  O   UNL     1       1.592  -6.730  -9.813  0.00  0.00    -0.453 OA
ENDBRANCH  23  26
ENDBRANCH  21  22
BRANCH  21  35
ATOM     35  C   UNL     1       2.455   0.876  -6.205  0.00  0.00    +0.011 C 
ATOM     36  C   UNL     1       2.316   2.307  -5.681  0.00  0.00    +0.009 C 
ATOM     37  C   UNL     1       3.566   0.158  -5.436  0.00  0.00    +0.009 C 
ENDBRANCH  21  35
ENDBRANCH   2  21
TORSDOF 9
