REMARK  Name = ZINC40740482
REMARK  12 active torsions:
REMARK  status: ('A' for Active; 'I' for Inactive)
REMARK    1  A    between atoms: C_1  and  C_2
REMARK    2  A    between atoms: C_2  and  O_3
REMARK    3  A    between atoms: O_3  and  C_4
REMARK    4  A    between atoms: C_6  and  C_21
REMARK    5  A    between atoms: C_9  and  O_10
REMARK    6  A    between atoms: O_10  and  C_11
REMARK    7  A    between atoms: C_11  and  C_12
REMARK    8  A    between atoms: C_21  and  N_22
REMARK    9  A    between atoms: N_22  and  C_23
REMARK   10  A    between atoms: C_23  and  C_24
REMARK   11  A    between atoms: C_24  and  C_25
REMARK   12  A    between atoms: C_25  and  N_26
REMARK                            x       y       z     vdW  Elec       q    Type
REMARK                         _______ _______ _______ _____ _____    ______ ____
ROOT
ATOM      1  C   UNL     1      -1.498  -1.849   0.006  0.00  0.00    +0.163 A 
ATOM      2  C   UNL     1      -0.389  -2.680  -0.003  0.00  0.00    +0.051 A 
ATOM      3  C   UNL     1      -0.553  -4.052  -0.009  0.00  0.00    -0.060 A 
ATOM      4  C   UNL     1      -1.822  -4.600  -0.006  0.00  0.00    +0.021 A 
ATOM      5  C   UNL     1      -2.934  -3.777   0.003  0.00  0.00    +0.063 A 
ATOM      6  C   UNL     1      -2.776  -2.400   0.016  0.00  0.00    +0.176 A 
ATOM      7 BR   UNL     1      -4.668  -4.531   0.006  0.00  0.00    -0.046 Br
ENDROOT
BRANCH   1   8
ATOM      8  O   UNL     1      -1.339  -0.499   0.012  0.00  0.00    -0.489 OA
BRANCH   8  10
ATOM      9  C   UNL     1      -0.019   1.526   0.010  0.00  0.00    +0.048 C 
ATOM     10  C   UNL     1       0.002  -0.004   0.002  0.00  0.00    +0.226 C 
ENDBRANCH   8  10
ENDBRANCH   1   8
BRANCH   6  11
ATOM     11  O   UNL     1      -3.868  -1.589   0.030  0.00  0.00    -0.483 OA
BRANCH  11  12
ATOM     12  C   UNL     1      -4.401  -1.195  -1.236  0.00  0.00    +0.266 C 
BRANCH  12  13
ATOM     13  C   UNL     1      -5.598  -0.305  -1.022  0.00  0.00    +0.008 A 
ATOM     14  C   UNL     1      -6.006   0.007   0.261  0.00  0.00    +0.011 A 
ATOM     15  C   UNL     1      -7.104   0.823   0.459  0.00  0.00    +0.039 A 
ATOM     16  C   UNL     1      -7.796   1.328  -0.629  0.00  0.00    +0.125 A 
ATOM     17  C   UNL     1      -7.387   1.015  -1.914  0.00  0.00    +0.058 A 
ATOM     18  C   UNL     1      -6.285   0.203  -2.110  0.00  0.00    +0.050 A 
ATOM     19 CL   UNL     1      -5.767  -0.185  -3.721  0.00  0.00    -0.083 Cl
ATOM     20  F   UNL     1      -8.870   2.125  -0.437  0.00  0.00    -0.205 F 
ENDBRANCH  12  13
ENDBRANCH  11  12
ENDBRANCH   6  11
BRANCH   3  21
ATOM     21  C   UNL     1       0.655  -4.954  -0.020  0.00  0.00    -0.047 C 
BRANCH  21  22
ATOM     22  N   UNL     1       1.054  -5.253   1.362  0.00  0.00    +0.382 N 
ATOM     23  H   UNL     1       1.280  -4.394   1.841  0.00  0.00    -0.085 HD
ATOM     24  H   UNL     1       0.294  -5.715   1.839  0.00  0.00    -0.085 HD
BRANCH  22  25
ATOM     25  C   UNL     1       2.232  -6.132   1.351  0.00  0.00    -0.081 C 
BRANCH  25  26
ATOM     26  C   UNL     1       2.648  -6.444   2.790  0.00  0.00    -0.000 C 
BRANCH  26  27
ATOM     27  C   UNL     1       3.874  -7.359   2.779  0.00  0.00    +0.106 C 
BRANCH  27  28
ATOM     28  N   UNL     1       4.272  -7.659   4.157  0.00  0.00    -0.302 N 
ATOM     29  C   UNL     1       5.217  -6.853   4.939  0.00  0.00    +0.108 C 
ATOM     30  C   UNL     1       4.995  -7.270   6.410  0.00  0.00    +0.028 C 
ATOM     31  C   UNL     1       4.431  -8.700   6.251  0.00  0.00    +0.097 C 
ATOM     32  C   UNL     1       3.814  -8.703   4.869  0.00  0.00    +0.216 C 
ATOM     33  O   UNL     1       3.024  -9.528   4.462  0.00  0.00    -0.276 OA
ENDBRANCH  27  28
ENDBRANCH  26  27
ENDBRANCH  25  26
ENDBRANCH  22  25
ENDBRANCH  21  22
ENDBRANCH   3  21
TORSDOF 11
