REMARK  Name = ZINC14664202
REMARK  7 active torsions:
REMARK  status: ('A' for Active; 'I' for Inactive)
REMARK    1  A    between atoms: C_1  and  C_2
REMARK    2  A    between atoms: C_2  and  C_3
REMARK    3  A    between atoms: C_2  and  O_4
REMARK    4  A    between atoms: O_4  and  C_5
REMARK    5  A    between atoms: C_10  and  C_11
REMARK    6  A    between atoms: N_13  and  N_14
REMARK    7  A    between atoms: C_15  and  C_17
REMARK                            x       y       z     vdW  Elec       q    Type
REMARK                         _______ _______ _______ _____ _____    ______ ____
ROOT
ATOM      1  C   UNL     1       3.370  10.078  -0.430  0.00  0.00    +0.264 C 
ATOM      2  O   UNL     1       2.190  10.370  -0.419  0.00  0.00    -0.269 OA
ATOM      3  N   UNL     1       3.747   8.803  -0.653  0.00  0.00    -0.230 N 
ATOM      4  H   UNL     1       4.688   8.570  -0.662  0.00  0.00    +0.173 HD
ENDROOT
BRANCH   1  10
ATOM      5  C   UNL     1       4.003  12.445   0.031  0.00  0.00    +0.133 A 
ATOM      6  C   UNL     1       4.970  13.416   0.246  0.00  0.00    +0.046 A 
ATOM      7  C   UNL     1       6.308  13.075   0.232  0.00  0.00    +0.004 A 
ATOM      8  C   UNL     1       6.695  11.764   0.003  0.00  0.00    +0.001 A 
ATOM      9  C   UNL     1       5.747  10.786  -0.207  0.00  0.00    +0.017 A 
ATOM     10  C   UNL     1       4.390  11.118  -0.200  0.00  0.00    +0.080 A 
BRANCH   5  11
ATOM     11  O   UNL     1       2.688  12.779   0.046  0.00  0.00    -0.489 OA
BRANCH  11  13
ATOM     12  C   UNL     1       0.992  14.431  -0.437  0.00  0.00    +0.051 C 
ATOM     13  C   UNL     1       2.373  14.167   0.168  0.00  0.00    +0.167 C 
ATOM     14  C   UNL     1       2.365  14.561   1.646  0.00  0.00    +0.051 C 
ENDBRANCH  11  13
ENDBRANCH   5  11
ENDBRANCH   1  10
BRANCH   3  15
ATOM     15  N   UNL     1       2.778   7.814  -0.871  0.00  0.00    -0.230 N 
ATOM     16  C   UNL     1       3.155   6.539  -1.093  0.00  0.00    +0.268 C 
ATOM     17  O   UNL     1       4.336   6.247  -1.105  0.00  0.00    -0.268 OA
ATOM     18  H   UNL     1       1.837   8.047  -0.862  0.00  0.00    +0.173 HD
BRANCH  16  19
ATOM     19  C   UNL     1       2.140   5.503  -1.322  0.00  0.00    +0.095 A 
ATOM     20  C   UNL     1       2.322   4.176  -1.562  0.00  0.00    +0.068 A 
ATOM     21  C   UNL     1       1.207   3.339  -1.757  0.00  0.00    +0.008 A 
ATOM     22  C   UNL     1       1.190   1.945  -2.015  0.00  0.00    +0.010 A 
ATOM     23  C   UNL     1       0.016   1.283  -2.180  0.00  0.00    +0.001 A 
ATOM     24  C   UNL     1      -1.207   1.939  -2.109  0.00  0.00    +0.001 A 
ATOM     25  C   UNL     1      -1.237   3.295  -1.853  0.00  0.00    +0.016 A 
ATOM     26  C   UNL     1      -0.052   3.981  -1.683  0.00  0.00    +0.021 A 
ATOM     27  S   UNL     1       0.364   5.675  -1.355  0.00  0.00    -0.082 S 
ATOM     28 CL   UNL     1       3.926   3.516  -1.627  0.00  0.00    -0.082 Cl
ENDBRANCH  16  19
ENDBRANCH   3  15
TORSDOF 5
