REMARK  Name = ZINC26440764
REMARK  8 active torsions:
REMARK  status: ('A' for Active; 'I' for Inactive)
REMARK    1  A    between atoms: C_1  and  C_2
REMARK    2  A    between atoms: C_2  and  C_3
REMARK    3  A    between atoms: C_2  and  C_4
REMARK    4  A    between atoms: C_2  and  C_5
REMARK    5  A    between atoms: C_8  and  C_23
REMARK    6  A    between atoms: N_14  and  C_16
REMARK    7  A    between atoms: C_23  and  N_24
REMARK    8  A    between atoms: N_24  and  C_25
REMARK                            x       y       z     vdW  Elec       q    Type
REMARK                         _______ _______ _______ _____ _____    ______ ____
ROOT
ATOM      1  C   UNL     1      -1.013  -0.990   0.006  0.00  0.00    +0.078 A 
ATOM      2  C   UNL     1       0.002  -0.004   0.002  0.00  0.00    +0.041 A 
ATOM      3  C   UNL     1      -0.017   1.409   0.010  0.00  0.00    +0.020 A 
ATOM      4  C   UNL     1       1.161   2.087   0.002  0.00  0.00    +0.001 A 
ATOM      5  C   UNL     1       2.378   1.382  -0.013  0.00  0.00    +0.252 A 
ATOM      6  O   UNL     1       3.431   1.998  -0.020  0.00  0.00    -0.268 OA
ATOM      7  N   UNL     1       2.396   0.036  -0.021  0.00  0.00    -0.307 N 
ATOM      8  H   UNL     1       3.355  -0.502  -0.033  0.00  0.00    +0.170 HD
ATOM      9  C   UNL     1       1.227  -0.676  -0.013  0.00  0.00    +0.145 A 
ATOM     10  N   UNL     1       0.947  -2.005  -0.018  0.00  0.00    -0.216 N 
ATOM     11  N   UNL     1      -0.445  -2.162  -0.005  0.00  0.00    -0.168 NA
ENDROOT
BRANCH  10  12
ATOM     12  C   UNL     1       1.889  -3.043  -0.033  0.00  0.00    +0.068 A 
ATOM     13  C   UNL     1       3.076  -2.893  -0.737  0.00  0.00    +0.029 A 
ATOM     14  C   UNL     1       4.006  -3.915  -0.746  0.00  0.00    +0.022 A 
ATOM     15  C   UNL     1       3.750  -5.091  -0.063  0.00  0.00    +0.041 A 
ATOM     16  C   UNL     1       2.565  -5.244   0.635  0.00  0.00    +0.022 A 
ATOM     17  C   UNL     1       1.635  -4.223   0.652  0.00  0.00    +0.029 A 
ATOM     18 CL   UNL     1       4.917  -6.376  -0.083  0.00  0.00    -0.084 Cl
ENDBRANCH  10  12
BRANCH   1  20
ATOM     19  C   UNL     1      -2.886   0.077  -1.219  0.00  0.00    +0.017 C 
ATOM     20  C   UNL     1      -2.497  -0.728   0.022  0.00  0.00    +0.007 C 
ATOM     21  C   UNL     1      -3.249  -2.060   0.022  0.00  0.00    +0.017 C 
ATOM     22  C   UNL     1      -2.862   0.064   1.279  0.00  0.00    +0.017 C 
ENDBRANCH   1  20
BRANCH   4  23
ATOM     23  C   UNL     1       1.164   3.594   0.010  0.00  0.00    -0.041 C 
BRANCH  23  24
ATOM     24  N   UNL     1       1.298   4.076   1.391  0.00  0.00    +0.384 N 
ATOM     25  H   UNL     1       0.454   3.708   1.992  0.00  0.00    -0.085 HD
ATOM     26  H   UNL     1       2.242   3.705   1.819  0.00  0.00    -0.085 HD
BRANCH  24  27
ATOM     27  C   UNL     1       1.304   5.544   1.438  0.00  0.00    -0.071 C 
ATOM     28  C   UNL     1       2.725   6.056   1.190  0.00  0.00    -0.016 C 
ATOM     29  C   UNL     1       2.731   7.586   1.239  0.00  0.00    -0.002 C 
ATOM     30  C   UNL     1       2.253   8.054   2.615  0.00  0.00    -0.000 C 
ATOM     31  C   UNL     1       0.833   7.542   2.863  0.00  0.00    -0.002 C 
ATOM     32  C   UNL     1       0.826   6.013   2.814  0.00  0.00    -0.016 C 
ENDBRANCH  24  27
ENDBRANCH  23  24
ENDBRANCH   4  23
TORSDOF 5
