REMARK  Name = ZINC64640418
REMARK  11 active torsions:
REMARK  status: ('A' for Active; 'I' for Inactive)
REMARK    1  A    between atoms: C_1  and  C_2
REMARK    2  A    between atoms: C_7  and  C_12
REMARK    3  A    between atoms: C_12  and  C_14
REMARK    4  A    between atoms: C_12  and  N_15
REMARK    5  A    between atoms: C_16  and  C_18
REMARK    6  A    between atoms: N_20  and  C_29
REMARK    7  A    between atoms: C_22  and  C_25
REMARK    8  A    between atoms: N_27  and  C_28
REMARK    9  A    between atoms: C_29  and  C_30
REMARK   10  A    between atoms: C_30  and  C_31
REMARK   11  A    between atoms: C_31  and  C_32
REMARK                            x       y       z     vdW  Elec       q    Type
REMARK                         _______ _______ _______ _____ _____    ______ ____
ROOT
ATOM      1  C   UNL     1       2.534  -8.400   0.537  0.00  0.00    +0.100 A 
ATOM      2  C   UNL     1       3.715  -9.095   0.396  0.00  0.00    +0.102 A 
ATOM      3  N   UNL     1       3.741 -10.335  -0.119  0.00  0.00    -0.352 N 
ATOM      4  C   UNL     1       2.640 -10.987  -0.529  0.00  0.00    +0.102 A 
ATOM      5  C   UNL     1       1.391 -10.411  -0.446  0.00  0.00    +0.100 A 
ATOM      6  C   UNL     1       1.284  -9.053   0.115  0.00  0.00    +0.206 A 
ATOM      7  O   UNL     1       0.206  -8.492   0.219  0.00  0.00    -0.286 OA
ENDROOT
BRANCH   5   8
ATOM      8  C   UNL     1       0.193 -11.137  -0.900  0.00  0.00    +0.249 C 
ATOM      9  O   UNL     1       0.284 -12.296  -1.259  0.00  0.00    -0.270 OA
ATOM     10  N   UNL     1      -1.004 -10.518  -0.918  0.00  0.00    -0.314 N 
ATOM     11  C   UNL     1      -2.174 -11.202  -1.473  0.00  0.00    +0.128 C 
ATOM     12  H   UNL     1      -1.091  -9.620  -0.563  0.00  0.00    +0.149 HD
ENDBRANCH   5   8
BRANCH   1  14
ATOM     13  N   UNL     1       1.348  -6.419   1.338  0.00  0.00    -0.305 N 
ATOM     14  C   UNL     1       2.521  -7.040   1.103  0.00  0.00    +0.250 C 
ATOM     15  O   UNL     1       3.568  -6.477   1.358  0.00  0.00    -0.270 OA
ATOM     16  H   UNL     1       0.515  -6.836   1.067  0.00  0.00    +0.149 HD
BRANCH  13  17
ATOM     17  C   UNL     1       1.330  -5.114   2.003  0.00  0.00    +0.113 C 
ATOM     18  C   UNL     1       1.360  -5.314   3.520  0.00  0.00    +0.032 C 
BRANCH  17  25
ATOM     19  C   UNL     1      -0.071   1.493   0.143  0.00  0.00    +0.044 C 
ATOM     20  C   UNL     1      -0.044  -0.014   0.119  0.00  0.00    -0.048 A 
ATOM     21  C   UNL     1      -0.050  -0.669  -1.125  0.00  0.00    +0.005 A 
ATOM     22  C   UNL     1      -0.027  -2.012  -1.239  0.00  0.00    +0.027 A 
ATOM     23  C   UNL     1       0.006  -2.842  -0.027  0.00  0.00    +0.060 A 
ATOM     24  N   UNL     1       0.032  -4.130   0.164  0.00  0.00    -0.362 N 
ATOM     25  C   UNL     1       0.057  -4.360   1.614  0.00  0.00    +0.194 C 
ATOM     26  N   UNL     1       0.043  -3.034   2.244  0.00  0.00    -0.362 N 
ATOM     27  C   UNL     1       0.013  -2.148   1.290  0.00  0.00    +0.060 A 
ATOM     28  C   UNL     1      -0.009  -0.679   1.291  0.00  0.00    +0.030 A 
ATOM     29  H   UNL     1       0.033  -4.812  -0.526  0.00  0.00    +0.162 HD
ATOM     30  H   UNL     1       0.054  -2.851   3.196  0.00  0.00    +0.162 HD
ENDBRANCH  17  25
ENDBRANCH  13  17
ENDBRANCH   1  14
BRANCH   3  31
ATOM     31  C   UNL     1       5.035 -11.011  -0.239  0.00  0.00    +0.121 C 
BRANCH  31  32
ATOM     32  C   UNL     1       5.320 -11.798   1.041  0.00  0.00    +0.026 C 
BRANCH  32  33
ATOM     33  C   UNL     1       6.671 -12.505   0.915  0.00  0.00    +0.037 C 
BRANCH  33  34
ATOM     34  C   UNL     1       6.952 -13.280   2.176  0.00  0.00    -0.047 A 
ATOM     35  C   UNL     1       7.620 -12.676   3.225  0.00  0.00    +0.003 A 
ATOM     36  C   UNL     1       7.878 -13.387   4.382  0.00  0.00    +0.000 A 
ATOM     37  C   UNL     1       7.468 -14.703   4.490  0.00  0.00    +0.000 A 
ATOM     38  C   UNL     1       6.799 -15.307   3.442  0.00  0.00    +0.000 A 
ATOM     39  C   UNL     1       6.537 -14.594   2.287  0.00  0.00    +0.003 A 
ENDBRANCH  33  34
ENDBRANCH  32  33
ENDBRANCH  31  32
ENDBRANCH   3  31
TORSDOF 8
