REMARK  Name = ZINC58913800
REMARK  7 active torsions:
REMARK  status: ('A' for Active; 'I' for Inactive)
REMARK    1  A    between atoms: C_1  and  C_2
REMARK    2  A    between atoms: C_2  and  C_4
REMARK    3  A    between atoms: C_2  and  N_11
REMARK    4  A    between atoms: C_12  and  C_14
REMARK    5  A    between atoms: C_14  and  N_15
REMARK    6  A    between atoms: C_18  and  C_21
REMARK    7  A    between atoms: C_21  and  N_22
REMARK                            x       y       z     vdW  Elec       q    Type
REMARK                         _______ _______ _______ _____ _____    ______ ____
ROOT
ATOM      1  N   UNL     1      -0.029  -0.750   5.022  0.00  0.00    +0.385 N 
ATOM      2  C   UNL     1      -1.034  -1.718   4.566  0.00  0.00    -0.078 C 
ATOM      3  C   UNL     1      -2.103  -1.896   5.645  0.00  0.00    -0.017 C 
ATOM      4  C   UNL     1      -1.444  -2.410   6.929  0.00  0.00    -0.031 C 
ATOM      5  C   UNL     1      -0.347  -1.429   7.355  0.00  0.00    -0.017 C 
ATOM      6  C   UNL     1       0.657  -1.268   6.212  0.00  0.00    -0.078 C 
ATOM      7  H   UNL     1      -0.484   0.122   5.250  0.00  0.00    -0.081 HD
ENDROOT
BRANCH   1   8
ATOM      8  C   UNL     1       0.952  -0.523   3.952  0.00  0.00    +0.019 C 
BRANCH   8  10
ATOM      9  N   UNL     1       0.978   0.427   1.668  0.00  0.00    -0.310 N 
ATOM     10  C   UNL     1       0.270   0.123   2.774  0.00  0.00    +0.197 C 
ATOM     11  O   UNL     1      -0.917   0.371   2.821  0.00  0.00    -0.278 OA
ATOM     12  H   UNL     1       1.927   0.229   1.631  0.00  0.00    +0.149 HD
BRANCH   9  14
ATOM     13  C   UNL     1       0.267   2.570   0.730  0.00  0.00    +0.033 C 
ATOM     14  C   UNL     1       0.315   1.055   0.523  0.00  0.00    +0.100 C 
BRANCH  14  15
ATOM     15  C   UNL     1       1.084   0.744  -0.735  0.00  0.00    -0.027 A 
ATOM     16  C   UNL     1       2.466   0.745  -0.719  0.00  0.00    +0.006 A 
ATOM     17  C   UNL     1       3.172   0.459  -1.872  0.00  0.00    +0.015 A 
ATOM     18  C   UNL     1       2.494   0.172  -3.044  0.00  0.00    +0.018 A 
ATOM     19  C   UNL     1       1.111   0.170  -3.060  0.00  0.00    +0.015 A 
ATOM     20  C   UNL     1       0.406   0.451  -1.904  0.00  0.00    +0.006 A 
ATOM     21 BR   UNL     1       3.459  -0.219  -4.622  0.00  0.00    -0.050 Br
ENDBRANCH  14  15
ENDBRANCH   9  14
ENDBRANCH   8  10
ENDBRANCH   1   8
BRANCH   4  22
ATOM     22  C   UNL     1      -2.494  -2.515   8.037  0.00  0.00    -0.076 C 
BRANCH  22  23
ATOM     23  N   UNL     1      -1.877  -3.081   9.244  0.00  0.00    +0.380 N 
ATOM     24  C   UNL     1      -1.421  -4.453   8.944  0.00  0.00    -0.079 C 
ATOM     25  C   UNL     1      -0.306  -4.800   9.898  0.00  0.00    -0.019 C 
ATOM     26  C   UNL     1      -0.830  -5.583  11.116  0.00  0.00    -0.002 C 
ATOM     27  C   UNL     1      -2.171  -5.017  11.626  0.00  0.00    -0.002 C 
ATOM     28  C   UNL     1      -2.197  -3.510  11.622  0.00  0.00    -0.019 C 
ATOM     29  C   UNL     1      -2.800  -3.021  10.289  0.00  0.00    -0.079 C 
ATOM     30  H   UNL     1      -1.074  -2.522   9.489  0.00  0.00    -0.082 HD
ENDBRANCH  22  23
ENDBRANCH   4  22
TORSDOF 6
