REMARK  Name = ZINC08834841
REMARK  13 active torsions:
REMARK  status: ('A' for Active; 'I' for Inactive)
REMARK    1  A    between atoms: C_1  and  C_2
REMARK    2  A    between atoms: C_2  and  C_3
REMARK    3  A    between atoms: C_2  and  C_4
REMARK    4  A    between atoms: C_4  and  N_5
REMARK    5  A    between atoms: N_5  and  C_6
REMARK    6  A    between atoms: C_7  and  C_17
REMARK    7  A    between atoms: N_21  and  C_25
REMARK    8  A    between atoms: C_25  and  C_26
REMARK    9  A    between atoms: C_26  and  C_27
REMARK   10  A    between atoms: C_30  and  O_35
REMARK   11  A    between atoms: C_31  and  O_33
REMARK   12  A    between atoms: O_33  and  C_34
REMARK   13  A    between atoms: O_35  and  C_36
REMARK                            x       y       z     vdW  Elec       q    Type
REMARK                         _______ _______ _______ _____ _____    ______ ____
ROOT
ATOM      1  C   UNL     1      -2.026   2.488   3.538  0.00  0.00    +0.037 C 
ATOM      2  C   UNL     1      -2.703   2.836   4.670  0.00  0.00    +0.077 C 
ATOM      3  C   UNL     1      -3.926   3.551   4.811  0.00  0.00    +0.258 C 
ATOM      4  O   UNL     1      -4.534   3.953   3.834  0.00  0.00    -0.269 OA
ATOM      5  N   UNL     1      -4.387   3.763   6.032  0.00  0.00    -0.255 N 
ATOM      6  C   UNL     1      -3.711   3.324   7.116  0.00  0.00    +0.121 C 
ATOM      7  S   UNL     1      -4.112   3.490   8.772  0.00  0.00    -0.027 S 
ATOM      8  S   UNL     1      -2.291   2.525   6.382  0.00  0.00    -0.061 S 
ENDROOT
BRANCH   1  10
ATOM      9  C   UNL     1       0.303   2.529   4.330  0.00  0.00    +0.134 A 
ATOM     10  C   UNL     1      -0.749   1.889   3.633  0.00  0.00    +0.081 A 
ATOM     11  C   UNL     1      -0.488   0.635   3.029  0.00  0.00    +0.267 A 
ATOM     12  O   UNL     1      -1.364   0.050   2.415  0.00  0.00    -0.267 OA
ATOM     13  N   UNL     1       0.744   0.097   3.150  0.00  0.00    -0.268 N 
ATOM     14  C   UNL     1       1.002  -1.112   2.575  0.00  0.00    +0.096 A 
ATOM     15  C   UNL     1       2.225  -1.680   2.677  0.00  0.00    +0.018 A 
ATOM     16  C   UNL     1       3.247  -1.027   3.379  0.00  0.00    +0.005 A 
ATOM     17  C   UNL     1       2.999   0.183   3.957  0.00  0.00    +0.047 A 
ATOM     18  C   UNL     1       1.721   0.758   3.840  0.00  0.00    +0.142 A 
ATOM     19  N   UNL     1       1.488   1.942   4.409  0.00  0.00    -0.214 NA
BRANCH   9  20
ATOM     20  N   UNL     1       0.094   3.753   4.928  0.00  0.00    -0.328 N 
ATOM     21  H   UNL     1      -0.775   4.180   4.869  0.00  0.00    +0.147 HD
BRANCH  20  22
ATOM     22  C   UNL     1       1.184   4.409   5.654  0.00  0.00    +0.106 C 
BRANCH  22  24
ATOM     23  C   UNL     1       1.790   6.369   7.080  0.00  0.00    +0.009 C 
ATOM     24  C   UNL     1       0.692   5.743   6.218  0.00  0.00    -0.000 C 
ATOM     25  C   UNL     1       0.348   6.688   5.064  0.00  0.00    +0.009 C 
ENDBRANCH  22  24
ENDBRANCH  20  22
ENDBRANCH   9  20
ENDBRANCH   1  10
BRANCH   5  26
ATOM     26  C   UNL     1      -5.646   4.491   6.212  0.00  0.00    +0.119 C 
BRANCH  26  27
ATOM     27  C   UNL     1      -5.358   5.989   6.325  0.00  0.00    +0.054 C 
BRANCH  27  28
ATOM     28  C   UNL     1      -6.652   6.737   6.511  0.00  0.00    -0.042 A 
ATOM     29  C   UNL     1      -7.139   6.969   7.784  0.00  0.00    +0.007 A 
ATOM     30  C   UNL     1      -8.326   7.655   7.960  0.00  0.00    +0.049 A 
ATOM     31  C   UNL     1      -9.031   8.112   6.858  0.00  0.00    +0.161 A 
ATOM     32  C   UNL     1      -8.542   7.879   5.577  0.00  0.00    +0.162 A 
ATOM     33  C   UNL     1      -7.349   7.195   5.408  0.00  0.00    +0.053 A 
BRANCH  32  34
ATOM     34  O   UNL     1      -9.230   8.326   4.492  0.00  0.00    -0.491 OA
ATOM     35  C   UNL     1      -8.668   8.050   3.208  0.00  0.00    +0.277 C 
ENDBRANCH  32  34
BRANCH  31  36
ATOM     36  O   UNL     1     -10.199   8.788   7.029  0.00  0.00    -0.491 OA
ATOM     37  C   UNL     1     -10.641   8.991   8.373  0.00  0.00    +0.277 C 
ENDBRANCH  31  36
ENDBRANCH  27  28
ENDBRANCH  26  27
ENDBRANCH   5  26
TORSDOF 9
