REMARK  Name = ZINC21257305
REMARK  9 active torsions:
REMARK  status: ('A' for Active; 'I' for Inactive)
REMARK    1  A    between atoms: C_1  and  C_2
REMARK    2  A    between atoms: C_2  and  C_3
REMARK    3  A    between atoms: C_2  and  O_4
REMARK    4  A    between atoms: O_4  and  C_5
REMARK    5  A    between atoms: C_8  and  C_11
REMARK    6  A    between atoms: C_16  and  C_26
REMARK    7  A    between atoms: C_29  and  N_32
REMARK    8  A    between atoms: N_32  and  C_33
REMARK    9  A    between atoms: N_32  and  C_34
REMARK                            x       y       z     vdW  Elec       q    Type
REMARK                         _______ _______ _______ _____ _____    ______ ____
ROOT
ATOM      1  C   UNL     1      -0.007   1.212  -0.220  0.00  0.00    +0.032 C 
ATOM      2  C   UNL     1      -0.702   2.148   0.767  0.00  0.00    +0.059 C 
ATOM      3  C   UNL     1      -0.372   1.735   2.192  0.00  0.00    +0.017 C 
ATOM      4  C   UNL     1       0.822   1.193   2.484  0.00  0.00    +0.036 C 
ATOM      5  C   UNL     1       1.288   0.761   3.854  0.00  0.00    +0.136 C 
ATOM      6  N   UNL     1       0.244   0.721   4.856  0.00  0.00    -0.331 N 
ATOM      7  C   UNL     1      -0.410   1.883   5.261  0.00  0.00    +0.049 A 
ATOM      8  C   UNL     1      -0.248   2.396   6.538  0.00  0.00    +0.025 A 
ATOM      9  C   UNL     1      -0.829   3.609   6.863  0.00  0.00    +0.002 A 
ATOM     10  C   UNL     1      -1.566   4.306   5.923  0.00  0.00    +0.002 A 
ATOM     11  C   UNL     1      -1.749   3.785   4.653  0.00  0.00    +0.025 A 
ATOM     12  C   UNL     1      -1.182   2.563   4.332  0.00  0.00    +0.052 A 
ATOM     13  N   UNL     1      -1.363   1.964   3.091  0.00  0.00    -0.316 N 
ATOM     14  C   UNL     1       1.777   0.980   1.462  0.00  0.00    +0.163 C 
ATOM     15  O   UNL     1       2.857   0.509   1.759  0.00  0.00    -0.292 OA
ATOM     16  C   UNL     1       1.503   1.312   0.026  0.00  0.00    +0.088 C 
ATOM     17  H   UNL     1      -0.044  -0.238   5.311  0.00  0.00    +0.147 HD
ATOM     18  H   UNL     1      -2.396   1.668   2.859  0.00  0.00    +0.152 HD
ENDROOT
BRANCH   1  22
ATOM     19  C   UNL     1      -0.903   2.401  -4.226  0.00  0.00    +0.121 A 
ATOM     20  C   UNL     1      -1.239   1.129  -3.787  0.00  0.00    +0.046 A 
ATOM     21  C   UNL     1      -0.948   0.747  -2.492  0.00  0.00    +0.007 A 
ATOM     22  C   UNL     1      -0.323   1.631  -1.633  0.00  0.00    -0.043 A 
ATOM     23  C   UNL     1       0.008   2.902  -2.066  0.00  0.00    +0.007 A 
ATOM     24  C   UNL     1      -0.276   3.287  -3.362  0.00  0.00    +0.046 A 
BRANCH  19  25
ATOM     25  O   UNL     1      -1.188   2.779  -5.500  0.00  0.00    -0.489 OA
BRANCH  25  27
ATOM     26  C   UNL     1      -3.243   1.717  -6.200  0.00  0.00    +0.051 C 
ATOM     27  C   UNL     1      -1.723   1.779  -6.369  0.00  0.00    +0.167 C 
ATOM     28  C   UNL     1      -1.385   2.130  -7.820  0.00  0.00    +0.051 C 
ENDBRANCH  25  27
ENDBRANCH  19  25
ENDBRANCH   1  22
BRANCH   5  29
ATOM     29  C   UNL     1       2.359   1.714   4.317  0.00  0.00    -0.023 A 
ATOM     30  C   UNL     1       2.049   3.042   4.545  0.00  0.00    +0.007 A 
ATOM     31  C   UNL     1       3.028   3.917   4.974  0.00  0.00    +0.023 A 
ATOM     32  C   UNL     1       4.327   3.464   5.167  0.00  0.00    +0.029 A 
ATOM     33  C   UNL     1       4.635   2.130   4.932  0.00  0.00    +0.023 A 
ATOM     34  C   UNL     1       3.651   1.260   4.508  0.00  0.00    +0.007 A 
BRANCH  32  35
ATOM     35  N   UNL     1       5.320   4.347   5.597  0.00  0.00    -0.336 N 
ATOM     36  C   UNL     1       6.689   3.867   5.800  0.00  0.00    +0.129 C 
ATOM     37  C   UNL     1       4.992   5.754   5.844  0.00  0.00    +0.129 C 
ENDBRANCH  32  35
ENDBRANCH   5  29
TORSDOF 5
