REMARK  Name = ZINC22682287
REMARK  9 active torsions:
REMARK  status: ('A' for Active; 'I' for Inactive)
REMARK    1  A    between atoms: C_1  and  C_2
REMARK    2  A    between atoms: N_11  and  C_15
REMARK    3  A    between atoms: C_15  and  C_16
REMARK    4  A    between atoms: N_18  and  C_19
REMARK    5  A    between atoms: C_19  and  C_20
REMARK    6  A    between atoms: C_20  and  C_22
REMARK    7  A    between atoms: C_20  and  N_29
REMARK    8  A    between atoms: N_29  and  C_30
REMARK    9  A    between atoms: N_29  and  C_31
REMARK                            x       y       z     vdW  Elec       q    Type
REMARK                         _______ _______ _______ _____ _____    ______ ____
ROOT
ATOM      1  C   UNL     1       1.810  -4.191  -3.042  0.00  0.00    +0.231 C 
ATOM      2  O   UNL     1       1.686  -3.364  -3.920  0.00  0.00    -0.274 OA
ATOM      3  N   UNL     1       1.705  -3.823  -1.750  0.00  0.00    -0.315 N 
ATOM      4  H   UNL     1       1.817  -4.573  -0.953  0.00  0.00    +0.149 HD
ENDROOT
BRANCH   1   5
ATOM      5  C   UNL     1       2.080  -5.631  -3.395  0.00  0.00    +0.213 C 
BRANCH   5  15
ATOM      6  C   UNL     1       1.239  -3.645  -7.296  0.00  0.00    +0.010 C 
ATOM      7  C   UNL     1       0.978  -5.022  -7.910  0.00  0.00    +0.018 C 
ATOM      8  C   UNL     1       1.569  -5.071  -9.322  0.00  0.00    +0.006 C 
ATOM      9  C   UNL     1       1.325  -6.455  -9.928  0.00  0.00    +0.000 C 
ATOM     10  C   UNL     1       2.004  -7.519  -9.063  0.00  0.00    +0.003 C 
ATOM     11  C   UNL     1       1.414  -7.479  -7.651  0.00  0.00    +0.035 C 
ATOM     12  C   UNL     1       1.631  -6.096  -7.047  0.00  0.00    +0.115 C 
ATOM     13  C   UNL     1       1.088  -6.048  -5.638  0.00  0.00    +0.247 C 
ATOM     14  O   UNL     1      -0.060  -6.221  -5.287  0.00  0.00    -0.273 OA
ATOM     15  N   UNL     1       2.149  -5.772  -4.852  0.00  0.00    -0.215 N 
ATOM     16  C   UNL     1       3.273  -5.648  -5.567  0.00  0.00    +0.310 C 
ATOM     17  O   UNL     1       4.360  -5.403  -5.082  0.00  0.00    -0.252 OA
ATOM     18  N   UNL     1       3.065  -5.824  -6.886  0.00  0.00    -0.285 N 
ATOM     19  H   UNL     1       3.723  -5.800  -7.768  0.00  0.00    +0.151 HD
ENDBRANCH   5  15
ENDBRANCH   1   5
BRANCH   3  20
ATOM     20  C   UNL     1       1.442  -2.423  -1.406  0.00  0.00    +0.093 C 
BRANCH  20  21
ATOM     21  C   UNL     1       1.257  -2.295   0.107  0.00  0.00    -0.021 C 
BRANCH  21  22
ATOM     22  C   UNL     1       1.028  -0.849   0.465  0.00  0.00    -0.057 A 
ATOM     23  C   UNL     1       2.059   0.064   0.345  0.00  0.00    +0.002 A 
ATOM     24  C   UNL     1       1.850   1.390   0.673  0.00  0.00    +0.003 A 
ATOM     25  C   UNL     1       0.610   1.805   1.121  0.00  0.00    +0.038 A 
ATOM     26  C   UNL     1      -0.423   0.892   1.241  0.00  0.00    +0.124 A 
ATOM     27  C   UNL     1      -0.213  -0.437   0.912  0.00  0.00    +0.040 A 
ATOM     28  F   UNL     1      -1.637   1.298   1.673  0.00  0.00    -0.205 F 
ENDBRANCH  21  22
BRANCH  21  29
ATOM     29  N   UNL     1       2.462  -2.784   0.791  0.00  0.00    +0.382 N 
ATOM     30  C   UNL     1       3.652  -2.612  -0.053  0.00  0.00    -0.096 C 
ATOM     31  C   UNL     1       2.637  -2.119   2.089  0.00  0.00    -0.096 C 
ATOM     32  H   UNL     1       2.332  -3.860   0.977  0.00  0.00    -0.082 HD
ENDBRANCH  21  29
ENDBRANCH  20  21
ENDBRANCH   3  20
TORSDOF 6
