REMARK  Name = ZINC09481661
REMARK  8 active torsions:
REMARK  status: ('A' for Active; 'I' for Inactive)
REMARK    1  A    between atoms: C_1  and  C_2
REMARK    2  A    between atoms: C_2  and  S_3
REMARK    3  A    between atoms: S_3  and  N_6
REMARK    4  A    between atoms: C_13  and  C_15
REMARK    5  A    between atoms: C_15  and  C_17
REMARK    6  A    between atoms: C_17  and  N_18
REMARK    7  A    between atoms: C_21  and  C_26
REMARK    8  A    between atoms: C_26  and  C_27
REMARK                            x       y       z     vdW  Elec       q    Type
REMARK                         _______ _______ _______ _____ _____    ______ ____
ROOT
ATOM      1  N   UNL     1      -1.799   5.928  -1.915  0.00  0.00    -0.217 N 
ATOM      2  C   UNL     1      -2.723   5.086  -1.413  0.00  0.00    +0.244 C 
ATOM      3  O   UNL     1      -3.849   5.362  -1.056  0.00  0.00    -0.273 OA
ATOM      4  C   UNL     1      -2.063   3.721  -1.387  0.00  0.00    +0.165 C 
ATOM      5  N   UNL     1      -0.717   3.978  -1.928  0.00  0.00    -0.287 N 
ATOM      6  C   UNL     1      -0.658   5.292  -2.206  0.00  0.00    +0.310 C 
ATOM      7  O   UNL     1       0.321   5.841  -2.671  0.00  0.00    -0.252 OA
ATOM      8  H   UNL     1      -0.011   3.325  -2.058  0.00  0.00    +0.151 HD
ENDROOT
BRANCH   1   9
ATOM      9  C   UNL     1      -2.016   7.363  -2.115  0.00  0.00    +0.197 C 
BRANCH   9  10
ATOM     10  C   UNL     1      -1.611   8.111  -0.871  0.00  0.00    +0.181 C 
ATOM     11  O   UNL     1      -1.183   7.505   0.089  0.00  0.00    -0.290 OA
BRANCH  10  19
ATOM     12  N   UNL     1      -2.005  13.703  -0.477  0.00  0.00    -0.207 N 
ATOM     13  C   UNL     1      -1.515  13.991   0.874  0.00  0.00    +0.136 C 
ATOM     14  C   UNL     1      -1.152  12.622   1.472  0.00  0.00    +0.058 C 
ATOM     15  C   UNL     1      -1.476  11.633   0.374  0.00  0.00    -0.023 A 
ATOM     16  C   UNL     1      -1.966  12.337  -0.722  0.00  0.00    +0.054 A 
ATOM     17  C   UNL     1      -2.340  11.635  -1.875  0.00  0.00    +0.026 A 
ATOM     18  C   UNL     1      -2.222  10.278  -1.928  0.00  0.00    +0.013 A 
ATOM     19  C   UNL     1      -1.734   9.572  -0.821  0.00  0.00    +0.019 A 
ATOM     20  C   UNL     1      -1.359  10.273   0.333  0.00  0.00    +0.017 A 
BRANCH  12  21
ATOM     21  S   UNL     1      -2.531  14.843  -1.556  0.00  0.00    +0.045 S 
ATOM     22  O   UNL     1      -1.856  16.036  -1.181  0.00  0.00    -0.155 OA
ATOM     23  O   UNL     1      -2.315  14.260  -2.834  0.00  0.00    -0.155 OA
BRANCH  21  25
ATOM     24  C   UNL     1      -4.907  16.044  -2.186  0.00  0.00    +0.030 C 
ATOM     25  C   UNL     1      -4.309  15.005  -1.235  0.00  0.00    +0.185 C 
ENDBRANCH  21  25
ENDBRANCH  12  21
ENDBRANCH  10  19
ENDBRANCH   9  10
ENDBRANCH   1   9
BRANCH   4  26
ATOM     26  C   UNL     1      -1.976   3.193   0.046  0.00  0.00    +0.069 C 
BRANCH  26  27
ATOM     27  C   UNL     1      -1.430   1.788   0.031  0.00  0.00    -0.020 A 
ATOM     28  C   UNL     1      -2.147   0.653   0.026  0.00  0.00    +0.087 A 
ATOM     29  N   UNL     1      -1.308  -0.428   0.012  0.00  0.00    -0.360 N 
ATOM     30  H   UNL     1      -1.594  -1.355   0.010  0.00  0.00    +0.165 HD
ATOM     31  C   UNL     1       0.002  -0.004   0.002  0.00  0.00    +0.047 A 
ATOM     32  C   UNL     1      -0.017   1.403   0.010  0.00  0.00    +0.003 A 
ATOM     33  C   UNL     1       1.183   2.116   0.002  0.00  0.00    +0.010 A 
ATOM     34  C   UNL     1       2.372   1.442  -0.012  0.00  0.00    +0.001 A 
ATOM     35  C   UNL     1       2.396   0.055  -0.020  0.00  0.00    +0.002 A 
ATOM     36  C   UNL     1       1.224  -0.669  -0.013  0.00  0.00    +0.026 A 
ENDBRANCH  26  27
ENDBRANCH   4  26
TORSDOF 7
