REMARK  Name = ZINC32889160
REMARK  9 active torsions:
REMARK  status: ('A' for Active; 'I' for Inactive)
REMARK    1  A    between atoms: C_1  and  C_2
REMARK    2  A    between atoms: C_7  and  C_8
REMARK    3  A    between atoms: C_8  and  C_9
REMARK    4  A    between atoms: C_8  and  C_10
REMARK    5  A    between atoms: C_11  and  C_14
REMARK    6  A    between atoms: C_14  and  C_15
REMARK    7  A    between atoms: N_17  and  C_18
REMARK    8  A    between atoms: N_21  and  C_24
REMARK    9  A    between atoms: C_24  and  C_25
REMARK                            x       y       z     vdW  Elec       q    Type
REMARK                         _______ _______ _______ _____ _____    ______ ____
ROOT
ATOM      1  C   UNL     1      -0.299   3.346  -0.794  0.00  0.00    +0.218 C 
ATOM      2  O   UNL     1      -0.326   2.468  -1.630  0.00  0.00    -0.275 OA
ATOM      3  N   UNL     1      -0.119   4.628  -1.169  0.00  0.00    -0.312 N 
ATOM      4  H   UNL     1      -0.095   5.425  -0.411  0.00  0.00    +0.149 HD
ENDROOT
BRANCH   3   5
ATOM      5  C   UNL     1       0.042   4.961  -2.587  0.00  0.00    +0.069 C 
ATOM      6  C   UNL     1       1.511   4.801  -2.986  0.00  0.00    +0.003 C 
ATOM      7  C   UNL     1       1.684   5.208  -4.451  0.00  0.00    -0.076 C 
ATOM      8  N   UNL     1       1.260   6.603  -4.625  0.00  0.00    +0.385 N 
ATOM      9  C   UNL     1      -0.160   6.772  -4.293  0.00  0.00    -0.076 C 
ATOM     10  C   UNL     1      -0.388   6.412  -2.823  0.00  0.00    +0.003 C 
ATOM     11  H   UNL     1       1.844   7.221  -3.927  0.00  0.00    -0.081 HD
BRANCH   8  12
ATOM     12  C   UNL     1       1.542   7.072  -5.989  0.00  0.00    +0.018 C 
BRANCH  12  13
ATOM     13  C   UNL     1       1.334   8.563  -6.060  0.00  0.00    +0.194 C 
ATOM     14  O   UNL     1       1.095   9.191  -5.050  0.00  0.00    -0.278 OA
ATOM     15  N   UNL     1       1.413   9.199  -7.246  0.00  0.00    -0.331 N 
ATOM     16  H   UNL     1       1.261  10.287  -7.298  0.00  0.00    +0.145 HD
ATOM     17  H   UNL     1       1.629   8.629  -8.162  0.00  0.00    +0.145 HD
ENDBRANCH  12  13
ENDBRANCH   8  12
ENDBRANCH   3   5
BRANCH   1  18
ATOM     18  C   UNL     1      -0.465   3.003   0.664  0.00  0.00    +0.134 C 
BRANCH  18  26
ATOM     19  C   UNL     1       2.660  -3.116   1.229  0.00  0.00    +0.044 C 
ATOM     20  C   UNL     1       1.862  -1.843   1.113  0.00  0.00    -0.044 A 
ATOM     21  C   UNL     1       0.484  -1.898   1.135  0.00  0.00    +0.050 A 
ATOM     22  C   UNL     1      -0.258  -0.729   1.028  0.00  0.00    +0.135 A 
ATOM     23  C   UNL     1       0.410   0.501   0.899  0.00  0.00    +0.024 A 
ATOM     24  C   UNL     1       1.803   0.542   0.878  0.00  0.00    +0.016 A 
ATOM     25  C   UNL     1       2.520  -0.629   0.985  0.00  0.00    -0.041 A 
ATOM     26  C   UNL     1      -0.648   1.515   0.813  0.00  0.00    +0.007 A 
ATOM     27  C   UNL     1      -1.809   0.851   0.892  0.00  0.00    +0.200 A 
ATOM     28  O   UNL     1      -1.581  -0.468   1.019  0.00  0.00    -0.463 OA
BRANCH  25  29
ATOM     29  C   UNL     1       4.027  -0.592   0.963  0.00  0.00    +0.013 C 
ATOM     30  C   UNL     1       4.500   0.175  -0.274  0.00  0.00    +0.012 C 
ATOM     31  C   UNL     1       4.538   0.109   2.223  0.00  0.00    +0.012 C 
ENDBRANCH  25  29
ENDBRANCH  18  26
ENDBRANCH   1  18
TORSDOF 6
