REMARK  Name = ZINC39111537
REMARK  2 active torsions:
REMARK  status: ('A' for Active; 'I' for Inactive)
REMARK    1  A    between atoms: C_5  and  C_6
REMARK    2  A    between atoms: C_7  and  C_8
REMARK                            x       y       z     vdW  Elec       q    Type
REMARK                         _______ _______ _______ _____ _____    ______ ____
ROOT
ATOM      1  C   UNL     1      -0.362   1.421   0.993  0.00  0.00    +0.005 C 
ATOM      2  C   UNL     1       1.054   1.831   1.472  0.00  0.00    +0.005 C 
ATOM      3  C   UNL     1       1.528   0.565   2.228  0.00  0.00    +0.031 C 
ATOM      4  C   UNL     1       0.983  -0.591   1.408  0.00  0.00    -0.070 C 
ATOM      5  C   UNL     1       1.465  -1.836   1.378  0.00  0.00    -0.001 C 
ATOM      6  C   UNL     1      -0.208  -0.071   0.631  0.00  0.00    +0.031 C 
ENDROOT
BRANCH   5   7
ATOM      7  C   UNL     1       0.828  -2.846   0.534  0.00  0.00    +0.007 C 
ATOM      8  C   UNL     1       1.392  -4.071   0.401  0.00  0.00    +0.096 C 
BRANCH   8   9
ATOM      9  C   UNL     1       2.678  -4.319   0.934  0.00  0.00    +0.380 C 
ATOM     10  O   UNL     1       3.327  -3.401   1.421  0.00  0.00    -0.241 OA
ATOM     11  O   UNL     1       3.143  -5.452   0.909  0.00  0.00    -0.241 OA
ENDBRANCH   8   9
ENDBRANCH   5   7
TORSDOF 2
