REMARK  Name = ZINC12661302
REMARK  8 active torsions:
REMARK  status: ('A' for Active; 'I' for Inactive)
REMARK    1  A    between atoms: C_1  and  C_2
REMARK    2  A    between atoms: C_2  and  C_4
REMARK    3  A    between atoms: C_6  and  C_30
REMARK    4  A    between atoms: C_11  and  C_29
REMARK    5  A    between atoms: C_21  and  C_28
REMARK    6  A    between atoms: C_24  and  O_27
REMARK    7  A    between atoms: C_30  and  C_32
REMARK    8  A    between atoms: C_30  and  C_34
REMARK                            x       y       z     vdW  Elec       q    Type
REMARK                         _______ _______ _______ _____ _____    ______ ____
ROOT
ATOM      1  C   UNL     1       0.506  -1.427  -2.883  0.00  0.00    +0.066 C 
ATOM      2  C   UNL     1       1.844  -0.665  -2.840  0.00  0.00    +0.026 C 
ATOM      3  C   UNL     1       1.536   0.778  -2.416  0.00  0.00    +0.010 C 
ATOM      4  C   UNL     1       0.004   0.934  -2.349  0.00  0.00    -0.000 C 
ATOM      5  C   UNL     1      -0.585  -0.353  -2.917  0.00  0.00    -0.019 C 
ATOM      6  C   UNL     1      -1.910  -0.802  -2.362  0.00  0.00    +0.008 C 
ATOM      7  C   UNL     1      -2.145  -0.459  -0.897  0.00  0.00    +0.005 C 
ATOM      8  C   UNL     1      -1.899   1.040  -0.717  0.00  0.00    +0.003 C 
ATOM      9  C   UNL     1      -0.413   1.303  -0.935  0.00  0.00    +0.000 C 
ATOM     10  C   UNL     1       0.406   0.587   0.130  0.00  0.00    +0.031 C 
ATOM     11  C   UNL     1      -0.127   0.917   1.497  0.00  0.00    -0.027 C 
ATOM     12  C   UNL     1      -1.342   1.319   1.721  0.00  0.00    -0.065 C 
ATOM     13  C   UNL     1      -2.369   1.518   0.646  0.00  0.00    -0.008 C 
ATOM     14  C   UNL     1      -3.667   0.811   1.040  0.00  0.00    +0.014 C 
ATOM     15  C   UNL     1      -4.105   1.218   2.446  0.00  0.00    +0.032 C 
ATOM     16  C   UNL     1      -3.030   0.823   3.460  0.00  0.00    +0.119 C 
ATOM     17  C   UNL     1      -1.742   1.597   3.161  0.00  0.00    +0.062 C 
ATOM     18  C   UNL     1      -2.656   3.020   0.532  0.00  0.00    +0.016 C 
ATOM     19  C   UNL     1      -0.852  -0.072  -4.427  0.00  0.00    +0.012 C 
ENDROOT
BRANCH   1  21
ATOM     20  C   UNL     1      -0.275  -3.723  -1.930  0.00  0.00    +0.086 C 
ATOM     21  C   UNL     1       0.387  -2.384  -1.731  0.00  0.00    +0.134 C 
ATOM     22  O   UNL     1       0.821  -2.079  -0.646  0.00  0.00    -0.297 OA
ENDBRANCH   1  21
BRANCH  16  23
ATOM     23  O   UNL     1      -3.481   1.135   4.779  0.00  0.00    -0.391 OA
ATOM     24  H   UNL     1      -2.847   0.910   5.474  0.00  0.00    +0.210 HD
ENDBRANCH  16  23
BRANCH   2  25
ATOM     25  C   UNL     1       2.797  -1.321  -1.839  0.00  0.00    +0.180 C 
BRANCH  25  26
ATOM     26  C   UNL     1       4.144  -0.647  -1.912  0.00  0.00    +0.228 C 
ATOM     27  O   UNL     1       4.323   0.267  -2.688  0.00  0.00    -0.275 OA
ATOM     28  N   UNL     1       5.148  -1.061  -1.115  0.00  0.00    -0.328 N 
ATOM     29  H   UNL     1       5.005  -1.792  -0.494  0.00  0.00    +0.145 HD
ATOM     30  H   UNL     1       6.015  -0.628  -1.162  0.00  0.00    +0.145 HD
ENDBRANCH  25  26
BRANCH  25  31
ATOM     31  C   UNL     1       2.945  -2.749  -2.165  0.00  0.00    +0.076 C 
ATOM     32  N   UNL     1       3.059  -3.851  -2.416  0.00  0.00    -0.196 NA
ENDBRANCH  25  31
ENDBRANCH   2  25
TORSDOF 5
