REMARK  Name = ZINC59292965
REMARK  10 active torsions:
REMARK  status: ('A' for Active; 'I' for Inactive)
REMARK    1  A    between atoms: C_1  and  C_2
REMARK    2  A    between atoms: C_2  and  O_3
REMARK    3  A    between atoms: O_3  and  C_4
REMARK    4  A    between atoms: C_16  and  C_29
REMARK    5  A    between atoms: C_17  and  N_28
REMARK    6  A    between atoms: C_19  and  C_27
REMARK    7  A    between atoms: C_20  and  C_21
REMARK    8  A    between atoms: C_21  and  O_23
REMARK    9  A    between atoms: O_23  and  C_24
REMARK   10  A    between atoms: C_24  and  C_25
REMARK                            x       y       z     vdW  Elec       q    Type
REMARK                         _______ _______ _______ _____ _____    ______ ____
ROOT
ATOM      1  C   UNL     1      -1.497  -1.835   0.006  0.00  0.00    +0.414 C 
ATOM      2  O   UNL     1      -0.524  -2.562  -0.007  0.00  0.00    -0.225 OA
ATOM      3  N   UNL     1      -2.735  -2.367   0.015  0.00  0.00    -0.174 N 
ATOM      4  C   UNL     1      -2.994  -3.742   0.016  0.00  0.00    +0.052 A 
ATOM      5  C   UNL     1      -2.127  -4.832   0.007  0.00  0.00    +0.025 A 
ATOM      6  C   UNL     1      -2.629  -6.117   0.011  0.00  0.00    +0.017 A 
ATOM      7  C   UNL     1      -3.996  -6.334   0.024  0.00  0.00    +0.018 A 
ATOM      8  C   UNL     1      -4.864  -5.255   0.032  0.00  0.00    +0.022 A 
ATOM      9  C   UNL     1      -4.364  -3.972   0.028  0.00  0.00    +0.000 A 
ATOM     10  C   UNL     1      -5.019  -2.613   0.033  0.00  0.00    +0.148 C 
ATOM     11  C   UNL     1      -3.865  -1.638   0.031  0.00  0.00    +0.249 C 
ATOM     12  O   UNL     1      -3.943  -0.428   0.039  0.00  0.00    -0.273 OA
ATOM     13  C   UNL     1      -5.862  -2.433  -1.197  0.00  0.00    +0.110 C 
ATOM     14  C   UNL     1      -7.216  -2.473  -1.114  0.00  0.00    +0.199 C 
ATOM     15  O   UNL     1      -7.840  -2.674   0.061  0.00  0.00    -0.445 OA
ATOM     16  C   UNL     1      -7.186  -2.474   1.216  0.00  0.00    +0.116 C 
ATOM     17  C   UNL     1      -5.847  -2.434   1.272  0.00  0.00    +0.099 C 
ATOM     18  C   UNL     1      -7.979  -2.290   2.484  0.00  0.00    +0.087 C 
ATOM     19 BR   UNL     1      -4.676  -8.098   0.029  0.00  0.00    -0.050 Br
ENDROOT
BRANCH  14  20
ATOM     20  N   UNL     1      -7.964  -2.304  -2.252  0.00  0.00    -0.328 N 
ATOM     21  H   UNL     1      -7.525  -2.159  -3.105  0.00  0.00    +0.145 HD
ATOM     22  H   UNL     1      -8.933  -2.331  -2.205  0.00  0.00    +0.145 HD
ENDBRANCH  14  20
BRANCH  17  23
ATOM     23  C   UNL     1      -5.206  -2.221   2.517  0.00  0.00    +0.340 C 
ATOM     24  O   UNL     1      -5.869  -2.075   3.526  0.00  0.00    -0.245 OA
BRANCH  23  25
ATOM     25  O   UNL     1      -3.859  -2.179   2.583  0.00  0.00    -0.457 OA
BRANCH  25  26
ATOM     26  C   UNL     1      -3.279  -1.960   3.871  0.00  0.00    +0.259 C 
BRANCH  26  27
ATOM     27  C   UNL     1      -1.777  -1.945   3.750  0.00  0.00    +0.006 C 
ATOM     28  C   UNL     1      -1.080  -1.019   4.361  0.00  0.00    +0.007 C 
ENDBRANCH  26  27
ENDBRANCH  25  26
ENDBRANCH  23  25
ENDBRANCH  17  23
BRANCH  13  29
ATOM     29  C   UNL     1      -5.233  -2.218  -2.465  0.00  0.00    +0.102 C 
ATOM     30  N   UNL     1      -4.734  -2.048  -3.471  0.00  0.00    -0.191 NA
ENDBRANCH  13  29
BRANCH   1  31
ATOM     31  O   UNL     1      -1.339  -0.499   0.012  0.00  0.00    -0.450 OA
BRANCH  31  33
ATOM     32  C   UNL     1      -0.019   1.526   0.010  0.00  0.00    +0.048 C 
ATOM     33  C   UNL     1       0.002  -0.004   0.002  0.00  0.00    +0.230 C 
ENDBRANCH  31  33
ENDBRANCH   1  31
TORSDOF 8
