REMARK  Name = ZINC06107156
REMARK  7 active torsions:
REMARK  status: ('A' for Active; 'I' for Inactive)
REMARK    1  A    between atoms: C_1  and  C_2
REMARK    2  A    between atoms: C_18  and  S_19
REMARK    3  A    between atoms: S_19  and  C_20
REMARK    4  A    between atoms: C_20  and  C_22
REMARK    5  A    between atoms: C_20  and  C_25
REMARK    6  A    between atoms: C_22  and  C_23
REMARK    7  A    between atoms: C_22  and  C_24
REMARK                            x       y       z     vdW  Elec       q    Type
REMARK                         _______ _______ _______ _____ _____    ______ ____
ROOT
ATOM      1  C   UNL     1       7.953  -3.083   3.329  0.00  0.00    +0.045 C 
ATOM      2  C   UNL     1       6.697  -3.688   2.756  0.00  0.00    -0.032 A 
ATOM      3  C   UNL     1       6.698  -4.227   1.476  0.00  0.00    +0.008 A 
ATOM      4  C   UNL     1       5.525  -4.777   0.991  0.00  0.00    +0.047 A 
ATOM      5  C   UNL     1       4.389  -4.762   1.791  0.00  0.00    +0.142 A 
ATOM      6  N   UNL     1       4.428  -4.239   3.006  0.00  0.00    -0.237 NA
ATOM      7  C   UNL     1       5.532  -3.712   3.498  0.00  0.00    +0.116 A 
ATOM      8  N   UNL     1       3.197  -5.310   1.312  0.00  0.00    -0.239 N 
ATOM      9  C   UNL     1       2.967  -6.637   1.445  0.00  0.00    +0.268 A 
ATOM     10  O   UNL     1       3.781  -7.368   1.978  0.00  0.00    -0.267 OA
ATOM     11  C   UNL     1       1.701  -7.163   0.918  0.00  0.00    +0.065 A 
ATOM     12  C   UNL     1       1.373  -8.515   1.003  0.00  0.00    +0.015 A 
ATOM     13  C   UNL     1       0.180  -8.953   0.496  0.00  0.00    +0.001 A 
ATOM     14  C   UNL     1      -0.706  -8.065  -0.101  0.00  0.00    +0.002 A 
ATOM     15  C   UNL     1      -0.410  -6.734  -0.197  0.00  0.00    +0.028 A 
ATOM     16  C   UNL     1       0.801  -6.256   0.311  0.00  0.00    +0.079 A 
ATOM     17  N   UNL     1       1.134  -4.946   0.238  0.00  0.00    -0.223 NA
ATOM     18  C   UNL     1       2.269  -4.500   0.715  0.00  0.00    +0.179 A 
ENDROOT
BRANCH  18  19
ATOM     19  S   UNL     1       2.621  -2.779   0.576  0.00  0.00    -0.074 S 
BRANCH  19  20
ATOM     20  C   UNL     1       1.056  -2.194  -0.120  0.00  0.00    +0.143 C 
BRANCH  20  21
ATOM     21  C   UNL     1      -0.033  -2.323   0.914  0.00  0.00    +0.234 C 
ATOM     22  O   UNL     1       0.247  -2.321   2.093  0.00  0.00    -0.274 OA
ATOM     23  N   UNL     1      -1.318  -2.442   0.526  0.00  0.00    -0.239 N 
ATOM     24  C   UNL     1      -2.292  -2.557   1.451  0.00  0.00    +0.303 C 
ATOM     25  O   UNL     1      -2.011  -2.555   2.633  0.00  0.00    -0.253 OA
ATOM     26  N   UNL     1      -3.578  -2.670   1.064  0.00  0.00    -0.313 N 
ATOM     27  H   UNL     1      -1.542  -2.443  -0.417  0.00  0.00    +0.159 HD
ATOM     28  H   UNL     1      -3.803  -2.668   0.120  0.00  0.00    +0.146 HD
ATOM     29  H   UNL     1      -4.279  -2.753   1.729  0.00  0.00    +0.146 HD
ENDBRANCH  20  21
BRANCH  20  30
ATOM     30  C   UNL     1       1.198  -0.727  -0.530  0.00  0.00    +0.005 C 
ATOM     31  C   UNL     1       2.229  -0.609  -1.655  0.00  0.00    +0.009 C 
ATOM     32  C   UNL     1      -0.153  -0.201  -1.020  0.00  0.00    +0.009 C 
ENDBRANCH  20  30
ENDBRANCH  19  20
ENDBRANCH  18  19
TORSDOF 4
