REMARK  Name = ZINC39934696
REMARK  7 active torsions:
REMARK  status: ('A' for Active; 'I' for Inactive)
REMARK    1  A    between atoms: C_2  and  C_3
REMARK    2  A    between atoms: C_3  and  N_4
REMARK    3  A    between atoms: C_5  and  C_24
REMARK    4  A    between atoms: C_8  and  S_9
REMARK    5  A    between atoms: S_9  and  C_10
REMARK    6  A    between atoms: C_10  and  C_11
REMARK    7  A    between atoms: C_29  and  O_30
REMARK                            x       y       z     vdW  Elec       q    Type
REMARK                         _______ _______ _______ _____ _____    ______ ____
ROOT
ATOM      1  N   UNL     1       1.291  -1.652   1.204  0.00  0.00    -0.298 N 
ATOM      2  C   UNL     1       1.881  -1.460   2.433  0.00  0.00    +0.169 A 
ATOM      3  N   UNL     1       1.744  -2.580   3.104  0.00  0.00    -0.128 NA
ATOM      4  N   UNL     1       1.118  -3.446   2.391  0.00  0.00    -0.122 NA
ATOM      5  C   UNL     1       0.811  -2.931   1.222  0.00  0.00    +0.193 A 
ENDROOT
BRANCH   2   6
ATOM      6  C   UNL     1       2.544  -0.227   2.906  0.00  0.00    +0.062 A 
ATOM      7  C   UNL     1       3.475   0.423   2.095  0.00  0.00    +0.030 A 
ATOM      8  C   UNL     1       4.092   1.574   2.543  0.00  0.00    +0.019 A 
ATOM      9  C   UNL     1       3.789   2.087   3.793  0.00  0.00    +0.019 A 
ATOM     10  C   UNL     1       2.868   1.450   4.604  0.00  0.00    +0.047 A 
ATOM     11  C   UNL     1       2.237   0.297   4.167  0.00  0.00    +0.128 A 
ATOM     12 BR   UNL     1       5.354   2.455   1.445  0.00  0.00    -0.050 Br
BRANCH  11  13
ATOM     13  O   UNL     1       1.327  -0.325   4.961  0.00  0.00    -0.506 OA
ATOM     14  H   UNL     1       1.709  -0.990   5.550  0.00  0.00    +0.292 HD
ENDBRANCH  11  13
ENDBRANCH   2   6
BRANCH   1  15
ATOM     15  C   UNL     1       1.191  -0.684   0.109  0.00  0.00    +0.152 C 
BRANCH  15  17
ATOM     16  C   UNL     1      -0.167   1.341   0.238  0.00  0.00    +0.005 C 
ATOM     17  C   UNL     1      -0.132   0.033   0.191  0.00  0.00    -0.013 C 
ENDBRANCH  15  17
ENDBRANCH   1  15
BRANCH   5  18
ATOM     18  S   UNL     1      -0.053  -3.741  -0.083  0.00  0.00    -0.077 S 
BRANCH  18  19
ATOM     19  C   UNL     1      -0.399  -5.394   0.580  0.00  0.00    +0.173 C 
BRANCH  19  20
ATOM     20  C   UNL     1      -1.146  -6.202  -0.450  0.00  0.00    +0.227 C 
ATOM     21  O   UNL     1      -1.418  -5.711  -1.525  0.00  0.00    -0.275 OA
ATOM     22  N   UNL     1      -1.512  -7.470  -0.176  0.00  0.00    -0.285 N 
ATOM     23  C   UNL     1      -2.778  -7.826  -0.271  0.00  0.00    +0.036 C 
ATOM     24  C   UNL     1      -3.805  -6.816  -0.554  0.00  0.00    +0.025 C 
ATOM     25  C   UNL     1      -5.101  -7.173  -0.653  0.00  0.00    +0.032 C 
ATOM     26  C   UNL     1      -5.493  -8.575  -0.478  0.00  0.00    +0.095 C 
ATOM     27  N   UNL     1      -6.643  -9.220  -0.514  0.00  0.00    -0.190 NA
ATOM     28  C   UNL     1      -6.427 -10.525  -0.281  0.00  0.00    +0.369 C 
ATOM     29  O   UNL     1      -7.402 -11.465  -0.249  0.00  0.00    -0.243 OA
ATOM     30  N   UNL     1      -5.153 -10.775  -0.089  0.00  0.00    -0.190 NA
ATOM     31  C   UNL     1      -4.469  -9.599  -0.194  0.00  0.00    +0.097 C 
ATOM     32  C   UNL     1      -3.162  -9.244  -0.099  0.00  0.00    +0.053 C 
ATOM     33  H   UNL     1      -0.843  -8.120   0.091  0.00  0.00    +0.155 HD
ENDBRANCH  19  20
ENDBRANCH  18  19
ENDBRANCH   5  18
TORSDOF 7
