REMARK  Name = ZINC04558647
REMARK  11 active torsions:
REMARK  status: ('A' for Active; 'I' for Inactive)
REMARK    1  A    between atoms: C_1  and  C_2
REMARK    2  A    between atoms: C_4  and  N_29
REMARK    3  A    between atoms: C_7  and  N_8
REMARK    4  A    between atoms: N_8  and  C_9
REMARK    5  A    between atoms: C_9  and  N_11
REMARK    6  A    between atoms: N_11  and  C_12
REMARK    7  A    between atoms: C_12  and  C_14
REMARK    8  A    between atoms: C_12  and  N_18
REMARK    9  A    between atoms: C_19  and  O_21
REMARK   10  A    between atoms: O_21  and  C_22
REMARK   11  A    between atoms: C_22  and  C_23
REMARK                            x       y       z     vdW  Elec       q    Type
REMARK                         _______ _______ _______ _____ _____    ______ ____
ROOT
ATOM      1  C   UNL     1       3.158   0.930  -0.245  0.00  0.00    +0.214 C 
ENDROOT
BRANCH   1   2
ATOM      2  C   UNL     1       4.167   1.771  -1.030  0.00  0.00    +0.225 C 
ATOM      3 CL   UNL     1       3.951   3.512  -0.615  0.00  0.00    -0.080 Cl
ATOM      4 CL   UNL     1       5.841   1.254  -0.604  0.00  0.00    -0.080 Cl
ATOM      5 CL   UNL     1       3.898   1.537  -2.797  0.00  0.00    -0.080 Cl
ENDBRANCH   1   2
BRANCH   1   6
ATOM      6  N   UNL     1       1.798   1.349  -0.592  0.00  0.00    -0.259 N 
ATOM      7  C   UNL     1       0.852   0.424  -0.845  0.00  0.00    +0.402 C 
ATOM      8  O   UNL     1       1.126  -0.758  -0.785  0.00  0.00    -0.226 OA
ATOM      9  H   UNL     1       1.579   2.293  -0.639  0.00  0.00    +0.154 HD
BRANCH   7  10
ATOM     10  O   UNL     1      -0.397   0.809  -1.169  0.00  0.00    -0.446 OA
BRANCH  10  11
ATOM     11  C   UNL     1      -1.363  -0.241  -1.434  0.00  0.00    +0.269 C 
BRANCH  11  12
ATOM     12  C   UNL     1      -2.695   0.376  -1.778  0.00  0.00    -0.010 A 
ATOM     13  C   UNL     1      -3.612   0.641  -0.778  0.00  0.00    +0.007 A 
ATOM     14  C   UNL     1      -4.831   1.211  -1.092  0.00  0.00    +0.000 A 
ATOM     15  C   UNL     1      -5.138   1.507  -2.407  0.00  0.00    +0.000 A 
ATOM     16  C   UNL     1      -4.223   1.237  -3.408  0.00  0.00    +0.000 A 
ATOM     17  C   UNL     1      -3.001   0.671  -3.093  0.00  0.00    +0.007 A 
ENDBRANCH  11  12
ENDBRANCH  10  11
ENDBRANCH   7  10
ENDBRANCH   1   6
BRANCH   1  18
ATOM     18  N   UNL     1       3.377   1.120   1.191  0.00  0.00    -0.305 N 
ATOM     19  H   UNL     1       3.515   2.012   1.547  0.00  0.00    +0.150 HD
BRANCH  18  20
ATOM     20  C   UNL     1       3.387   0.056   2.018  0.00  0.00    +0.136 C 
ATOM     21  S   UNL     1       3.144  -1.518   1.390  0.00  0.00    -0.019 S 
BRANCH  20  22
ATOM     22  N   UNL     1       3.588   0.230   3.339  0.00  0.00    -0.297 N 
ATOM     23  H   UNL     1       3.804   1.111   3.684  0.00  0.00    +0.154 HD
BRANCH  22  30
ATOM     24  C   UNL     1       5.589  -0.083   5.337  0.00  0.00    +0.046 C 
ATOM     25  C   UNL     1       4.440  -1.048   5.202  0.00  0.00    -0.027 A 
ATOM     26  C   UNL     1       4.332  -2.121   6.066  0.00  0.00    +0.038 A 
ATOM     27  C   UNL     1       3.281  -3.010   5.939  0.00  0.00    +0.127 A 
ATOM     28  C   UNL     1       2.331  -2.826   4.951  0.00  0.00    +0.034 A 
ATOM     29  C   UNL     1       2.430  -1.753   4.087  0.00  0.00    +0.026 A 
ATOM     30  C   UNL     1       3.485  -0.858   4.212  0.00  0.00    +0.036 A 
BRANCH  27  31
ATOM     31  N   UNL     1       3.172  -4.161   6.863  0.00  0.00    +0.056 N 
ATOM     32  O   UNL     1       2.246  -4.945   6.752  0.00  0.00    -0.126 OA
ATOM     33  O   UNL     1       4.008  -4.325   7.734  0.00  0.00    -0.126 OA
ENDBRANCH  27  31
ENDBRANCH  22  30
ENDBRANCH  20  22
ENDBRANCH  18  20
ENDBRANCH   1  18
TORSDOF 10
