REMARK  Name = ZINC04865133
REMARK  5 active torsions:
REMARK  status: ('A' for Active; 'I' for Inactive)
REMARK    1  A    between atoms: C_1  and  C_2
REMARK    2  A    between atoms: C_2  and  O_3
REMARK    3  A    between atoms: O_3  and  C_4
REMARK    4  A    between atoms: C_6  and  C_11
REMARK    5  A    between atoms: C_9  and  O_10
REMARK                            x       y       z     vdW  Elec       q    Type
REMARK                         _______ _______ _______ _____ _____    ______ ____
ROOT
ATOM      1  C   UNL     1      -1.333   2.112   0.020  0.00  0.00    +0.092 C 
ATOM      2  C   UNL     1      -1.429   2.930   1.274  0.00  0.00    +0.067 A 
ATOM      3  C   UNL     1      -1.223   4.277   1.249  0.00  0.00    +0.111 A 
ATOM      4  N   UNL     1      -1.311   4.999   2.415  0.00  0.00    -0.323 N 
ATOM      5  H   UNL     1      -1.162   5.957   2.401  0.00  0.00    +0.169 HD
ATOM      6  C   UNL     1      -1.602   4.382   3.575  0.00  0.00    +0.159 A 
ATOM      7  S   UNL     1      -1.704   5.301   5.016  0.00  0.00    -0.013 S 
ATOM      8  N   UNL     1      -1.814   3.054   3.620  0.00  0.00    -0.302 N 
ATOM      9  H   UNL     1      -2.025   2.629   4.466  0.00  0.00    +0.171 HD
ATOM     10  C   UNL     1      -1.736   2.310   2.499  0.00  0.00    +0.258 A 
ATOM     11  O   UNL     1      -1.931   1.107   2.546  0.00  0.00    -0.267 OA
ATOM     12  N   UNL     1      -0.928   4.907   0.066  0.00  0.00    -0.304 N 
ATOM     13  C   UNL     1      -1.220   4.314  -1.132  0.00  0.00    +0.017 C 
ATOM     14  C   UNL     1      -1.423   2.981  -1.209  0.00  0.00    +0.024 C 
ATOM     15  C   UNL     1      -1.722   2.363  -2.436  0.00  0.00    +0.162 C 
ATOM     16  O   UNL     1      -1.916   1.164  -2.468  0.00  0.00    -0.292 OA
ATOM     17  C   UNL     1      -1.806   3.158  -3.710  0.00  0.00    +0.080 C 
ATOM     18  C   UNL     1      -0.891   4.383  -3.594  0.00  0.00    +0.014 C 
ATOM     19  C   UNL     1      -1.312   5.186  -2.361  0.00  0.00    +0.051 C 
ATOM     20  H   UNL     1      -0.509   5.782   0.080  0.00  0.00    +0.153 HD
ENDROOT
BRANCH   1  23
ATOM     21  C   UNL     1       1.211  -0.680  -0.013  0.00  0.00    +0.162 A 
ATOM     22  C   UNL     1       0.002  -0.004   0.002  0.00  0.00    +0.054 A 
ATOM     23  C   UNL     1      -0.017   1.378   0.010  0.00  0.00    -0.032 A 
ATOM     24  C   UNL     1       1.169   2.089   0.002  0.00  0.00    +0.008 A 
ATOM     25  C   UNL     1       2.379   1.420  -0.013  0.00  0.00    +0.049 A 
ATOM     26  C   UNL     1       2.405   0.035  -0.021  0.00  0.00    +0.158 A 
BRANCH  26  27
ATOM     27  O   UNL     1       3.594  -0.625  -0.036  0.00  0.00    -0.503 OA
ATOM     28  H   UNL     1       3.930  -0.810  -0.924  0.00  0.00    +0.292 HD
ENDBRANCH  26  27
BRANCH  21  29
ATOM     29  O   UNL     1       1.232  -2.040  -0.020  0.00  0.00    -0.489 OA
BRANCH  29  31
ATOM     30  C   UNL     1       0.191  -4.221  -0.021  0.00  0.00    +0.048 C 
ATOM     31  C   UNL     1      -0.032  -2.708  -0.011  0.00  0.00    +0.226 C 
ENDBRANCH  29  31
ENDBRANCH  21  29
ENDBRANCH   1  23
TORSDOF 4
