REMARK  Name = ZINC20886421
REMARK  4 active torsions:
REMARK  status: ('A' for Active; 'I' for Inactive)
REMARK    1  A    between atoms: C_1  and  C_2
REMARK    2  A    between atoms: C_2  and  C_3
REMARK    3  A    between atoms: C_6  and  C_9
REMARK    4  A    between atoms: C_14  and  C_24
REMARK                            x       y       z     vdW  Elec       q    Type
REMARK                         _______ _______ _______ _____ _____    ______ ____
ROOT
ATOM      1  C   UNL     1      -1.220   2.289  -0.462  0.00  0.00    +0.032 C 
ATOM      2  C   UNL     1      -1.255   3.051   0.862  0.00  0.00    +0.059 C 
ATOM      3  C   UNL     1      -2.601   3.736   1.030  0.00  0.00    +0.017 C 
ATOM      4  C   UNL     1      -3.273   4.188  -0.043  0.00  0.00    +0.037 C 
ATOM      5  C   UNL     1      -4.612   4.887  -0.020  0.00  0.00    +0.143 C 
ATOM      6  N   UNL     1      -5.053   5.297   1.296  0.00  0.00    -0.331 N 
ATOM      7  C   UNL     1      -5.342   4.356   2.283  0.00  0.00    +0.049 A 
ATOM      8  C   UNL     1      -6.636   4.160   2.738  0.00  0.00    +0.025 A 
ATOM      9  C   UNL     1      -6.893   3.138   3.636  0.00  0.00    +0.002 A 
ATOM     10  C   UNL     1      -5.870   2.319   4.076  0.00  0.00    +0.002 A 
ATOM     11  C   UNL     1      -4.572   2.526   3.639  0.00  0.00    +0.025 A 
ATOM     12  C   UNL     1      -4.310   3.558   2.756  0.00  0.00    +0.052 A 
ATOM     13  N   UNL     1      -3.026   3.852   2.314  0.00  0.00    -0.316 N 
ATOM     14  C   UNL     1      -2.742   4.013  -1.342  0.00  0.00    +0.163 C 
ATOM     15  O   UNL     1      -3.359   4.453  -2.292  0.00  0.00    -0.292 OA
ATOM     16  C   UNL     1      -1.444   3.304  -1.589  0.00  0.00    +0.088 C 
ATOM     17  H   UNL     1      -5.164   6.366   1.531  0.00  0.00    +0.147 HD
ATOM     18  H   UNL     1      -2.332   4.200   3.093  0.00  0.00    +0.152 HD
ENDROOT
BRANCH   5  19
ATOM     19  C   UNL     1      -5.644   3.955  -0.600  0.00  0.00    +0.059 A 
ATOM     20  C   UNL     1      -5.423   2.628  -0.620  0.00  0.00    +0.205 A 
ATOM     21  O   UNL     1      -6.304   1.754  -1.118  0.00  0.00    -0.462 OA
ATOM     22  C   UNL     1      -7.483   2.138  -1.649  0.00  0.00    +0.138 A 
ATOM     23  C   UNL     1      -8.374   1.204  -2.164  0.00  0.00    +0.048 A 
ATOM     24  C   UNL     1      -9.572   1.621  -2.702  0.00  0.00    +0.023 A 
ATOM     25  C   UNL     1      -9.902   2.969  -2.739  0.00  0.00    +0.042 A 
ATOM     26  C   UNL     1      -9.032   3.911  -2.234  0.00  0.00    +0.035 A 
ATOM     27  C   UNL     1      -7.817   3.501  -1.687  0.00  0.00    +0.066 A 
ATOM     28  C   UNL     1      -6.854   4.473  -1.135  0.00  0.00    +0.198 A 
ATOM     29  O   UNL     1      -7.086   5.670  -1.138  0.00  0.00    -0.287 OA
ATOM     30 CL   UNL     1     -11.418   3.470  -3.422  0.00  0.00    -0.084 Cl
ENDBRANCH   5  19
BRANCH   1  34
ATOM     31  C   UNL     1       2.582   0.406  -0.958  0.00  0.00    -0.048 A 
ATOM     32  C   UNL     1       1.431  -0.359  -0.923  0.00  0.00    +0.004 A 
ATOM     33  C   UNL     1       0.201   0.250  -0.760  0.00  0.00    +0.004 A 
ATOM     34  C   UNL     1       0.122   1.625  -0.633  0.00  0.00    -0.043 A 
ATOM     35  C   UNL     1       1.273   2.389  -0.667  0.00  0.00    +0.004 A 
ATOM     36  C   UNL     1       2.503   1.780  -0.831  0.00  0.00    +0.004 A 
BRANCH  31  38
ATOM     37  C   UNL     1       4.250  -0.358  -2.627  0.00  0.00    +0.009 C 
ATOM     38  C   UNL     1       3.923  -0.259  -1.136  0.00  0.00    +0.032 C 
ENDBRANCH  31  38
ENDBRANCH   1  34
TORSDOF 3
