REMARK  Name = ZINC26919593
REMARK  8 active torsions:
REMARK  status: ('A' for Active; 'I' for Inactive)
REMARK    1  A    between atoms: C_1  and  O_2
REMARK    2  A    between atoms: O_2  and  C_3
REMARK    3  A    between atoms: C_6  and  C_9
REMARK    4  A    between atoms: C_11  and  C_23
REMARK    5  A    between atoms: C_13  and  C_18
REMARK    6  A    between atoms: C_13  and  O_22
REMARK    7  A    between atoms: C_23  and  S_25
REMARK    8  A    between atoms: S_25  and  C_26
REMARK                            x       y       z     vdW  Elec       q    Type
REMARK                         _______ _______ _______ _____ _____    ______ ____
ROOT
ATOM      1  C   UNL     1      -1.513   4.590  -1.790  0.00  0.00    +0.120 C 
ATOM      2  C   UNL     1      -2.996   4.221  -1.902  0.00  0.00    +0.150 C 
ATOM      3  C   UNL     1      -3.598   4.184  -0.493  0.00  0.00    +0.244 C 
ATOM      4  N   UNL     1      -2.821   3.261   0.337  0.00  0.00    -0.264 N 
ATOM      5  C   UNL     1      -1.517   3.046   0.107  0.00  0.00    +0.302 C 
ATOM      6  O   UNL     1      -0.916   2.278   0.833  0.00  0.00    -0.253 OA
ATOM      7  N   UNL     1      -0.850   3.646  -0.890  0.00  0.00    -0.292 N 
ATOM      8  H   UNL     1      -3.306   2.728   1.167  0.00  0.00    +0.153 HD
ATOM      9  H   UNL     1       0.217   3.415  -1.025  0.00  0.00    +0.151 HD
ENDROOT
BRANCH   1  13
ATOM     10  C   UNL     1       0.303   4.400  -5.653  0.00  0.00    +0.120 A 
ATOM     11  C   UNL     1      -0.160   5.612  -5.162  0.00  0.00    +0.046 A 
ATOM     12  C   UNL     1      -0.741   5.672  -3.910  0.00  0.00    +0.009 A 
ATOM     13  C   UNL     1      -0.873   4.523  -3.152  0.00  0.00    -0.026 A 
ATOM     14  C   UNL     1      -0.412   3.314  -3.639  0.00  0.00    +0.009 A 
ATOM     15  C   UNL     1       0.175   3.250  -4.888  0.00  0.00    +0.046 A 
BRANCH  10  17
ATOM     16  C   UNL     1       1.334   3.058  -7.323  0.00  0.00    +0.277 C 
ATOM     17  O   UNL     1       0.881   4.339  -6.882  0.00  0.00    -0.495 OA
ENDBRANCH  10  17
ENDBRANCH   1  13
BRANCH   3  18
ATOM     18  C   UNL     1      -3.551   5.585   0.119  0.00  0.00    +0.436 C 
ATOM     19  F   UNL     1      -2.219   5.964   0.316  0.00  0.00    -0.166 F 
ATOM     20  F   UNL     1      -4.172   6.493  -0.746  0.00  0.00    -0.166 F 
ATOM     21  F   UNL     1      -4.221   5.579   1.348  0.00  0.00    -0.166 F 
ENDBRANCH   3  18
BRANCH   3  22
ATOM     22  O   UNL     1      -4.954   3.737  -0.563  0.00  0.00    -0.364 OA
ATOM     23  H   UNL     1      -5.551   3.647   0.357  0.00  0.00    +0.212 HD
ENDBRANCH   3  22
BRANCH   2  24
ATOM     24  C   UNL     1      -3.132   2.866  -2.547  0.00  0.00    +0.199 C 
ATOM     25  O   UNL     1      -2.724   1.877  -1.974  0.00  0.00    -0.285 OA
BRANCH  24  26
ATOM     26  S   UNL     1      -3.863   2.721  -4.089  0.00  0.00    -0.091 S 
ATOM     27  C   UNL     1      -3.744   0.930  -4.326  0.00  0.00    +0.093 C 
ENDBRANCH  24  26
ENDBRANCH   2  24
TORSDOF 6
