REMARK  Name = ZINC12763346
REMARK  8 active torsions:
REMARK  status: ('A' for Active; 'I' for Inactive)
REMARK    1  A    between atoms: C_1  and  C_2
REMARK    2  A    between atoms: C_5  and  N_29
REMARK    3  A    between atoms: C_6  and  N_9
REMARK    4  A    between atoms: C_7  and  C_8
REMARK    5  A    between atoms: C_10  and  C_12
REMARK    6  A    between atoms: C_12  and  N_13
REMARK    7  A    between atoms: C_20  and  C_23
REMARK    8  A    between atoms: C_26  and  C_28
REMARK                            x       y       z     vdW  Elec       q    Type
REMARK                         _______ _______ _______ _____ _____    ______ ____
ROOT
ATOM      1  C   UNL     1      -2.946   1.301  -0.059  0.00  0.00    +0.222 C 
ENDROOT
BRANCH   1   2
ATOM      2  N   UNL     1      -2.478   2.685  -0.163  0.00  0.00    -0.290 N 
ATOM      3  C   UNL     1      -1.179   2.972   0.111  0.00  0.00    +0.203 A 
ATOM      4  N   UNL     1      -0.724   4.193   0.024  0.00  0.00    -0.230 NA
ATOM      5  C   UNL     1      -1.521   5.197  -0.332  0.00  0.00    +0.116 A 
ATOM      6  C   UNL     1      -2.880   4.998  -0.628  0.00  0.00    +0.080 A 
ATOM      7  C   UNL     1      -3.345   3.649  -0.523  0.00  0.00    +0.263 A 
ATOM      8  O   UNL     1      -4.510   3.376  -0.762  0.00  0.00    -0.267 OA
ATOM      9  C   UNL     1      -3.614   6.202  -1.002  0.00  0.00    +0.010 A 
ATOM     10  C   UNL     1      -2.952   7.385  -1.033  0.00  0.00    +0.057 A 
ATOM     11  S   UNL     1      -1.292   6.942  -0.558  0.00  0.00    -0.076 S 
BRANCH   9  12
ATOM     12  C   UNL     1      -5.051   6.133  -1.339  0.00  0.00    +0.021 A 
ATOM     13  C   UNL     1      -6.087   6.891  -0.860  0.00  0.00    +0.016 A 
ATOM     14  C   UNL     1      -7.360   6.644  -1.329  0.00  0.00    +0.011 A 
ATOM     15  C   UNL     1      -7.549   5.656  -2.239  0.00  0.00    -0.013 A 
ATOM     16  S   UNL     1      -5.891   5.036  -2.470  0.00  0.00    -0.093 S 
ATOM     17  C   UNL     1      -8.830   5.199  -2.889  0.00  0.00    +0.051 C 
ENDBRANCH   9  12
ENDBRANCH   1   2
BRANCH   1  19
ATOM     18  N   UNL     1      -3.922  -0.173   1.672  0.00  0.00    -0.282 N 
ATOM     19  C   UNL     1      -3.441   1.042   1.341  0.00  0.00    +0.237 C 
ATOM     20  O   UNL     1      -3.407   1.927   2.170  0.00  0.00    -0.274 OA
ATOM     21  H   UNL     1      -4.013  -0.860   0.993  0.00  0.00    +0.155 HD
BRANCH  18  27
ATOM     22  C   UNL     1      -2.798  -0.188   6.458  0.00  0.00    +0.044 C 
ATOM     23  C   UNL     1      -3.764  -0.460   5.334  0.00  0.00    -0.046 A 
ATOM     24  C   UNL     1      -5.016  -0.978   5.610  0.00  0.00    +0.006 A 
ATOM     25  C   UNL     1      -5.906  -1.229   4.582  0.00  0.00    +0.035 A 
ATOM     26  C   UNL     1      -5.548  -0.959   3.275  0.00  0.00    +0.148 A 
ATOM     27  C   UNL     1      -4.289  -0.444   2.994  0.00  0.00    +0.067 A 
ATOM     28  C   UNL     1      -3.398  -0.192   4.030  0.00  0.00    -0.024 A 
ATOM     29  C   UNL     1      -2.034   0.373   3.730  0.00  0.00    +0.046 C 
BRANCH  26  30
ATOM     30  N   UNL     1      -6.503  -1.222   2.176  0.00  0.00    +0.058 N 
ATOM     31  O   UNL     1      -7.564  -1.774   2.409  0.00  0.00    -0.126 OA
ATOM     32  O   UNL     1      -6.228  -0.888   1.037  0.00  0.00    -0.126 OA
ENDBRANCH  26  30
ENDBRANCH  18  27
ENDBRANCH   1  19
TORSDOF 5
