REMARK  Name = ZINC63522916
REMARK  5 active torsions:
REMARK  status: ('A' for Active; 'I' for Inactive)
REMARK    1  A    between atoms: C_4  and  C_7
REMARK    2  A    between atoms: N_11  and  C_12
REMARK    3  A    between atoms: C_12  and  C_13
REMARK    4  A    between atoms: C_13  and  C_14
REMARK    5  A    between atoms: N_16  and  N_17
REMARK                            x       y       z     vdW  Elec       q    Type
REMARK                         _______ _______ _______ _____ _____    ______ ____
ROOT
ATOM      1  C   UNL     1       1.865  -4.504   0.026  0.00  0.00    +0.228 C 
ATOM      2  O   UNL     1       1.345  -3.741   0.812  0.00  0.00    -0.274 OA
ATOM      3  N   UNL     1       1.865  -5.829   0.274  0.00  0.00    -0.224 N 
ATOM      4  H   UNL     1       2.281  -6.440  -0.355  0.00  0.00    +0.174 HD
ENDROOT
BRANCH   3   5
ATOM      5  N   UNL     1       1.265  -6.324   1.439  0.00  0.00    -0.137 N 
ATOM      6  C   UNL     1       1.948  -6.758   2.518  0.00  0.00    +0.263 C 
ATOM      7  O   UNL     1       3.152  -6.793   2.660  0.00  0.00    -0.271 OA
ATOM      8  C   UNL     1       0.897  -7.191   3.514  0.00  0.00    +0.114 C 
ATOM      9  C   UNL     1       0.996  -6.359   4.788  0.00  0.00    +0.035 C 
ATOM     10  C   UNL     1      -0.095  -6.793   5.770  0.00  0.00    +0.003 C 
ATOM     11  C   UNL     1       0.075  -8.278   6.096  0.00  0.00    +0.000 C 
ATOM     12  C   UNL     1      -0.050  -9.101   4.813  0.00  0.00    +0.003 C 
ATOM     13  C   UNL     1       1.042  -8.677   3.827  0.00  0.00    +0.035 C 
ATOM     14  N   UNL     1      -0.374  -6.932   2.827  0.00  0.00    -0.284 N 
ATOM     15  C   UNL     1      -0.058  -6.420   1.622  0.00  0.00    +0.326 C 
ATOM     16  O   UNL     1      -0.880  -6.087   0.792  0.00  0.00    -0.251 OA
ATOM     17  H   UNL     1      -1.265  -7.093   3.173  0.00  0.00    +0.151 HD
ENDBRANCH   3   5
BRANCH   1  18
ATOM     18  C   UNL     1       2.510  -3.972  -1.227  0.00  0.00    +0.079 C 
BRANCH  18  19
ATOM     19  C   UNL     1       2.372  -2.449  -1.264  0.00  0.00    -0.069 C 
BRANCH  19  24
ATOM     20  C   UNL     1       2.809  -0.469  -2.561  0.00  0.00    -0.065 C 
ATOM     21  C   UNL     1       4.211   0.174  -2.605  0.00  0.00    -0.017 C 
ATOM     22  C   UNL     1       5.109  -0.979  -3.125  0.00  0.00    -0.020 C 
ATOM     23  C   UNL     1       4.452  -2.212  -2.457  0.00  0.00    -0.078 C 
ATOM     24  N   UNL     1       3.001  -1.929  -2.486  0.00  0.00    +0.382 N 
ATOM     25  H   UNL     1       2.585  -2.369  -3.294  0.00  0.00    -0.081 HD
BRANCH  20  29
ATOM     26  C   UNL     1       1.614   2.015   0.774  0.00  0.00    +0.000 C 
ATOM     27  C   UNL     1       2.265   0.664   1.078  0.00  0.00    +0.000 C 
ATOM     28  C   UNL     1       3.024   0.175  -0.157  0.00  0.00    +0.002 C 
ATOM     29  C   UNL     1       2.050   0.020  -1.326  0.00  0.00    -0.025 C 
ATOM     30  C   UNL     1       1.399   1.371  -1.630  0.00  0.00    +0.002 C 
ATOM     31  C   UNL     1       0.639   1.860  -0.395  0.00  0.00    +0.000 C 
ENDBRANCH  20  29
ENDBRANCH  19  24
ENDBRANCH  18  19
ENDBRANCH   1  18
TORSDOF 5
