REMARK  Name = ZINC33297966
REMARK  9 active torsions:
REMARK  status: ('A' for Active; 'I' for Inactive)
REMARK    1  A    between atoms: C_1  and  C_2
REMARK    2  A    between atoms: C_2  and  C_3
REMARK    3  A    between atoms: N_5  and  C_6
REMARK    4  A    between atoms: C_7  and  C_30
REMARK    5  A    between atoms: C_10  and  C_11
REMARK    6  A    between atoms: C_12  and  C_13
REMARK    7  A    between atoms: C_16  and  S_19
REMARK    8  A    between atoms: S_19  and  N_22
REMARK    9  A    between atoms: N_22  and  C_23
REMARK                            x       y       z     vdW  Elec       q    Type
REMARK                         _______ _______ _______ _____ _____    ______ ____
ROOT
ATOM      1  C   UNL     1      -6.036   1.376   1.146  0.00  0.00    -0.025 A 
ATOM      2  C   UNL     1      -6.054  -0.022   1.134  0.00  0.00    +0.010 A 
ATOM      3  C   UNL     1      -7.250  -0.694   1.274  0.00  0.00    +0.029 A 
ATOM      4  C   UNL     1      -8.431   0.013   1.416  0.00  0.00    +0.109 A 
ATOM      5  C   UNL     1      -8.422   1.397   1.423  0.00  0.00    +0.029 A 
ATOM      6  C   UNL     1      -7.234   2.083   1.290  0.00  0.00    +0.010 A 
ENDROOT
BRANCH   4   7
ATOM      7  S   UNL     1      -9.956  -0.855   1.588  0.00  0.00    +0.072 S 
ATOM      8  O   UNL     1      -9.648  -2.099   2.203  0.00  0.00    -0.150 OA
ATOM      9  O   UNL     1     -10.884   0.063   2.149  0.00  0.00    -0.150 OA
BRANCH   7  10
ATOM     10  N   UNL     1     -10.496  -1.202   0.062  0.00  0.00    -0.216 N 
ATOM     11  H   UNL     1     -11.441  -0.770  -0.298  0.00  0.00    +0.174 HD
BRANCH  10  12
ATOM     12  C   UNL     1      -9.752  -2.044  -0.768  0.00  0.00    +0.049 A 
ATOM     13  C   UNL     1      -9.739  -3.414  -0.538  0.00  0.00    +0.024 A 
ATOM     14  C   UNL     1      -9.003  -4.244  -1.360  0.00  0.00    +0.003 A 
ATOM     15  C   UNL     1      -8.278  -3.713  -2.412  0.00  0.00    +0.015 A 
ATOM     16  C   UNL     1      -8.289  -2.349  -2.644  0.00  0.00    +0.020 A 
ATOM     17  C   UNL     1      -9.028  -1.514  -1.827  0.00  0.00    +0.039 A 
ATOM     18 BR   UNL     1      -7.296  -1.628  -4.083  0.00  0.00    -0.050 Br
ENDBRANCH  10  12
ENDBRANCH   7  10
ENDBRANCH   4   7
BRANCH   1  20
ATOM     19  C   UNL     1      -3.677   1.702   1.696  0.00  0.00    +0.051 C 
ATOM     20  C   UNL     1      -4.762   2.101   1.002  0.00  0.00    +0.011 C 
BRANCH  19  25
ATOM     21  C   UNL     1      -2.788   0.089   3.466  0.00  0.00    +0.103 A 
ATOM     22  C   UNL     1      -3.469  -0.795   4.335  0.00  0.00    +0.102 A 
ATOM     23  N   UNL     1      -4.740  -0.652   4.091  0.00  0.00    -0.081 NA
ATOM     24  O   UNL     1      -4.956   0.157   3.221  0.00  0.00    -0.353 OA
ATOM     25  C   UNL     1      -3.812   0.693   2.748  0.00  0.00    +0.182 A 
ATOM     26  C   UNL     1      -2.845  -1.720   5.348  0.00  0.00    +0.071 C 
BRANCH  21  29
ATOM     27  C   UNL     1      -0.618   0.196   4.441  0.00  0.00    +0.217 C 
ATOM     28  O   UNL     1      -1.109  -0.016   5.529  0.00  0.00    -0.275 OA
ATOM     29  N   UNL     1      -1.407   0.302   3.353  0.00  0.00    -0.281 N 
ATOM     30  H   UNL     1      -0.967   0.554   2.377  0.00  0.00    +0.155 HD
BRANCH  27  32
ATOM     31  C   UNL     1       1.532   0.169   5.676  0.00  0.00    +0.013 C 
ATOM     32  C   UNL     1       0.877   0.337   4.303  0.00  0.00    +0.093 C 
ENDBRANCH  27  32
ENDBRANCH  21  29
ENDBRANCH  19  25
ENDBRANCH   1  20
TORSDOF 7
