REMARK  Name = ZINC34899529
REMARK  8 active torsions:
REMARK  status: ('A' for Active; 'I' for Inactive)
REMARK    1  A    between atoms: C_1  and  C_2
REMARK    2  A    between atoms: C_6  and  S_8
REMARK    3  A    between atoms: S_8  and  N_11
REMARK    4  A    between atoms: N_11  and  C_12
REMARK    5  A    between atoms: N_11  and  C_20
REMARK    6  A    between atoms: C_12  and  C_13
REMARK    7  A    between atoms: C_26  and  N_28
REMARK    8  A    between atoms: C_29  and  C_31
REMARK                            x       y       z     vdW  Elec       q    Type
REMARK                         _______ _______ _______ _____ _____    ______ ____
ROOT
ATOM      1  N   UNL     1       1.820  -3.380   3.108  0.00  0.00    -0.167 NA
ENDROOT
BRANCH   1   2
ATOM      2  C   UNL     1       2.745  -4.501   2.932  0.00  0.00    +0.100 C 
ATOM      3  C   UNL     1       3.276  -4.943   4.297  0.00  0.00    +0.022 C 
ATOM      4  C   UNL     1       4.010  -3.776   4.961  0.00  0.00    +0.002 C 
ATOM      5  C   UNL     1       5.179  -3.338   4.077  0.00  0.00    +0.002 C 
ATOM      6  C   UNL     1       4.648  -2.897   2.712  0.00  0.00    +0.024 C 
ATOM      7  C   UNL     1       3.915  -4.064   2.047  0.00  0.00    +0.092 C 
BRANCH   7   8
ATOM      8  N   UNL     1       3.406  -3.641   0.740  0.00  0.00    -0.312 N 
ATOM      9  C   UNL     1       4.206  -3.695  -0.344  0.00  0.00    +0.199 C 
ATOM     10  O   UNL     1       5.346  -4.094  -0.237  0.00  0.00    -0.278 OA
ATOM     11  H   UNL     1       2.494  -3.321   0.655  0.00  0.00    +0.149 HD
BRANCH   9  12
ATOM     12  C   UNL     1       3.683  -3.260  -1.688  0.00  0.00    +0.016 C 
ATOM     13  C   UNL     1       3.311  -1.756  -1.661  0.00  0.00    -0.009 C 
ATOM     14  C   UNL     1       3.423  -1.379  -3.162  0.00  0.00    -0.020 C 
ATOM     15  C   UNL     1       4.609  -2.238  -3.649  0.00  0.00    -0.082 C 
ATOM     16  N   UNL     1       4.742  -3.371  -2.713  0.00  0.00    +0.387 N 
ATOM     17  H   UNL     1       5.648  -3.340  -2.270  0.00  0.00    -0.085 HD
ATOM     18  H   UNL     1       4.640  -4.241  -3.214  0.00  0.00    -0.085 HD
ENDBRANCH   9  12
ENDBRANCH   7   8
ENDBRANCH   1   2
BRANCH   1  19
ATOM     19  S   UNL     1       1.819  -2.128   2.023  0.00  0.00    +0.061 S 
ATOM     20  O   UNL     1       0.638  -2.266   1.245  0.00  0.00    -0.153 OA
ATOM     21  O   UNL     1       3.115  -2.095   1.441  0.00  0.00    -0.153 OA
BRANCH  19  27
ATOM     22  C   UNL     1      -0.257   2.616   2.728  0.00  0.00    +0.044 C 
ATOM     23  C   UNL     1       0.663   1.529   3.219  0.00  0.00    -0.049 A 
ATOM     24  C   UNL     1       1.370   1.701   4.395  0.00  0.00    +0.003 A 
ATOM     25  C   UNL     1       2.214   0.704   4.846  0.00  0.00    +0.002 A 
ATOM     26  C   UNL     1       2.351  -0.466   4.121  0.00  0.00    +0.028 A 
ATOM     27  C   UNL     1       1.644  -0.638   2.946  0.00  0.00    +0.106 A 
ATOM     28  C   UNL     1       0.796   0.358   2.498  0.00  0.00    +0.032 A 
ENDBRANCH  19  27
ENDBRANCH   1  19
BRANCH   1  29
ATOM     29  C   UNL     1       0.894  -3.365   4.243  0.00  0.00    +0.147 C 
BRANCH  29  30
ATOM     30  C   UNL     1      -0.366  -4.104   3.874  0.00  0.00    +0.003 A 
ATOM     31  C   UNL     1      -1.499  -3.401   3.512  0.00  0.00    +0.008 A 
ATOM     32  C   UNL     1      -2.655  -4.079   3.174  0.00  0.00    +0.000 A 
ATOM     33  C   UNL     1      -2.679  -5.462   3.196  0.00  0.00    +0.003 A 
ATOM     34  C   UNL     1      -1.547  -6.167   3.557  0.00  0.00    +0.038 A 
ATOM     35  C   UNL     1      -0.387  -5.489   3.892  0.00  0.00    +0.128 A 
ATOM     36  F   UNL     1       0.722  -6.177   4.240  0.00  0.00    -0.205 F 
ENDBRANCH  29  30
ENDBRANCH   1  29
TORSDOF 7
