REMARK  Name = ZINC23595674
REMARK  8 active torsions:
REMARK  status: ('A' for Active; 'I' for Inactive)
REMARK    1  A    between atoms: C_1  and  C_2
REMARK    2  A    between atoms: C_2  and  C_4
REMARK    3  A    between atoms: C_2  and  S_18
REMARK    4  A    between atoms: C_4  and  C_6
REMARK    5  A    between atoms: C_6  and  C_16
REMARK    6  A    between atoms: S_18  and  C_19
REMARK    7  A    between atoms: C_22  and  C_25
REMARK    8  A    between atoms: N_23  and  C_24
REMARK                            x       y       z     vdW  Elec       q    Type
REMARK                         _______ _______ _______ _____ _____    ______ ____
ROOT
ATOM      1  C   UNL     1      -0.735   1.996   1.269  0.00  0.00    +0.028 C 
ATOM      2  C   UNL     1      -0.018   1.503   0.010  0.00  0.00    +0.123 C 
ENDROOT
BRANCH   2   3
ATOM      3  C   UNL     1       0.002  -0.004   0.002  0.00  0.00    +0.189 C 
ATOM      4  O   UNL     1       0.969  -0.601   0.435  0.00  0.00    -0.290 OA
BRANCH   3   5
ATOM      5  C   UNL     1      -1.095  -0.719  -0.505  0.00  0.00    +0.123 C 
ATOM      6  C   UNL     1      -1.076  -2.126  -0.513  0.00  0.00    +0.091 C 
ATOM      7  N   UNL     1      -0.095  -2.958  -0.077  0.00  0.00    -0.307 N 
ATOM      8  C   UNL     1      -0.256  -4.327  -0.165  0.00  0.00    +0.046 A 
ATOM      9  C   UNL     1       0.638  -5.336   0.229  0.00  0.00    +0.024 A 
ATOM     10  C   UNL     1       0.315  -6.662   0.067  0.00  0.00    +0.002 A 
ATOM     11  C   UNL     1      -0.895  -7.045  -0.487  0.00  0.00    +0.001 A 
ATOM     12  C   UNL     1      -1.794  -6.071  -0.885  0.00  0.00    +0.017 A 
ATOM     13  C   UNL     1      -1.473  -4.744  -0.723  0.00  0.00    +0.035 A 
ATOM     14  S   UNL     1      -2.303  -3.215  -1.075  0.00  0.00    -0.071 S 
ATOM     15  H   UNL     1       0.830  -2.541   0.348  0.00  0.00    +0.153 HD
BRANCH   5  16
ATOM     16  C   UNL     1      -2.234  -0.015  -1.015  0.00  0.00    +0.105 C 
ATOM     17  N   UNL     1      -3.137   0.543  -1.419  0.00  0.00    -0.191 NA
ENDBRANCH   5  16
ENDBRANCH   3   5
ENDBRANCH   2   3
BRANCH   2  18
ATOM     18  S   UNL     1       1.680   2.129  -0.003  0.00  0.00    -0.075 S 
BRANCH  18  19
ATOM     19  C   UNL     1       1.367   3.858  -0.141  0.00  0.00    +0.192 A 
ATOM     20  N   UNL     1       0.190   4.435  -0.216  0.00  0.00    -0.122 NA
ATOM     21  N   UNL     1       0.333   5.709  -0.306  0.00  0.00    -0.130 NA
ATOM     22  C   UNL     1       1.599   6.018  -0.303  0.00  0.00    +0.178 A 
ATOM     23  N   UNL     1       2.303   4.850  -0.198  0.00  0.00    -0.306 N 
ATOM     24  C   UNL     1       3.759   4.696  -0.155  0.00  0.00    +0.153 C 
BRANCH  22  25
ATOM     25  C   UNL     1       2.180   7.405  -0.398  0.00  0.00    +0.278 C 
ATOM     26  C   UNL     1       2.037   7.929  -1.833  0.00  0.00    +0.281 C 
ATOM     27  O   UNL     1       2.585   9.251  -1.884  0.00  0.00    -0.484 OA
ATOM     28  C   UNL     1       2.220  10.103  -0.887  0.00  0.00    +0.162 A 
ATOM     29  C   UNL     1       2.409  11.467  -1.055  0.00  0.00    +0.049 A 
ATOM     30  C   UNL     1       2.047  12.345  -0.051  0.00  0.00    +0.004 A 
ATOM     31  C   UNL     1       1.496  11.866   1.124  0.00  0.00    +0.004 A 
ATOM     32  C   UNL     1       1.305  10.508   1.297  0.00  0.00    +0.049 A 
ATOM     33  C   UNL     1       1.664   9.622   0.292  0.00  0.00    +0.163 A 
ATOM     34  O   UNL     1       1.466   8.288   0.475  0.00  0.00    -0.474 OA
ENDBRANCH  22  25
ENDBRANCH  18  19
ENDBRANCH   2  18
TORSDOF 6
