REMARK  Name = ZINC43526919
REMARK  11 active torsions:
REMARK  status: ('A' for Active; 'I' for Inactive)
REMARK    1  A    between atoms: C_1  and  C_2
REMARK    2  A    between atoms: C_5  and  S_8
REMARK    3  A    between atoms: S_8  and  N_11
REMARK    4  A    between atoms: N_11  and  C_12
REMARK    5  A    between atoms: C_12  and  C_13
REMARK    6  A    between atoms: C_22  and  C_24
REMARK    7  A    between atoms: C_24  and  N_25
REMARK    8  A    between atoms: N_25  and  C_26
REMARK    9  A    between atoms: N_25  and  C_27
REMARK   10  A    between atoms: C_27  and  C_28
REMARK   11  A    between atoms: C_28  and  C_29
REMARK                            x       y       z     vdW  Elec       q    Type
REMARK                         _______ _______ _______ _____ _____    ______ ____
ROOT
ATOM      1  C   UNL     1       3.832  -5.541   0.720  0.00  0.00    -0.053 C 
ATOM      2  C   UNL     1       4.502  -5.347   2.082  0.00  0.00    -0.011 C 
ATOM      3  C   UNL     1       4.581  -6.704   2.793  0.00  0.00    -0.015 C 
ATOM      4  C   UNL     1       3.155  -7.244   2.965  0.00  0.00    -0.015 C 
ATOM      5  C   UNL     1       2.505  -7.372   1.585  0.00  0.00    -0.078 C 
ATOM      6  N   UNL     1       3.481  -6.950   0.532  0.00  0.00    +0.383 N 
ATOM      7  C   UNL     1       4.683  -7.788   0.553  0.00  0.00    -0.077 C 
ATOM      8  C   UNL     1       5.381  -7.668   1.907  0.00  0.00    -0.041 C 
ATOM      9  H   UNL     1       3.046  -7.053  -0.372  0.00  0.00    -0.081 HD
ENDROOT
BRANCH   1  10
ATOM     10  C   UNL     1       2.563  -4.689   0.652  0.00  0.00    +0.090 C 
BRANCH  10  11
ATOM     11  N   UNL     1       1.859  -4.959  -0.604  0.00  0.00    -0.191 NA
ATOM     12  H   UNL     1       2.315  -5.421  -1.325  0.00  0.00    +0.148 HD
BRANCH  11  13
ATOM     13  S   UNL     1       0.287  -4.475  -0.793  0.00  0.00    +0.058 S 
ATOM     14  O   UNL     1      -0.415  -4.914   0.362  0.00  0.00    -0.153 OA
ATOM     15  O   UNL     1      -0.099  -4.852  -2.108  0.00  0.00    -0.153 OA
BRANCH  13  20
ATOM     16  C   UNL     1       0.244   1.557  -0.649  0.00  0.00    +0.044 C 
ATOM     17  C   UNL     1       0.255   0.050  -0.685  0.00  0.00    -0.050 A 
ATOM     18  C   UNL     1       0.413  -0.611  -1.889  0.00  0.00    +0.005 A 
ATOM     19  C   UNL     1       0.423  -1.993  -1.921  0.00  0.00    +0.029 A 
ATOM     20  C   UNL     1       0.275  -2.713  -0.751  0.00  0.00    +0.105 A 
ATOM     21  C   UNL     1       0.118  -2.052   0.453  0.00  0.00    +0.029 A 
ATOM     22  C   UNL     1       0.113  -0.670   0.486  0.00  0.00    +0.005 A 
ENDBRANCH  13  20
ENDBRANCH  11  13
ENDBRANCH  10  11
ENDBRANCH   1  10
BRANCH   8  23
ATOM     23  C   UNL     1       5.445  -9.044   2.574  0.00  0.00    -0.077 C 
BRANCH  23  24
ATOM     24  N   UNL     1       6.321  -9.927   1.792  0.00  0.00    +0.378 N 
ATOM     25  C   UNL     1       6.265 -11.287   2.345  0.00  0.00    -0.096 C 
ATOM     26  H   UNL     1       6.013  -9.941   0.832  0.00  0.00    -0.082 HD
BRANCH  24  27
ATOM     27  C   UNL     1       7.702  -9.428   1.857  0.00  0.00    -0.073 C 
BRANCH  27  28
ATOM     28  C   UNL     1       8.592 -10.274   0.943  0.00  0.00    +0.037 C 
BRANCH  28  29
ATOM     29  C   UNL     1      10.008  -9.763   1.009  0.00  0.00    +0.040 A 
ATOM     30  C   UNL     1      11.033 -10.631   1.334  0.00  0.00    +0.023 A 
ATOM     31  C   UNL     1      12.332 -10.151   1.392  0.00  0.00    +0.003 A 
ATOM     32  C   UNL     1      12.553  -8.809   1.119  0.00  0.00    +0.020 A 
ATOM     33  C   UNL     1      11.478  -8.001   0.801  0.00  0.00    +0.111 A 
ATOM     34  N   UNL     1      10.255  -8.494   0.750  0.00  0.00    -0.260 NA
ENDBRANCH  28  29
ENDBRANCH  27  28
ENDBRANCH  24  27
ENDBRANCH  23  24
ENDBRANCH   8  23
TORSDOF 9
