REMARK  Name = ZINC13963371
REMARK  7 active torsions:
REMARK  status: ('A' for Active; 'I' for Inactive)
REMARK    1  A    between atoms: C_1  and  C_2
REMARK    2  A    between atoms: C_2  and  N_3
REMARK    3  A    between atoms: C_7  and  N_31
REMARK    4  A    between atoms: N_12  and  C_13
REMARK    5  A    between atoms: C_13  and  C_15
REMARK    6  A    between atoms: N_20  and  S_22
REMARK    7  A    between atoms: S_22  and  C_25
REMARK                            x       y       z     vdW  Elec       q    Type
REMARK                         _______ _______ _______ _____ _____    ______ ____
ROOT
ATOM      1  C   UNL     1       0.002  -0.004   0.002  0.00  0.00    +0.243 C 
ATOM      2  O   UNL     1       1.063  -0.598  -0.011  0.00  0.00    -0.273 OA
ENDROOT
BRANCH   1  12
ATOM      3  N   UNL     1       1.306   3.353   0.008  0.00  0.00    -0.321 N 
ATOM      4  C   UNL     1       2.583   3.884  -0.002  0.00  0.00    +0.058 A 
ATOM      5  C   UNL     1       2.965   5.234   0.001  0.00  0.00    +0.029 A 
ATOM      6  C   UNL     1       4.293   5.589  -0.009  0.00  0.00    +0.035 A 
ATOM      7  C   UNL     1       5.292   4.631  -0.024  0.00  0.00    +0.127 A 
ATOM      8  C   UNL     1       4.944   3.292  -0.028  0.00  0.00    +0.050 A 
ATOM      9  C   UNL     1       3.616   2.936  -0.017  0.00  0.00    +0.041 A 
ATOM     10  S   UNL     1       2.748   1.387  -0.009  0.00  0.00    -0.052 S 
ATOM     11  C   UNL     1       1.128   2.006   0.002  0.00  0.00    +0.166 A 
ATOM     12  N   UNL     1      -0.016   1.325   0.009  0.00  0.00    -0.156 NA
BRANCH   7  13
ATOM     13  N   UNL     1       6.716   5.034  -0.035  0.00  0.00    +0.056 N 
ATOM     14  O   UNL     1       7.590   4.185  -0.048  0.00  0.00    -0.126 OA
ATOM     15  O   UNL     1       7.015   6.215  -0.032  0.00  0.00    -0.126 OA
ENDBRANCH   7  13
BRANCH   3  17
ATOM     16  C   UNL     1      -0.246   4.548   1.471  0.00  0.00    +0.027 C 
ATOM     17  C   UNL     1       0.144   4.245   0.024  0.00  0.00    +0.121 C 
ENDBRANCH   3  17
ENDBRANCH   1  12
BRANCH   1  18
ATOM     18  C   UNL     1      -1.293  -0.775   0.010  0.00  0.00    +0.093 C 
ATOM     19  C   UNL     1      -2.112  -0.411  -1.230  0.00  0.00    +0.015 C 
ATOM     20  C   UNL     1      -3.441  -1.169  -1.206  0.00  0.00    +0.018 C 
ATOM     21  C   UNL     1      -3.166  -2.676  -1.233  0.00  0.00    +0.109 C 
ATOM     22  N   UNL     1      -2.260  -3.011  -0.126  0.00  0.00    -0.175 NA
ATOM     23  C   UNL     1      -0.993  -2.277  -0.002  0.00  0.00    +0.122 C 
BRANCH  22  24
ATOM     24  S   UNL     1      -2.659  -4.194   0.962  0.00  0.00    +0.067 S 
ATOM     25  O   UNL     1      -1.935  -3.912   2.152  0.00  0.00    -0.152 OA
ATOM     26  O   UNL     1      -4.076  -4.304   0.940  0.00  0.00    -0.152 OA
BRANCH  24  27
ATOM     27  C   UNL     1      -2.026  -5.714   0.336  0.00  0.00    +0.144 A 
ATOM     28  C   UNL     1      -0.812  -6.281   0.540  0.00  0.00    +0.038 A 
ATOM     29  C   UNL     1      -0.531  -7.497  -0.056  0.00  0.00    +0.030 A 
ATOM     30  C   UNL     1      -1.475  -8.079  -0.837  0.00  0.00    +0.080 A 
ATOM     31  S   UNL     1      -2.813  -6.902  -0.739  0.00  0.00    -0.057 S 
ATOM     32 CL   UNL     1      -1.400  -9.580  -1.707  0.00  0.00    -0.076 Cl
ENDBRANCH  24  27
ENDBRANCH  22  24
ENDBRANCH   1  18
TORSDOF 6
