REMARK  Name = ZINC15319723
REMARK  4 active torsions:
REMARK  status: ('A' for Active; 'I' for Inactive)
REMARK    1  A    between atoms: C_6  and  C_7
REMARK    2  A    between atoms: C_10  and  C_36
REMARK    3  A    between atoms: C_15  and  C_17
REMARK    4  A    between atoms: N_22  and  C_25
REMARK                            x       y       z     vdW  Elec       q    Type
REMARK                         _______ _______ _______ _____ _____    ______ ____
ROOT
ATOM      1  C   UNL     1       0.877  -8.180   5.964  0.00  0.00    +0.104 C 
ATOM      2  C   UNL     1       2.354  -8.516   5.735  0.00  0.00    +0.063 C 
ATOM      3  C   UNL     1       2.571  -8.955   4.283  0.00  0.00    +0.215 C 
ATOM      4  N   UNL     1       1.955  -7.967   3.392  0.00  0.00    -0.238 N 
ATOM      5  C   UNL     1       1.000  -7.076   3.793  0.00  0.00    +0.119 A 
ATOM      6  C   UNL     1       0.659  -6.319   2.732  0.00  0.00    +0.078 A 
ATOM      7  C   UNL     1       1.430  -6.757   1.631  0.00  0.00    +0.149 A 
ATOM      8  N   UNL     1       2.204  -7.747   2.038  0.00  0.00    -0.164 NA
ATOM      9  N   UNL     1       0.514  -7.033   5.108  0.00  0.00    -0.322 N 
ATOM     10  H   UNL     1      -0.024  -6.297   5.437  0.00  0.00    +0.148 HD
ENDROOT
BRANCH   7  11
ATOM     11  C   UNL     1       1.378  -6.204   0.262  0.00  0.00    +0.267 C 
ATOM     12  O   UNL     1       0.720  -5.208   0.034  0.00  0.00    -0.268 OA
ATOM     13  N   UNL     1       2.060  -6.803  -0.734  0.00  0.00    -0.300 N 
ATOM     14  C   UNL     1       2.150  -6.188  -2.067  0.00  0.00    +0.089 C 
ATOM     15  C   UNL     1       1.763  -7.238  -3.113  0.00  0.00    -0.059 C 
ATOM     16  N   UNL     1       2.599  -8.433  -2.939  0.00  0.00    +0.385 N 
ATOM     17  C   UNL     1       2.322  -9.052  -1.637  0.00  0.00    -0.059 C 
ATOM     18  C   UNL     1       2.742  -8.089  -0.516  0.00  0.00    +0.089 C 
ATOM     19  H   UNL     1       3.572  -8.170  -2.985  0.00  0.00    -0.081 HD
BRANCH  16  20
ATOM     20  C   UNL     1       2.305  -9.395  -4.010  0.00  0.00    -0.065 C 
ATOM     21  C   UNL     1       2.603  -8.755  -5.367  0.00  0.00    -0.009 C 
ATOM     22  C   UNL     1       2.297  -9.757  -6.482  0.00  0.00    -0.012 C 
ATOM     23  C   UNL     1       3.167 -11.002  -6.302  0.00  0.00    +0.007 C 
ATOM     24  C   UNL     1       2.869 -11.642  -4.945  0.00  0.00    -0.012 C 
ATOM     25  C   UNL     1       3.176 -10.640  -3.830  0.00  0.00    -0.009 C 
ATOM     26  C   UNL     1       1.392 -12.039  -4.882  0.00  0.00    +0.007 C 
ATOM     27  C   UNL     1       0.522 -10.793  -5.062  0.00  0.00    -0.012 C 
ATOM     28  C   UNL     1       0.820 -10.153  -6.419  0.00  0.00    +0.007 C 
ATOM     29  C   UNL     1       0.829  -9.791  -3.947  0.00  0.00    -0.009 C 
ENDBRANCH  16  20
ENDBRANCH   7  11
BRANCH   1  35
ATOM     30  C   UNL     1      -0.461 -10.197   6.600  0.00  0.00    +0.008 A 
ATOM     31  C   UNL     1      -1.242 -11.289   6.271  0.00  0.00    +0.038 A 
ATOM     32  C   UNL     1      -1.538 -11.553   4.945  0.00  0.00    +0.123 A 
ATOM     33  C   UNL     1      -1.051 -10.724   3.949  0.00  0.00    +0.038 A 
ATOM     34  C   UNL     1      -0.270  -9.633   4.280  0.00  0.00    +0.008 A 
ATOM     35  C   UNL     1       0.025  -9.370   5.605  0.00  0.00    -0.027 A 
ATOM     36  F   UNL     1      -2.302 -12.620   4.622  0.00  0.00    -0.205 F 
ENDBRANCH   1  35
BRANCH   3  37
ATOM     37  C   UNL     1       4.070  -9.045   3.993  0.00  0.00    +0.412 C 
ATOM     38  F   UNL     1       4.656  -9.980   4.853  0.00  0.00    -0.168 F 
ATOM     39  F   UNL     1       4.266  -9.445   2.666  0.00  0.00    -0.168 F 
ATOM     40  F   UNL     1       4.661  -7.793   4.194  0.00  0.00    -0.168 F 
ENDBRANCH   3  37
TORSDOF 4
