REMARK  Name = ZINC41586038
REMARK  11 active torsions:
REMARK  status: ('A' for Active; 'I' for Inactive)
REMARK    1  A    between atoms: C_1  and  C_2
REMARK    2  A    between atoms: C_2  and  O_3
REMARK    3  A    between atoms: O_3  and  C_4
REMARK    4  A    between atoms: N_9  and  C_12
REMARK    5  A    between atoms: C_12  and  C_13
REMARK    6  A    between atoms: C_14  and  O_34
REMARK    7  A    between atoms: C_16  and  C_33
REMARK    8  A    between atoms: C_21  and  C_22
REMARK    9  A    between atoms: C_25  and  N_28
REMARK   10  A    between atoms: N_28  and  C_29
REMARK   11  A    between atoms: N_28  and  C_30
REMARK                            x       y       z     vdW  Elec       q    Type
REMARK                         _______ _______ _______ _____ _____    ______ ____
ROOT
ATOM      1  C   UNL     1      -6.498  -5.249   1.577  0.00  0.00    +0.051 A 
ATOM      2  C   UNL     1      -7.547  -5.466   0.698  0.00  0.00    +0.125 A 
ATOM      3  C   UNL     1      -7.962  -6.760   0.396  0.00  0.00    +0.050 A 
ATOM      4  C   UNL     1      -7.335  -7.832   0.966  0.00  0.00    -0.033 A 
ATOM      5  C   UNL     1      -6.278  -7.629   1.852  0.00  0.00    +0.071 A 
ATOM      6  C   UNL     1      -5.847  -6.329   2.161  0.00  0.00    +0.148 A 
ATOM      7  O   UNL     1      -4.814  -6.386   3.029  0.00  0.00    -0.451 OA
ATOM      8  C   UNL     1      -4.491  -7.662   3.345  0.00  0.00    +0.176 C 
ATOM      9  C   UNL     1      -3.502  -8.054   4.189  0.00  0.00    +0.058 C 
ATOM     10  C   UNL     1      -5.413  -8.546   2.618  0.00  0.00    +0.232 C 
ATOM     11  O   UNL     1      -5.447  -9.764   2.635  0.00  0.00    -0.283 OA
ATOM     12  C   UNL     1      -7.787  -9.232   0.637  0.00  0.00    +0.045 C 
ENDROOT
BRANCH   9  13
ATOM     13  C   UNL     1      -2.594  -7.058   4.768  0.00  0.00    -0.021 A 
ATOM     14  C   UNL     1      -2.827  -5.692   4.562  0.00  0.00    +0.010 A 
ATOM     15  C   UNL     1      -1.979  -4.768   5.104  0.00  0.00    +0.023 A 
ATOM     16  C   UNL     1      -0.884  -5.182   5.859  0.00  0.00    +0.029 A 
ATOM     17  C   UNL     1      -0.649  -6.539   6.066  0.00  0.00    +0.023 A 
ATOM     18  C   UNL     1      -1.495  -7.470   5.533  0.00  0.00    +0.010 A 
BRANCH  16  19
ATOM     19  N   UNL     1      -0.023  -4.237   6.409  0.00  0.00    -0.336 N 
ATOM     20  C   UNL     1      -0.329  -2.810   6.288  0.00  0.00    +0.129 C 
ATOM     21  C   UNL     1       1.189  -4.670   7.107  0.00  0.00    +0.129 C 
ENDBRANCH  16  19
ENDBRANCH   9  13
BRANCH   2  22
ATOM     22  O   UNL     1      -8.175  -4.407   0.126  0.00  0.00    -0.506 OA
ATOM     23  H   UNL     1      -7.787  -4.126  -0.714  0.00  0.00    +0.292 HD
ENDBRANCH   2  22
BRANCH   1  24
ATOM     24  C   UNL     1      -6.059  -3.843   1.894  0.00  0.00    +0.127 C 
BRANCH  24  30
ATOM     25  C   UNL     1      -1.376  -1.904  -0.042  0.00  0.00    +0.403 C 
ATOM     26  O   UNL     1      -0.408  -2.638  -0.030  0.00  0.00    -0.226 OA
ATOM     27  N   UNL     1      -2.618  -2.426  -0.047  0.00  0.00    -0.265 N 
ATOM     28  C   UNL     1      -3.803  -1.555  -0.067  0.00  0.00    +0.126 C 
ATOM     29  C   UNL     1      -4.745  -1.988   1.062  0.00  0.00    +0.104 C 
ATOM     30  N   UNL     1      -5.027  -3.424   0.936  0.00  0.00    -0.295 NA
ATOM     31  C   UNL     1      -3.805  -4.223   1.096  0.00  0.00    +0.104 C 
ATOM     32  C   UNL     1      -2.825  -3.882  -0.038  0.00  0.00    +0.126 C 
BRANCH  25  33
ATOM     33  O   UNL     1      -1.207  -0.568  -0.050  0.00  0.00    -0.451 OA
BRANCH  33  35
ATOM     34  C   UNL     1       0.129   1.446  -0.055  0.00  0.00    +0.048 C 
ATOM     35  C   UNL     1       0.137  -0.084  -0.044  0.00  0.00    +0.230 C 
ENDBRANCH  33  35
ENDBRANCH  25  33
ENDBRANCH  24  30
ENDBRANCH   1  24
TORSDOF 7
