REMARK  Name = ZINC09424886
REMARK  16 active torsions:
REMARK  status: ('A' for Active; 'I' for Inactive)
REMARK    1  A    between atoms: C_1  and  C_2
REMARK    2  A    between atoms: C_2  and  N_73
REMARK    3  A    between atoms: C_3  and  C_4
REMARK    4  A    between atoms: C_3  and  N_73
REMARK    5  A    between atoms: C_5  and  C_6
REMARK    6  A    between atoms: C_5  and  N_73
REMARK    7  A    between atoms: C_6  and  C_7
REMARK    8  A    between atoms: C_7  and  N_8
REMARK    9  A    between atoms: C_9  and  C_29
REMARK   10  A    between atoms: C_11  and  C_16
REMARK   11  A    between atoms: C_12  and  O_15
REMARK   12  A    between atoms: C_16  and  C_18
REMARK   13  A    between atoms: C_25  and  C_28
REMARK   14  A    between atoms: C_33  and  O_35
REMARK   15  A    between atoms: O_35  and  C_36
REMARK   16  A    between atoms: C_36  and  C_37
REMARK                            x       y       z     vdW  Elec       q    Type
REMARK                         _______ _______ _______ _____ _____    ______ ____
ROOT
ATOM      1  N   UNL     1      -2.492  -2.577  -0.042  0.00  0.00    -0.284 N 
ATOM      2  C   UNL     1      -1.798  -1.285  -0.095  0.00  0.00    +0.145 C 
ATOM      3  C   UNL     1      -2.838  -0.235   0.222  0.00  0.00    +0.071 C 
ATOM      4  C   UNL     1      -4.002  -0.891   0.437  0.00  0.00    +0.188 C 
ATOM      5  C   UNL     1      -3.780  -2.342   0.266  0.00  0.00    +0.282 C 
ATOM      6  O   UNL     1      -4.635  -3.197   0.391  0.00  0.00    -0.267 OA
ENDROOT
BRANCH   2   7
ATOM      7  C   UNL     1      -0.693  -1.246   0.929  0.00  0.00    -0.019 A 
ATOM      8  C   UNL     1       0.541  -0.719   0.594  0.00  0.00    +0.006 A 
ATOM      9  C   UNL     1       1.556  -0.682   1.532  0.00  0.00    +0.004 A 
ATOM     10  C   UNL     1       1.340  -1.171   2.806  0.00  0.00    +0.045 A 
ATOM     11  C   UNL     1       0.103  -1.699   3.144  0.00  0.00    +0.121 A 
ATOM     12  C   UNL     1      -0.916  -1.731   2.203  0.00  0.00    +0.051 A 
BRANCH  11  13
ATOM     13  O   UNL     1      -0.112  -2.181   4.396  0.00  0.00    -0.488 OA
BRANCH  13  14
ATOM     14  C   UNL     1       0.981  -2.111   5.315  0.00  0.00    +0.256 C 
BRANCH  14  15
ATOM     15  C   UNL     1       0.559  -2.687   6.642  0.00  0.00    +0.006 C 
ATOM     16  C   UNL     1       1.351  -3.513   7.279  0.00  0.00    +0.007 C 
ENDBRANCH  14  15
ENDBRANCH  13  14
ENDBRANCH  11  13
ENDBRANCH   2   7
BRANCH   4  17
ATOM     17  O   UNL     1      -5.181  -0.310   0.756  0.00  0.00    -0.502 OA
ATOM     18  H   UNL     1      -5.883  -1.015   0.861  0.00  0.00    +0.292 HD
ENDBRANCH   4  17
BRANCH   3  19
ATOM     19  C   UNL     1      -2.625   1.214   0.289  0.00  0.00    +0.195 C 
ATOM     20  O   UNL     1      -2.718   1.794   1.355  0.00  0.00    -0.287 OA
BRANCH  19  21
ATOM     21  C   UNL     1      -2.298   1.970  -0.936  0.00  0.00    +0.023 A 
ATOM     22  C   UNL     1      -2.250   1.320  -2.174  0.00  0.00    +0.015 A 
ATOM     23  C   UNL     1      -1.955   2.026  -3.315  0.00  0.00    +0.046 A 
ATOM     24  C   UNL     1      -1.693   3.397  -3.250  0.00  0.00    +0.124 A 
ATOM     25  C   UNL     1      -1.731   4.036  -2.014  0.00  0.00    -0.002 A 
ATOM     26  C   UNL     1      -2.029   3.341  -0.869  0.00  0.00    +0.019 A 
ATOM     27  C   UNL     1      -1.396   5.495  -2.260  0.00  0.00    +0.083 C 
ATOM     28  C   UNL     1      -0.791   5.448  -3.683  0.00  0.00    +0.175 C 
ATOM     29  O   UNL     1      -1.395   4.272  -4.247  0.00  0.00    -0.488 OA
ATOM     30  C   UNL     1      -1.184   6.694  -4.479  0.00  0.00    +0.052 C 
ENDBRANCH  19  21
ENDBRANCH   3  19
BRANCH   1  31
ATOM     31  C   UNL     1      -1.888  -3.890  -0.281  0.00  0.00    +0.107 C 
BRANCH  31  32
ATOM     32  C   UNL     1      -1.497  -4.523   1.056  0.00  0.00    +0.000 C 
BRANCH  32  33
ATOM     33  C   UNL     1      -0.995  -5.948   0.818  0.00  0.00    -0.077 C 
BRANCH  33  34
ATOM     34  N   UNL     1      -0.682  -6.565   2.124  0.00  0.00    +0.379 N 
ATOM     35  H   UNL     1      -0.202  -5.874   2.713  0.00  0.00    -0.082 HD
BRANCH  34  37
ATOM     36  C   UNL     1      -1.600  -7.409   4.229  0.00  0.00    -0.017 C 
ATOM     37  C   UNL     1      -1.930  -6.984   2.796  0.00  0.00    -0.082 C 
ENDBRANCH  34  37
BRANCH  34  38
ATOM     38  C   UNL     1       0.205  -7.731   1.933  0.00  0.00    -0.082 C 
ATOM     39  C   UNL     1       1.631  -7.229   1.694  0.00  0.00    -0.017 C 
ENDBRANCH  34  38
ENDBRANCH  33  34
ENDBRANCH  32  33
ENDBRANCH  31  32
ENDBRANCH   1  31
TORSDOF 13
