REMARK  Name = ZINC49504681
REMARK  10 active torsions:
REMARK  status: ('A' for Active; 'I' for Inactive)
REMARK    1  A    between atoms: C_1  and  N_2
REMARK    2  A    between atoms: N_2  and  C_3
REMARK    3  A    between atoms: N_2  and  C_4
REMARK    4  A    between atoms: C_7  and  C_10
REMARK    5  A    between atoms: C_10  and  C_12
REMARK    6  A    between atoms: C_10  and  N_32
REMARK    7  A    between atoms: C_12  and  N_13
REMARK    8  A    between atoms: C_14  and  C_16
REMARK    9  A    between atoms: N_18  and  C_19
REMARK   10  A    between atoms: C_23  and  N_25
REMARK                            x       y       z     vdW  Elec       q    Type
REMARK                         _______ _______ _______ _____ _____    ______ ____
ROOT
ATOM      1  N   UNL     1      -1.077  -2.872  -6.731  0.00  0.00    -0.305 N 
ATOM      2  C   UNL     1      -2.075  -3.087  -7.610  0.00  0.00    +0.299 C 
ATOM      3  O   UNL     1      -3.223  -3.153  -7.221  0.00  0.00    -0.265 OA
ATOM      4  H   UNL     1      -0.159  -2.820  -7.042  0.00  0.00    +0.149 HD
ENDROOT
BRANCH   2   5
ATOM      5  C   UNL     1      -1.770  -3.244  -9.063  0.00  0.00    +0.303 C 
ATOM      6  O   UNL     1      -0.622  -3.179  -9.453  0.00  0.00    -0.265 OA
ATOM      7  N   UNL     1      -2.768  -3.459  -9.943  0.00  0.00    -0.278 N 
ATOM      8  H   UNL     1      -3.691  -3.435  -9.644  0.00  0.00    +0.155 HD
BRANCH   7   9
ATOM      9  C   UNL     1      -2.475  -3.716 -11.284  0.00  0.00    +0.036 A 
ATOM     10  C   UNL     1      -1.318  -4.409 -11.623  0.00  0.00    +0.023 A 
ATOM     11  C   UNL     1      -1.027  -4.663 -12.949  0.00  0.00    +0.004 A 
ATOM     12  C   UNL     1      -1.884  -4.231 -13.943  0.00  0.00    +0.023 A 
ATOM     13  C   UNL     1      -3.042  -3.538 -13.611  0.00  0.00    +0.038 A 
ATOM     14  C   UNL     1      -3.340  -3.286 -12.280  0.00  0.00    +0.046 A 
BRANCH  13  15
ATOM     15  N   UNL     1      -3.908  -3.100 -14.618  0.00  0.00    -0.271 N 
ATOM     16  C   UNL     1      -4.668  -4.105 -15.351  0.00  0.00    +0.113 C 
ATOM     17  C   UNL     1      -5.869  -3.466 -16.049  0.00  0.00    +0.020 C 
ATOM     18  C   UNL     1      -5.382  -2.252 -16.849  0.00  0.00    +0.011 C 
ATOM     19  C   UNL     1      -4.912  -1.179 -15.863  0.00  0.00    +0.096 C 
ATOM     20  C   UNL     1      -3.992  -1.788 -14.845  0.00  0.00    +0.220 C 
ATOM     21  O   UNL     1      -3.283  -1.048 -14.196  0.00  0.00    -0.275 OA
ENDBRANCH  13  15
ENDBRANCH   7   9
ENDBRANCH   2   5
BRANCH   1  22
ATOM     22  C   UNL     1      -1.377  -2.718  -5.305  0.00  0.00    +0.131 C 
BRANCH  22  23
ATOM     23  C   UNL     1      -0.076  -2.486  -4.533  0.00  0.00    +0.121 C 
BRANCH  23  24
ATOM     24  N   UNL     1       0.636  -1.342  -5.107  0.00  0.00    -0.321 N 
ATOM     25  C   UNL     1       0.105  -0.461  -6.151  0.00  0.00    +0.110 C 
ATOM     26  C   UNL     1       1.215   0.572  -6.409  0.00  0.00    +0.056 C 
ATOM     27  C   UNL     1       2.325   0.182  -5.459  0.00  0.00    -0.025 A 
ATOM     28  C   UNL     1       1.916  -0.928  -4.736  0.00  0.00    +0.033 A 
ATOM     29  C   UNL     1       2.780  -1.472  -3.783  0.00  0.00    +0.023 A 
ATOM     30  C   UNL     1       4.019  -0.907  -3.564  0.00  0.00    +0.002 A 
ATOM     31  C   UNL     1       4.415   0.203  -4.288  0.00  0.00    +0.000 A 
ATOM     32  C   UNL     1       3.568   0.741  -5.240  0.00  0.00    +0.005 A 
ENDBRANCH  23  24
BRANCH  23  36
ATOM     33  C   UNL     1      -0.977  -1.690  -0.431  0.00  0.00    +0.029 A 
ATOM     34  C   UNL     1      -0.505  -2.940  -0.810  0.00  0.00    +0.023 A 
ATOM     35  C   UNL     1      -0.216  -3.195  -2.136  0.00  0.00    +0.007 A 
ATOM     36  C   UNL     1      -0.394  -2.205  -3.087  0.00  0.00    -0.025 A 
ATOM     37  C   UNL     1      -0.863  -0.960  -2.712  0.00  0.00    +0.007 A 
ATOM     38  C   UNL     1      -1.160  -0.701  -1.389  0.00  0.00    +0.023 A 
BRANCH  33  40
ATOM     39  C   UNL     1      -1.774  -0.112   1.306  0.00  0.00    +0.129 C 
ATOM     40  N   UNL     1      -1.271  -1.430   0.909  0.00  0.00    -0.336 N 
ATOM     41  C   UNL     1      -1.077  -2.474   1.918  0.00  0.00    +0.129 C 
ENDBRANCH  33  40
ENDBRANCH  23  36
ENDBRANCH  22  23
ENDBRANCH   1  22
TORSDOF 8
