REMARK  Name = ZINC08601331
REMARK  9 active torsions:
REMARK  status: ('A' for Active; 'I' for Inactive)
REMARK    1  A    between atoms: C_3  and  C_6
REMARK    2  A    between atoms: C_6  and  C_8
REMARK    3  A    between atoms: C_6  and  S_24
REMARK    4  A    between atoms: C_8  and  N_9
REMARK    5  A    between atoms: C_10  and  C_12
REMARK    6  A    between atoms: N_14  and  C_15
REMARK    7  A    between atoms: C_15  and  C_16
REMARK    8  A    between atoms: C_16  and  C_17
REMARK    9  A    between atoms: S_24  and  C_27
REMARK                            x       y       z     vdW  Elec       q    Type
REMARK                         _______ _______ _______ _____ _____    ______ ____
ROOT
ATOM      1  C   UNL     1       4.104  -0.114   1.211  0.00  0.00    +0.139 C 
ENDROOT
BRANCH   1   2
ATOM      2  N   UNL     1       5.569  -0.148   1.196  0.00  0.00    -0.305 N 
ATOM      3  C   UNL     1       6.239  -0.753   2.198  0.00  0.00    +0.299 C 
ATOM      4  O   UNL     1       5.629  -1.268   3.111  0.00  0.00    -0.265 OA
ATOM      5  H   UNL     1       6.056   0.264   0.466  0.00  0.00    +0.149 HD
BRANCH   3   6
ATOM      6  C   UNL     1       7.733  -0.787   2.183  0.00  0.00    +0.299 C 
ATOM      7  O   UNL     1       8.343  -0.271   1.269  0.00  0.00    -0.265 OA
ATOM      8  N   UNL     1       8.403  -1.391   3.184  0.00  0.00    -0.307 N 
ATOM      9  H   UNL     1       7.915  -1.804   3.914  0.00  0.00    +0.149 HD
BRANCH   8  10
ATOM     10  C   UNL     1       9.867  -1.425   3.169  0.00  0.00    +0.109 C 
BRANCH  10  11
ATOM     11  C   UNL     1      10.373  -2.165   4.410  0.00  0.00    +0.054 C 
BRANCH  11  12
ATOM     12  C   UNL     1      11.879  -2.200   4.395  0.00  0.00    -0.046 A 
ATOM     13  C   UNL     1      12.540  -3.246   3.779  0.00  0.00    +0.005 A 
ATOM     14  C   UNL     1      13.922  -3.279   3.765  0.00  0.00    +0.020 A 
ATOM     15  C   UNL     1      14.644  -2.264   4.367  0.00  0.00    +0.041 A 
ATOM     16  C   UNL     1      13.982  -1.216   4.983  0.00  0.00    +0.020 A 
ATOM     17  C   UNL     1      12.600  -1.182   4.992  0.00  0.00    +0.005 A 
ATOM     18 CL   UNL     1      16.379  -2.304   4.351  0.00  0.00    -0.084 Cl
ENDBRANCH  11  12
ENDBRANCH  10  11
ENDBRANCH   8  10
ENDBRANCH   3   6
ENDBRANCH   1   2
BRANCH   1  19
ATOM     19  C   UNL     1       3.599   0.625  -0.029  0.00  0.00    +0.218 C 
BRANCH  19  22
ATOM     20  C   UNL     1      -0.016   1.341   0.009  0.00  0.00    +0.041 A 
ATOM     21  C   UNL     1       1.331   1.769  -0.001  0.00  0.00    +0.047 A 
ATOM     22  C   UNL     1       2.092   0.660  -0.014  0.00  0.00    +0.131 A 
ATOM     23  O   UNL     1       1.282  -0.411  -0.012  0.00  0.00    -0.466 OA
ATOM     24  C   UNL     1       0.002  -0.004   0.002  0.00  0.00    +0.195 A 
ENDBRANCH  19  22
BRANCH  19  25
ATOM     25  S   UNL     1       4.169  -0.236  -1.521  0.00  0.00    +0.008 S 
ATOM     26  O   UNL     1       5.580  -0.123  -1.642  0.00  0.00    -0.169 OA
ATOM     27  O   UNL     1       3.532  -1.502  -1.629  0.00  0.00    -0.169 OA
BRANCH  25  28
ATOM     28  C   UNL     1       3.525   0.707  -2.862  0.00  0.00    +0.089 A 
ATOM     29  C   UNL     1       2.277   0.412  -3.378  0.00  0.00    +0.028 A 
ATOM     30  C   UNL     1       1.772   1.152  -4.431  0.00  0.00    +0.022 A 
ATOM     31  C   UNL     1       2.516   2.188  -4.968  0.00  0.00    +0.041 A 
ATOM     32  C   UNL     1       3.765   2.483  -4.451  0.00  0.00    +0.022 A 
ATOM     33  C   UNL     1       4.266   1.746  -3.395  0.00  0.00    +0.028 A 
ATOM     34 CL   UNL     1       1.882   3.117  -6.290  0.00  0.00    -0.084 Cl
ENDBRANCH  25  28
ENDBRANCH  19  25
ENDBRANCH   1  19
TORSDOF 9
