REMARK  Name = ZINC40985889
REMARK  8 active torsions:
REMARK  status: ('A' for Active; 'I' for Inactive)
REMARK    1  A    between atoms: C_6  and  C_7
REMARK    2  A    between atoms: C_7  and  S_8
REMARK    3  A    between atoms: S_8  and  C_9
REMARK    4  A    between atoms: C_12  and  C_16
REMARK    5  A    between atoms: N_18  and  C_19
REMARK    6  A    between atoms: C_19  and  C_20
REMARK    7  A    between atoms: C_20  and  C_22
REMARK    8  A    between atoms: C_20  and  N_29
REMARK                            x       y       z     vdW  Elec       q    Type
REMARK                         _______ _______ _______ _____ _____    ______ ____
ROOT
ATOM      1  C   UNL     1      -6.790  -4.162  -1.060  0.00  0.00    +0.248 C 
ATOM      2  O   UNL     1      -7.302  -4.646  -2.051  0.00  0.00    -0.270 OA
ATOM      3  N   UNL     1      -7.322  -4.396   0.156  0.00  0.00    -0.312 N 
ATOM      4  H   UNL     1      -6.914  -4.010   0.946  0.00  0.00    +0.149 HD
ENDROOT
BRANCH   1   8
ATOM      5  C   UNL     1      -3.396  -1.788  -1.421  0.00  0.00    +0.190 A 
ATOM      6  N   UNL     1      -3.906  -2.006  -0.215  0.00  0.00    -0.229 NA
ATOM      7  C   UNL     1      -4.981  -2.754  -0.058  0.00  0.00    +0.129 A 
ATOM      8  C   UNL     1      -5.586  -3.320  -1.188  0.00  0.00    +0.092 A 
ATOM      9  C   UNL     1      -5.016  -3.066  -2.445  0.00  0.00    +0.146 A 
ATOM     10  N   UNL     1      -3.941  -2.302  -2.517  0.00  0.00    -0.209 NA
ATOM     11 CL   UNL     1      -5.717  -3.738  -3.884  0.00  0.00    -0.061 Cl
BRANCH   5  12
ATOM     12  S   UNL     1      -1.957  -0.782  -1.573  0.00  0.00    -0.081 S 
BRANCH  12  13
ATOM     13  C   UNL     1      -1.570  -0.311   0.136  0.00  0.00    +0.112 C 
BRANCH  13  19
ATOM     14  C   UNL     1      -0.471   1.936   0.044  0.00  0.00    +0.007 A 
ATOM     15  C   UNL     1       0.653   2.739   0.057  0.00  0.00    +0.038 A 
ATOM     16  C   UNL     1       1.909   2.169   0.175  0.00  0.00    +0.123 A 
ATOM     17  C   UNL     1       2.037   0.794   0.280  0.00  0.00    +0.038 A 
ATOM     18  C   UNL     1       0.911  -0.007   0.267  0.00  0.00    +0.007 A 
ATOM     19  C   UNL     1      -0.343   0.564   0.149  0.00  0.00    -0.037 A 
ATOM     20  F   UNL     1       3.010   2.953   0.186  0.00  0.00    -0.205 F 
ENDBRANCH  13  19
ENDBRANCH  12  13
ENDBRANCH   5  12
ENDBRANCH   1   8
BRANCH   3  21
ATOM     21  C   UNL     1      -8.518  -5.233   0.283  0.00  0.00    +0.094 C 
BRANCH  21  22
ATOM     22  C   UNL     1      -8.851  -5.425   1.764  0.00  0.00    -0.020 C 
BRANCH  22  23
ATOM     23  C   UNL     1      -9.241  -4.100   2.367  0.00  0.00    -0.059 A 
ATOM     24  C   UNL     1     -10.519  -3.607   2.185  0.00  0.00    +0.003 A 
ATOM     25  C   UNL     1     -10.877  -2.392   2.738  0.00  0.00    +0.020 A 
ATOM     26  C   UNL     1      -9.956  -1.669   3.474  0.00  0.00    +0.041 A 
ATOM     27  C   UNL     1      -8.676  -2.163   3.656  0.00  0.00    +0.020 A 
ATOM     28  C   UNL     1      -8.321  -3.381   3.107  0.00  0.00    +0.003 A 
ATOM     29 CL   UNL     1     -10.405  -0.143   4.169  0.00  0.00    -0.084 Cl
ENDBRANCH  22  23
BRANCH  22  30
ATOM     30  N   UNL     1      -9.967  -6.371   1.896  0.00  0.00    +0.385 N 
ATOM     31  C   UNL     1      -9.574  -7.704   1.372  0.00  0.00    -0.078 C 
ATOM     32  C   UNL     1     -10.567  -8.666   2.070  0.00  0.00    -0.020 C 
ATOM     33  C   UNL     1     -10.709  -8.053   3.482  0.00  0.00    -0.020 C 
ATOM     34  C   UNL     1     -10.293  -6.579   3.324  0.00  0.00    -0.078 C 
ATOM     35  H   UNL     1     -10.776  -6.026   1.401  0.00  0.00    -0.081 HD
ENDBRANCH  22  30
ENDBRANCH  21  22
ENDBRANCH   3  21
TORSDOF 8
