REMARK  Name = ZINC67095637
REMARK  5 active torsions:
REMARK  status: ('A' for Active; 'I' for Inactive)
REMARK    1  A    between atoms: C_1  and  S_2
REMARK    2  A    between atoms: S_2  and  C_5
REMARK    3  A    between atoms: C_7  and  S_24
REMARK    4  A    between atoms: C_10  and  N_11
REMARK    5  A    between atoms: S_24  and  N_27
REMARK                            x       y       z     vdW  Elec       q    Type
REMARK                         _______ _______ _______ _____ _____    ______ ____
ROOT
ATOM      1  C   UNL     1       0.832  -0.456  -3.824  0.00  0.00    +0.111 A 
ATOM      2  C   UNL     1       2.089  -1.002  -3.653  0.00  0.00    +0.057 A 
ATOM      3  C   UNL     1       2.627  -1.122  -2.385  0.00  0.00    +0.107 A 
ATOM      4  C   UNL     1       1.909  -0.695  -1.283  0.00  0.00    +0.030 A 
ATOM      5  C   UNL     1       0.652  -0.147  -1.446  0.00  0.00    +0.027 A 
ATOM      6  C   UNL     1       0.111  -0.020  -2.720  0.00  0.00    +0.055 A 
ENDROOT
BRANCH   6   7
ATOM      7  N   UNL     1      -1.158   0.538  -2.889  0.00  0.00    -0.325 N 
ATOM      8  C   UNL     1      -1.259   1.956  -3.084  0.00  0.00    +0.109 C 
ATOM      9  C   UNL     1      -2.497   2.545  -2.476  0.00  0.00    +0.007 C 
ATOM     10  C   UNL     1      -2.756   2.046  -1.064  0.00  0.00    +0.008 C 
ATOM     11  C   UNL     1      -3.562   0.765  -0.995  0.00  0.00    -0.009 C 
ATOM     12  C   UNL     1      -4.825   0.862  -1.856  0.00  0.00    +0.007 C 
ATOM     13  C   UNL     1      -4.372   1.126  -3.294  0.00  0.00    -0.009 C 
ATOM     14  C   UNL     1      -3.721   2.509  -3.346  0.00  0.00    +0.008 C 
ATOM     15  C   UNL     1      -3.409   0.066  -3.779  0.00  0.00    +0.026 C 
ATOM     16  C   UNL     1      -2.311  -0.345  -2.864  0.00  0.00    +0.074 C 
ATOM     17  C   UNL     1      -2.786  -0.470  -1.427  0.00  0.00    +0.026 C 
ENDBRANCH   6   7
BRANCH   1  19
ATOM     18  C   UNL     1      -1.190  -1.528  -5.497  0.00  0.00    +0.200 C 
ATOM     19  S   UNL     1       0.148  -0.304  -5.440  0.00  0.00    -0.004 S 
ATOM     20  O   UNL     1       1.199  -0.687  -6.316  0.00  0.00    -0.170 OA
ATOM     21  O   UNL     1      -0.389   1.011  -5.485  0.00  0.00    -0.170 OA
ENDBRANCH   1  19
BRANCH   3  22
ATOM     22  S   UNL     1       4.230  -1.821  -2.172  0.00  0.00    +0.056 S 
ATOM     23  O   UNL     1       4.281  -2.323  -0.844  0.00  0.00    -0.153 OA
ATOM     24  O   UNL     1       4.469  -2.643  -3.307  0.00  0.00    -0.153 OA
BRANCH  22  25
ATOM     25  N   UNL     1       5.321  -0.578  -2.251  0.00  0.00    -0.204 NA
ATOM     26  H   UNL     1       6.153  -0.631  -1.756  0.00  0.00    +0.144 HD
ATOM     27  H   UNL     1       5.127   0.204  -2.792  0.00  0.00    +0.144 HD
ENDBRANCH  22  25
ENDBRANCH   3  22
TORSDOF 4
