REMARK  Name = ZINC44713592
REMARK  8 active torsions:
REMARK  status: ('A' for Active; 'I' for Inactive)
REMARK    1  A    between atoms: C_1  and  C_2
REMARK    2  A    between atoms: C_4  and  C_11
REMARK    3  A    between atoms: C_5  and  C_7
REMARK    4  A    between atoms: C_15  and  C_24
REMARK    5  A    between atoms: N_26  and  C_27
REMARK    6  A    between atoms: C_27  and  C_28
REMARK    7  A    between atoms: C_28  and  C_29
REMARK    8  A    between atoms: C_30  and  C_39
REMARK                            x       y       z     vdW  Elec       q    Type
REMARK                         _______ _______ _______ _____ _____    ______ ____
ROOT
ATOM      1  C   UNL     1      -1.367  -3.430  -0.015  0.00  0.00    +0.250 C 
ATOM      2  O   UNL     1      -0.814  -4.508  -0.125  0.00  0.00    -0.270 OA
ATOM      3  N   UNL     1      -2.708  -3.369   0.094  0.00  0.00    -0.296 N 
ATOM      4  C   UNL     1      -3.563  -2.159   0.118  0.00  0.00    +0.121 C 
ATOM      5  C   UNL     1      -4.807  -2.543  -0.714  0.00  0.00    +0.100 C 
ATOM      6  C   UNL     1      -4.868  -4.078  -0.643  0.00  0.00    -0.004 C 
ATOM      7  C   UNL     1      -3.663  -4.497   0.212  0.00  0.00    +0.115 C 
ATOM      8  C   UNL     1      -4.749  -4.678  -2.041  0.00  0.00    -0.010 C 
ATOM      9  C   UNL     1      -4.869  -6.202  -1.949  0.00  0.00    -0.082 C 
ATOM     10  N   UNL     1      -6.161  -6.557  -1.351  0.00  0.00    +0.379 N 
ATOM     11  C   UNL     1      -6.230  -6.056   0.027  0.00  0.00    -0.082 C 
ATOM     12  C   UNL     1      -6.168  -4.526   0.019  0.00  0.00    -0.010 C 
ATOM     13  H   UNL     1      -6.906  -6.147  -1.894  0.00  0.00    -0.086 HD
ATOM     14  H   UNL     1      -6.264  -7.561  -1.348  0.00  0.00    -0.086 HD
ENDROOT
BRANCH   1  18
ATOM     15  C   UNL     1       0.177   1.363   0.807  0.00  0.00    +0.086 C 
ATOM     16  C   UNL     1       0.094  -0.077   0.370  0.00  0.00    +0.103 A 
ATOM     17  C   UNL     1      -0.934  -0.905   0.609  0.00  0.00    +0.058 A 
ATOM     18  C   UNL     1      -0.569  -2.191  -0.002  0.00  0.00    +0.087 A 
ATOM     19  C   UNL     1       0.664  -1.998  -0.555  0.00  0.00    +0.220 A 
ATOM     20  O   UNL     1       1.035  -0.735  -0.326  0.00  0.00    -0.455 OA
BRANCH  19  21
ATOM     21  C   UNL     1       1.467  -3.032  -1.301  0.00  0.00    +0.451 C 
ATOM     22  F   UNL     1       1.150  -2.975  -2.662  0.00  0.00    -0.163 F 
ATOM     23  F   UNL     1       2.832  -2.775  -1.129  0.00  0.00    -0.163 F 
ATOM     24  F   UNL     1       1.166  -4.304  -0.804  0.00  0.00    -0.163 F 
ENDBRANCH  19  21
ENDBRANCH   1  18
BRANCH   5  25
ATOM     25  C   UNL     1      -4.645  -2.088  -2.142  0.00  0.00    +0.218 C 
ATOM     26  O   UNL     1      -3.550  -2.104  -2.663  0.00  0.00    -0.275 OA
ATOM     27  N   UNL     1      -5.717  -1.664  -2.840  0.00  0.00    -0.315 N 
ATOM     28  H   UNL     1      -6.593  -1.651  -2.423  0.00  0.00    +0.149 HD
BRANCH  27  29
ATOM     29  C   UNL     1      -5.560  -1.222  -4.227  0.00  0.00    +0.109 C 
BRANCH  29  30
ATOM     30  C   UNL     1      -6.919  -0.794  -4.784  0.00  0.00    +0.056 C 
BRANCH  30  31
ATOM     31  C   UNL     1      -6.757  -0.339  -6.212  0.00  0.00    -0.018 A 
ATOM     32  C   UNL     1      -6.489   0.909  -6.626  0.00  0.00    +0.017 A 
ATOM     33  N   UNL     1      -6.413   0.941  -7.992  0.00  0.00    -0.358 N 
ATOM     34  H   UNL     1      -6.230   1.732  -8.521  0.00  0.00    +0.166 HD
ATOM     35  C   UNL     1      -6.637  -0.318  -8.503  0.00  0.00    +0.047 A 
ATOM     36  C   UNL     1      -6.856  -1.177  -7.410  0.00  0.00    +0.003 A 
ATOM     37  C   UNL     1      -7.107  -2.532  -7.628  0.00  0.00    +0.010 A 
ATOM     38  C   UNL     1      -7.135  -3.020  -8.904  0.00  0.00    +0.001 A 
ATOM     39  C   UNL     1      -6.916  -2.178  -9.986  0.00  0.00    +0.002 A 
ATOM     40  C   UNL     1      -6.676  -0.835  -9.793  0.00  0.00    +0.026 A 
ATOM     41  C   UNL     1      -6.298   2.099  -5.721  0.00  0.00    +0.063 C 
ENDBRANCH  30  31
ENDBRANCH  29  30
ENDBRANCH  27  29
ENDBRANCH   5  25
TORSDOF 6
