REMARK  Name = ZINC09004955
REMARK  7 active torsions:
REMARK  status: ('A' for Active; 'I' for Inactive)
REMARK    1  A    between atoms: C_1  and  C_2
REMARK    2  A    between atoms: C_15  and  S_17
REMARK    3  A    between atoms: S_17  and  C_18
REMARK    4  A    between atoms: C_18  and  C_19
REMARK    5  A    between atoms: C_19  and  C_21
REMARK    6  A    between atoms: C_24  and  N_27
REMARK    7  A    between atoms: C_28  and  C_30
REMARK                            x       y       z     vdW  Elec       q    Type
REMARK                         _______ _______ _______ _____ _____    ______ ____
ROOT
ATOM      1  C   UNL     1      -4.780  15.434  -1.359  0.00  0.00    +0.008 C 
ATOM      2  C   UNL     1      -5.273  13.994  -1.510  0.00  0.00    -0.009 C 
ATOM      3  C   UNL     1      -6.514  13.778  -0.639  0.00  0.00    +0.008 C 
ATOM      4  C   UNL     1      -7.154  12.430  -0.972  0.00  0.00    +0.037 C 
ATOM      5  C   UNL     1      -6.088  11.342  -0.882  0.00  0.00    -0.023 A 
ATOM      6  C   UNL     1      -4.777  11.657  -0.921  0.00  0.00    -0.004 A 
ATOM      7  S   UNL     1      -3.927  10.108  -0.787  0.00  0.00    -0.073 S 
ATOM      8  C   UNL     1      -5.339   9.037  -0.678  0.00  0.00    +0.117 A 
ATOM      9  C   UNL     1      -6.427   9.924  -0.749  0.00  0.00    +0.075 A 
ATOM     10  C   UNL     1      -7.724   9.324  -0.684  0.00  0.00    +0.261 A 
ATOM     11  O   UNL     1      -8.727  10.014  -0.737  0.00  0.00    -0.267 OA
ATOM     12  N   UNL     1      -7.822   7.987  -0.562  0.00  0.00    -0.301 N 
ATOM     13  H   UNL     1      -8.699   7.577  -0.516  0.00  0.00    +0.171 HD
ATOM     14  C   UNL     1      -6.709   7.199  -0.500  0.00  0.00    +0.170 A 
ATOM     15  N   UNL     1      -5.503   7.726  -0.552  0.00  0.00    -0.216 NA
ATOM     16  C   UNL     1      -4.176  13.023  -1.052  0.00  0.00    +0.046 C 
ENDROOT
BRANCH  14  17
ATOM     17  S   UNL     1      -6.889   5.453  -0.341  0.00  0.00    -0.080 S 
BRANCH  17  18
ATOM     18  C   UNL     1      -5.148   4.959  -0.311  0.00  0.00    +0.156 C 
BRANCH  18  19
ATOM     19  C   UNL     1      -5.053   3.461  -0.176  0.00  0.00    +0.173 C 
ATOM     20  O   UNL     1      -6.063   2.793  -0.107  0.00  0.00    -0.291 OA
BRANCH  19  21
ATOM     21  C   UNL     1      -3.738   2.810  -0.129  0.00  0.00    +0.018 A 
ATOM     22  C   UNL     1      -3.647   1.418  -0.004  0.00  0.00    +0.013 A 
ATOM     23  C   UNL     1      -2.417   0.815   0.041  0.00  0.00    +0.024 A 
ATOM     24  C   UNL     1      -1.259   1.583  -0.038  0.00  0.00    +0.033 A 
ATOM     25  C   UNL     1      -1.344   2.968  -0.157  0.00  0.00    +0.024 A 
ATOM     26  C   UNL     1      -2.570   3.579  -0.208  0.00  0.00    +0.013 A 
BRANCH  24  27
ATOM     27  N   UNL     1      -0.011   0.966   0.007  0.00  0.00    -0.286 N 
ATOM     28  C   UNL     1       1.022   1.578   0.619  0.00  0.00    +0.214 C 
ATOM     29  O   UNL     1       0.887   2.700   1.061  0.00  0.00    -0.276 OA
ATOM     30  C   UNL     1       2.345   0.870   0.753  0.00  0.00    +0.109 C 
ATOM     31  H   UNL     1       0.115   0.097  -0.405  0.00  0.00    +0.155 HD
ENDBRANCH  24  27
ENDBRANCH  19  21
ENDBRANCH  18  19
ENDBRANCH  17  18
ENDBRANCH  14  17
TORSDOF 5
