REMARK  Name = ZINC20714125
REMARK  4 active torsions:
REMARK  status: ('A' for Active; 'I' for Inactive)
REMARK    1  A    between atoms: C_1  and  C_2
REMARK    2  A    between atoms: C_7  and  C_8
REMARK    3  A    between atoms: C_19  and  N_25
REMARK    4  A    between atoms: C_21  and  O_24
REMARK                            x       y       z     vdW  Elec       q    Type
REMARK                         _______ _______ _______ _____ _____    ______ ____
ROOT
ATOM      1  C   UNL     1      -0.944   1.510  -1.003  0.00  0.00    +0.105 C 
ATOM      2  C   UNL     1      -0.639   2.989  -1.114  0.00  0.00    +0.029 C 
ATOM      3  C   UNL     1      -1.383   3.798  -2.183  0.00  0.00    +0.033 C 
ATOM      4  C   UNL     1      -0.360   4.891  -2.504  0.00  0.00    -0.030 C 
ATOM      5  C   UNL     1       0.867   4.454  -2.241  0.00  0.00    -0.023 C 
ATOM      6  C   UNL     1       0.776   3.051  -1.768  0.00  0.00    +0.049 C 
ATOM      7  C   UNL     1       1.724   2.476  -0.788  0.00  0.00    -0.014 A 
ATOM      8  C   UNL     1       3.028   2.918  -0.695  0.00  0.00    +0.039 A 
ATOM      9  C   UNL     1       3.904   2.340   0.203  0.00  0.00    +0.130 A 
ATOM     10  C   UNL     1       3.470   1.309   1.017  0.00  0.00    +0.080 A 
ATOM     11  C   UNL     1       2.165   0.865   0.937  0.00  0.00    +0.140 A 
ATOM     12  C   UNL     1       1.265   1.447   0.035  0.00  0.00    +0.074 A 
ATOM     13  N   UNL     1      -0.043   0.958   0.021  0.00  0.00    -0.334 N 
ATOM     14  H   UNL     1      -0.411   0.199   0.727  0.00  0.00    +0.147 HD
ENDROOT
BRANCH   1  21
ATOM     15  C   UNL     1      -3.055   1.358  -2.970  0.00  0.00    +0.044 C 
ATOM     16  C   UNL     1      -1.704   0.760  -3.267  0.00  0.00    -0.045 A 
ATOM     17  C   UNL     1      -1.474   0.139  -4.481  0.00  0.00    +0.004 A 
ATOM     18  C   UNL     1      -0.235  -0.408  -4.753  0.00  0.00    +0.000 A 
ATOM     19  C   UNL     1       0.775  -0.336  -3.812  0.00  0.00    +0.000 A 
ATOM     20  C   UNL     1       0.547   0.289  -2.600  0.00  0.00    +0.006 A 
ATOM     21  C   UNL     1      -0.694   0.833  -2.326  0.00  0.00    -0.024 A 
ENDBRANCH   1  21
BRANCH   9  22
ATOM     22  N   UNL     1       5.301   2.821   0.294  0.00  0.00    +0.057 N 
ATOM     23  O   UNL     1       5.681   3.728  -0.424  0.00  0.00    -0.126 OA
ATOM     24  O   UNL     1       6.071   2.309   1.087  0.00  0.00    -0.126 OA
ENDBRANCH   9  22
BRANCH  11  25
ATOM     25  O   UNL     1       1.748  -0.148   1.743  0.00  0.00    -0.505 OA
ATOM     26  H   UNL     1       0.710  -0.506   1.684  0.00  0.00    +0.292 HD
ENDBRANCH  11  25
TORSDOF 3
