REMARK  Name = ZINC06616049
REMARK  9 active torsions:
REMARK  status: ('A' for Active; 'I' for Inactive)
REMARK    1  A    between atoms: C_4  and  N_7
REMARK    2  A    between atoms: N_7  and  C_8
REMARK    3  A    between atoms: C_8  and  N_10
REMARK    4  A    between atoms: N_10  and  N_11
REMARK    5  A    between atoms: N_11  and  C_12
REMARK    6  A    between atoms: C_12  and  N_14
REMARK    7  A    between atoms: C_15  and  C_17
REMARK    8  A    between atoms: C_17  and  O_18
REMARK    9  A    between atoms: O_18  and  C_19
REMARK                            x       y       z     vdW  Elec       q    Type
REMARK                         _______ _______ _______ _____ _____    ______ ____
ROOT
ATOM      1  C   UNL     1       0.126  -4.063   0.284  0.00  0.00    +0.153 C 
ATOM      2  S   UNL     1       1.623  -4.893   0.265  0.00  0.00    -0.017 S 
ENDROOT
BRANCH   1   3
ATOM      3  N   UNL     1      -1.026  -4.753   0.393  0.00  0.00    -0.264 N 
ATOM      4  C   UNL     1      -1.000  -6.097   0.487  0.00  0.00    +0.256 C 
ATOM      5  O   UNL     1       0.059  -6.685   0.473  0.00  0.00    -0.272 OA
ATOM      6  H   UNL     1      -1.874  -4.282   0.403  0.00  0.00    +0.157 HD
BRANCH   4   7
ATOM      7  C   UNL     1      -2.289  -6.869   0.609  0.00  0.00    +0.325 C 
BRANCH   7   8
ATOM      8  O   UNL     1      -2.002  -8.266   0.693  0.00  0.00    -0.482 OA
BRANCH   8   9
ATOM      9  C   UNL     1      -3.061  -9.108   0.808  0.00  0.00    +0.129 A 
ATOM     10  C   UNL     1      -4.334  -8.611   0.839  0.00  0.00    +0.046 A 
ATOM     11  C   UNL     1      -5.430  -9.461   0.956  0.00  0.00    +0.004 A 
ATOM     12  C   UNL     1      -5.267 -10.810   1.044  0.00  0.00    +0.009 A 
ATOM     13  C   UNL     1      -3.975 -11.360   1.016  0.00  0.00    -0.014 A 
ATOM     14  C   UNL     1      -2.856 -10.500   0.890  0.00  0.00    +0.024 A 
ATOM     15  C   UNL     1      -1.564 -11.049   0.867  0.00  0.00    +0.012 A 
ATOM     16  C   UNL     1      -1.403 -12.398   0.955  0.00  0.00    +0.001 A 
ATOM     17  C   UNL     1      -2.504 -13.245   1.073  0.00  0.00    +0.001 A 
ATOM     18  C   UNL     1      -3.770 -12.748   1.103  0.00  0.00    +0.008 A 
ENDBRANCH   8   9
ENDBRANCH   7   8
ENDBRANCH   4   7
ENDBRANCH   1   3
BRANCH   1  19
ATOM     19  N   UNL     1       0.100  -2.718   0.190  0.00  0.00    -0.246 N 
ATOM     20  H   UNL     1       0.930  -2.222   0.111  0.00  0.00    +0.172 HD
BRANCH  19  21
ATOM     21  N   UNL     1      -1.125  -2.038   0.205  0.00  0.00    -0.246 N 
ATOM     22  H   UNL     1      -1.954  -2.535   0.284  0.00  0.00    +0.172 HD
BRANCH  21  23
ATOM     23  C   UNL     1      -1.150  -0.694   0.111  0.00  0.00    +0.151 C 
ATOM     24  S   UNL     1      -2.647   0.137   0.130  0.00  0.00    -0.017 S 
BRANCH  23  25
ATOM     25  N   UNL     1       0.002  -0.004   0.002  0.00  0.00    -0.296 N 
ATOM     26  H   UNL     1       0.844  -0.477  -0.090  0.00  0.00    +0.154 HD
BRANCH  25  30
ATOM     27  C   UNL     1      -0.051   4.161   0.059  0.00  0.00    +0.000 A 
ATOM     28  C   UNL     1      -0.848   3.449   0.936  0.00  0.00    +0.002 A 
ATOM     29  C   UNL     1      -0.833   2.068   0.920  0.00  0.00    +0.023 A 
ATOM     30  C   UNL     1      -0.016   1.395   0.021  0.00  0.00    +0.033 A 
ATOM     31  C   UNL     1       0.788   2.113  -0.854  0.00  0.00    +0.023 A 
ATOM     32  C   UNL     1       0.764   3.494  -0.837  0.00  0.00    +0.002 A 
ENDBRANCH  25  30
ENDBRANCH  23  25
ENDBRANCH  21  23
ENDBRANCH  19  21
ENDBRANCH   1  19
TORSDOF 9
