REMARK  Name = ZINC09360314
REMARK  8 active torsions:
REMARK  status: ('A' for Active; 'I' for Inactive)
REMARK    1  A    between atoms: C_1  and  C_2
REMARK    2  A    between atoms: C_5  and  N_9
REMARK    3  A    between atoms: C_7  and  C_8
REMARK    4  A    between atoms: C_10  and  O_33
REMARK    5  A    between atoms: C_11  and  C_17
REMARK    6  A    between atoms: C_24  and  O_25
REMARK    7  A    between atoms: O_25  and  C_26
REMARK    8  A    between atoms: C_32  and  N_58
REMARK                            x       y       z     vdW  Elec       q    Type
REMARK                         _______ _______ _______ _____ _____    ______ ____
ROOT
ATOM      1  N   UNL     1      -0.833   0.655   0.284  0.00  0.00    -0.233 N 
ATOM      2  C   UNL     1      -0.853   1.972  -0.093  0.00  0.00    +0.208 A 
ATOM      3  C   UNL     1       0.236   2.749   0.159  0.00  0.00    +0.068 A 
ATOM      4  C   UNL     1       1.351   2.171   0.800  0.00  0.00    +0.259 A 
ATOM      5  O   UNL     1       2.342   2.846   1.037  0.00  0.00    -0.267 OA
ATOM      6  N   UNL     1       1.319   0.874   1.149  0.00  0.00    -0.274 N 
ATOM      7  C   UNL     1       0.263   0.135   0.901  0.00  0.00    +0.336 A 
ATOM      8  O   UNL     1       0.264  -1.164   1.265  0.00  0.00    -0.246 OA
ATOM      9  H   UNL     1       2.111   0.467   1.604  0.00  0.00    +0.173 HD
ENDROOT
BRANCH   3  10
ATOM     10  C   UNL     1       0.250   4.202  -0.242  0.00  0.00    +0.007 C 
ATOM     11  C   UNL     1       1.178   4.386  -1.414  0.00  0.00    -0.008 A 
ATOM     12  C   UNL     1       2.049   5.451  -1.493  0.00  0.00    -0.040 A 
ATOM     13  C   UNL     1       2.882   5.585  -2.593  0.00  0.00    +0.053 A 
ATOM     14  C   UNL     1       2.849   4.654  -3.618  0.00  0.00    +0.170 A 
ATOM     15  C   UNL     1       1.974   3.576  -3.541  0.00  0.00    +0.208 A 
ATOM     16  C   UNL     1       1.141   3.445  -2.439  0.00  0.00    +0.167 A 
ATOM     17  O   UNL     1       2.129   2.807  -4.660  0.00  0.00    -0.449 OA
ATOM     18  C   UNL     1       2.813   3.646  -5.610  0.00  0.00    +0.467 C 
ATOM     19  O   UNL     1       3.553   4.564  -4.784  0.00  0.00    -0.452 OA
ATOM     20  C   UNL     1       2.127   6.492  -0.405  0.00  0.00    +0.017 C 
ATOM     21  C   UNL     1       0.883   6.413   0.481  0.00  0.00    -0.073 C 
ATOM     22  C   UNL     1      -0.257   4.919   2.012  0.00  0.00    -0.095 C 
ATOM     23  N   UNL     1       0.717   5.006   0.900  0.00  0.00    +0.386 N 
ATOM     24  H   UNL     1       1.622   4.642   1.219  0.00  0.00    -0.081 HD
BRANCH  16  25
ATOM     25  O   UNL     1       0.285   2.392  -2.361  0.00  0.00    -0.491 OA
ATOM     26  C   UNL     1      -0.957   2.512  -3.057  0.00  0.00    +0.277 C 
ENDBRANCH  16  25
ENDBRANCH   3  10
BRANCH   1  31
ATOM     27  C   UNL     1      -5.335  -2.647  -0.732  0.00  0.00    +0.044 C 
ATOM     28  C   UNL     1      -4.140  -1.770  -0.462  0.00  0.00    -0.047 A 
ATOM     29  C   UNL     1      -4.248  -0.707   0.415  0.00  0.00    +0.005 A 
ATOM     30  C   UNL     1      -3.153   0.096   0.668  0.00  0.00    +0.027 A 
ATOM     31  C   UNL     1      -1.945  -0.160   0.033  0.00  0.00    +0.054 A 
ATOM     32  C   UNL     1      -1.839  -1.229  -0.847  0.00  0.00    +0.030 A 
ATOM     33  C   UNL     1      -2.937  -2.031  -1.093  0.00  0.00    -0.046 A 
ATOM     34  C   UNL     1      -2.824  -3.191  -2.048  0.00  0.00    +0.044 C 
ENDBRANCH   1  31
BRANCH   2  35
ATOM     35  O   UNL     1      -1.938   2.491  -0.711  0.00  0.00    -0.493 OA
ATOM     36  H   UNL     1      -2.595   2.861  -0.107  0.00  0.00    +0.294 HD
ENDBRANCH   2  35
TORSDOF 4
