REMARK  Name = ZINC17859121
REMARK  6 active torsions:
REMARK  status: ('A' for Active; 'I' for Inactive)
REMARK    1  A    between atoms: C_1  and  C_2
REMARK    2  A    between atoms: C_2  and  C_3
REMARK    3  A    between atoms: C_6  and  C_9
REMARK    4  A    between atoms: N_17  and  C_20
REMARK    5  A    between atoms: N_29  and  C_30
REMARK    6  A    between atoms: C_34  and  N_36
REMARK                            x       y       z     vdW  Elec       q    Type
REMARK                         _______ _______ _______ _____ _____    ______ ____
ROOT
ATOM      1  C   UNL     1       2.707  -1.868  -4.752  0.00  0.00    +0.157 C 
ATOM      2  C   UNL     1       3.113  -3.329  -4.600  0.00  0.00    +0.145 C 
ATOM      3  C   UNL     1       4.516  -3.077  -3.926  0.00  0.00    +0.249 C 
ATOM      4  C   UNL     1       4.794  -4.373  -3.342  0.00  0.00    +0.259 C 
ATOM      5  O   UNL     1       5.877  -4.901  -3.205  0.00  0.00    -0.272 OA
ATOM      6  N   UNL     1       3.572  -4.875  -2.976  0.00  0.00    -0.208 N 
ATOM      7  C   UNL     1       2.516  -4.177  -3.520  0.00  0.00    +0.235 C 
ATOM      8  O   UNL     1       1.349  -4.228  -3.195  0.00  0.00    -0.274 OA
ATOM      9  O   UNL     1       5.079  -2.136  -4.742  0.00  0.00    -0.257 OA
ATOM     10  N   UNL     1       4.006  -1.158  -4.930  0.00  0.00    -0.244 N 
ENDROOT
BRANCH   6  11
ATOM     11  C   UNL     1       3.410  -5.993  -2.144  0.00  0.00    +0.045 A 
ATOM     12  C   UNL     1       2.135  -6.442  -1.825  0.00  0.00    +0.025 A 
ATOM     13  C   UNL     1       1.977  -7.543  -1.007  0.00  0.00    +0.023 A 
ATOM     14  C   UNL     1       3.087  -8.199  -0.504  0.00  0.00    +0.059 A 
ATOM     15  C   UNL     1       4.359  -7.753  -0.820  0.00  0.00    +0.061 A 
ATOM     16  C   UNL     1       4.522  -6.654  -1.644  0.00  0.00    +0.045 A 
ATOM     17 CL   UNL     1       5.750  -8.577  -0.188  0.00  0.00    -0.082 Cl
ATOM     18 CL   UNL     1       2.885  -9.582   0.525  0.00  0.00    -0.082 Cl
ENDBRANCH   6  11
BRANCH   1  22
ATOM     19  C   UNL     1       0.708  -0.490  -1.238  0.00  0.00    -0.048 A 
ATOM     20  C   UNL     1      -0.027  -0.933  -2.322  0.00  0.00    +0.004 A 
ATOM     21  C   UNL     1       0.620  -1.379  -3.459  0.00  0.00    +0.006 A 
ATOM     22  C   UNL     1       2.002  -1.381  -3.513  0.00  0.00    -0.022 A 
ATOM     23  C   UNL     1       2.736  -0.937  -2.429  0.00  0.00    +0.006 A 
ATOM     24  C   UNL     1       2.089  -0.488  -1.293  0.00  0.00    +0.004 A 
BRANCH  19  26
ATOM     25  C   UNL     1      -0.260   1.499  -0.116  0.00  0.00    +0.009 C 
ATOM     26  C   UNL     1       0.003  -0.004   0.002  0.00  0.00    +0.032 C 
ENDBRANCH  19  26
ENDBRANCH   1  22
BRANCH  10  27
ATOM     27  C   UNL     1       4.167   0.197  -5.232  0.00  0.00    +0.067 A 
ATOM     28  C   UNL     1       3.053   1.012  -5.387  0.00  0.00    +0.028 A 
ATOM     29  C   UNL     1       3.215   2.350  -5.685  0.00  0.00    +0.004 A 
ATOM     30  C   UNL     1       4.485   2.880  -5.828  0.00  0.00    +0.033 A 
ATOM     31  C   UNL     1       5.596   2.071  -5.674  0.00  0.00    +0.128 A 
ATOM     32  C   UNL     1       5.441   0.732  -5.371  0.00  0.00    +0.060 A 
BRANCH  31  33
ATOM     33  N   UNL     1       6.953   2.642  -5.829  0.00  0.00    +0.056 N 
ATOM     34  O   UNL     1       7.089   3.814  -6.090  0.00  0.00    -0.126 OA
ATOM     35  O   UNL     1       7.924   1.935  -5.695  0.00  0.00    -0.126 OA
ENDBRANCH  31  33
ENDBRANCH  10  27
TORSDOF 5
