REMARK  Name = ZINC33704315
REMARK  10 active torsions:
REMARK  status: ('A' for Active; 'I' for Inactive)
REMARK    1  A    between atoms: C_1  and  C_2
REMARK    2  A    between atoms: C_5  and  N_9
REMARK    3  A    between atoms: C_6  and  C_8
REMARK    4  A    between atoms: C_10  and  C_12
REMARK    5  A    between atoms: C_18  and  C_33
REMARK    6  A    between atoms: C_23  and  C_32
REMARK    7  A    between atoms: N_24  and  C_28
REMARK    8  A    between atoms: C_28  and  C_29
REMARK    9  A    between atoms: C_29  and  O_30
REMARK   10  A    between atoms: O_30  and  C_31
REMARK                            x       y       z     vdW  Elec       q    Type
REMARK                         _______ _______ _______ _____ _____    ______ ____
ROOT
ATOM      1  C   UNL     1       6.083  -0.701  -0.275  0.00  0.00    +0.162 C 
ATOM      2  C   UNL     1       6.078  -1.559  -1.550  0.00  0.00    +0.123 C 
ATOM      3  C   UNL     1       6.020  -0.628  -2.744  0.00  0.00    +0.016 A 
ATOM      4  C   UNL     1       5.524  -1.108  -3.943  0.00  0.00    +0.012 A 
ATOM      5  C   UNL     1       5.478  -0.286  -5.053  0.00  0.00    -0.050 A 
ATOM      6  C   UNL     1       5.927   1.019  -4.965  0.00  0.00    +0.007 A 
ATOM      7  C   UNL     1       6.418   1.502  -3.770  0.00  0.00    +0.046 A 
ATOM      8  C   UNL     1       6.463   0.679  -2.648  0.00  0.00    +0.128 A 
ATOM      9  O   UNL     1       6.945   1.191  -1.487  0.00  0.00    -0.467 OA
ATOM     10  C   UNL     1       7.239   0.300  -0.414  0.00  0.00    +0.190 C 
ATOM     11  N   UNL     1       8.480  -0.426  -0.666  0.00  0.00    -0.272 N 
ATOM     12  C   UNL     1       8.487  -1.658  -1.202  0.00  0.00    +0.136 C 
ATOM     13  S   UNL     1       9.982  -2.476  -1.367  0.00  0.00    -0.019 S 
ATOM     14  N   UNL     1       7.364  -2.272  -1.612  0.00  0.00    -0.318 N 
ATOM     15  C   UNL     1       7.379   1.098   0.884  0.00  0.00    +0.079 C 
ATOM     16  C   UNL     1       4.938  -0.812  -6.358  0.00  0.00    +0.044 C 
ATOM     17  H   UNL     1       7.404  -3.303  -1.992  0.00  0.00    +0.148 HD
ENDROOT
BRANCH   1  19
ATOM     18  N   UNL     1       3.622  -0.651  -0.035  0.00  0.00    -0.285 N 
ATOM     19  C   UNL     1       4.776   0.037  -0.144  0.00  0.00    +0.228 C 
ATOM     20  O   UNL     1       4.761   1.250  -0.138  0.00  0.00    -0.275 OA
ATOM     21  H   UNL     1       3.641  -1.747   0.050  0.00  0.00    +0.155 HD
BRANCH  18  26
ATOM     22  C   UNL     1      -1.337   2.106  -0.024  0.00  0.00    +0.044 C 
ATOM     23  C   UNL     1      -0.018   1.376  -0.023  0.00  0.00    -0.050 A 
ATOM     24  C   UNL     1       1.087   1.947  -0.626  0.00  0.00    +0.005 A 
ATOM     25  C   UNL     1       2.295   1.278  -0.632  0.00  0.00    +0.024 A 
ATOM     26  C   UNL     1       2.399   0.030  -0.031  0.00  0.00    +0.036 A 
ATOM     27  C   UNL     1       1.287  -0.541   0.573  0.00  0.00    -0.029 A 
ATOM     28  C   UNL     1       0.081   0.133   0.575  0.00  0.00    +0.008 A 
ATOM     29  C   UNL     1       1.395  -1.895   1.226  0.00  0.00    +0.045 C 
ENDBRANCH  18  26
ENDBRANCH   1  19
BRANCH  11  30
ATOM     30  C   UNL     1       9.756   0.207  -0.324  0.00  0.00    +0.138 C 
BRANCH  30  31
ATOM     31  C   UNL     1      10.131  -0.148   1.116  0.00  0.00    +0.178 C 
BRANCH  31  32
ATOM     32  O   UNL     1      10.369  -1.554   1.214  0.00  0.00    -0.381 OA
ATOM     33  C   UNL     1      10.729  -1.992   2.526  0.00  0.00    +0.194 C 
ENDBRANCH  31  32
ENDBRANCH  30  31
ENDBRANCH  11  30
TORSDOF 5
