REMARK  Name = ZINC38700640
REMARK  12 active torsions:
REMARK  status: ('A' for Active; 'I' for Inactive)
REMARK    1  A    between atoms: C_1  and  C_2
REMARK    2  A    between atoms: C_2  and  C_3
REMARK    3  A    between atoms: C_3  and  O_4
REMARK    4  A    between atoms: O_4  and  C_5
REMARK    5  A    between atoms: C_10  and  C_11
REMARK    6  A    between atoms: C_16  and  O_25
REMARK    7  A    between atoms: C_20  and  N_24
REMARK    8  A    between atoms: C_21  and  C_22
REMARK    9  A    between atoms: O_25  and  C_26
REMARK   10  A    between atoms: C_26  and  C_28
REMARK   11  A    between atoms: C_29  and  C_38
REMARK   12  A    between atoms: C_33  and  C_37
REMARK                            x       y       z     vdW  Elec       q    Type
REMARK                         _______ _______ _______ _____ _____    ______ ____
ROOT
ATOM      1  C   UNL     1      -1.387  -4.840   0.026  0.00  0.00    +0.101 C 
ATOM      2  C   UNL     1      -1.355  -5.681  -1.223  0.00  0.00    +0.008 A 
ATOM      3  C   UNL     1      -1.147  -5.072  -2.448  0.00  0.00    +0.012 A 
ATOM      4  C   UNL     1      -1.114  -5.827  -3.604  0.00  0.00    +0.047 A 
ATOM      5  C   UNL     1      -1.289  -7.203  -3.538  0.00  0.00    +0.136 A 
ATOM      6  C   UNL     1      -1.498  -7.815  -2.313  0.00  0.00    +0.093 A 
ATOM      7  C   UNL     1      -1.531  -7.054  -1.152  0.00  0.00    +0.138 A 
ATOM      8  O   UNL     1      -1.735  -7.668   0.039  0.00  0.00    -0.441 OA
ATOM      9  C   UNL     1      -1.394  -7.048   1.181  0.00  0.00    +0.199 C 
ATOM     10  C   UNL     1      -1.215  -5.710   1.239  0.00  0.00    +0.098 C 
ENDROOT
BRANCH   1  16
ATOM     11  C   UNL     1      -2.746  -2.735   0.129  0.00  0.00    +0.125 A 
ATOM     12  C   UNL     1      -3.965  -2.077   0.201  0.00  0.00    +0.046 A 
ATOM     13  C   UNL     1      -5.138  -2.803   0.259  0.00  0.00    +0.004 A 
ATOM     14  C   UNL     1      -5.099  -4.185   0.245  0.00  0.00    +0.001 A 
ATOM     15  C   UNL     1      -3.885  -4.844   0.173  0.00  0.00    +0.008 A 
ATOM     16  C   UNL     1      -2.709  -4.122   0.110  0.00  0.00    +0.007 A 
BRANCH  11  17
ATOM     17  O   UNL     1      -1.590  -2.023   0.072  0.00  0.00    -0.492 OA
BRANCH  17  18
ATOM     18  C   UNL     1      -1.704  -0.598   0.096  0.00  0.00    +0.229 C 
BRANCH  18  20
ATOM     19  C   UNL     1      -0.431   1.551   0.050  0.00  0.00    +0.007 C 
ATOM     20  C   UNL     1      -0.309   0.026   0.024  0.00  0.00    +0.038 C 
ENDBRANCH  18  20
ENDBRANCH  17  18
ENDBRANCH  11  17
ENDBRANCH   1  16
BRANCH   9  21
ATOM     21  N   UNL     1      -1.224  -7.794   2.320  0.00  0.00    -0.328 N 
ATOM     22  H   UNL     1      -1.350  -8.756   2.293  0.00  0.00    +0.145 HD
ATOM     23  H   UNL     1      -0.977  -7.361   3.151  0.00  0.00    +0.145 HD
ENDBRANCH   9  21
BRANCH  10  24
ATOM     24  C   UNL     1      -0.852  -5.109   2.487  0.00  0.00    +0.101 C 
ATOM     25  N   UNL     1      -0.565  -4.633   3.478  0.00  0.00    -0.191 NA
ENDBRANCH  10  24
BRANCH   5  26
ATOM     26  O   UNL     1      -1.257  -7.948  -4.675  0.00  0.00    -0.420 OA
BRANCH  26  27
ATOM     27  C   UNL     1      -2.408  -8.508  -5.097  0.00  0.00    +0.380 C 
ATOM     28  O   UNL     1      -3.452  -8.256  -4.527  0.00  0.00    -0.241 OA
BRANCH  27  29
ATOM     29  C   UNL     1      -2.401  -9.423  -6.245  0.00  0.00    +0.216 A 
ATOM     30  C   UNL     1      -3.497 -10.040  -6.761  0.00  0.00    +0.010 A 
ATOM     31  C   UNL     1      -3.018 -10.845  -7.883  0.00  0.00    +0.024 A 
ATOM     32  C   UNL     1      -3.634 -11.696  -8.804  0.00  0.00    +0.012 A 
ATOM     33  C   UNL     1      -2.882 -12.318  -9.760  0.00  0.00    +0.004 A 
ATOM     34  C   UNL     1      -1.510 -12.110  -9.822  0.00  0.00    -0.047 A 
ATOM     35  C   UNL     1      -0.884 -11.274  -8.923  0.00  0.00    +0.050 A 
ATOM     36  C   UNL     1      -1.628 -10.630  -7.941  0.00  0.00    +0.137 A 
ATOM     37  O   UNL     1      -1.306  -9.774  -6.952  0.00  0.00    -0.448 OA
ATOM     38  C   UNL     1      -0.698 -12.806 -10.883  0.00  0.00    +0.044 C 
ATOM     39  C   UNL     1      -4.918  -9.919  -6.274  0.00  0.00    +0.048 C 
ENDBRANCH  27  29
ENDBRANCH  26  27
ENDBRANCH   5  26
TORSDOF 9
