REMARK  Name = ZINC40730941
REMARK  6 active torsions:
REMARK  status: ('A' for Active; 'I' for Inactive)
REMARK    1  A    between atoms: C_1  and  C_2
REMARK    2  A    between atoms: C_10  and  N_29
REMARK    3  A    between atoms: C_11  and  N_15
REMARK    4  A    between atoms: N_15  and  N_16
REMARK    5  A    between atoms: N_16  and  C_17
REMARK    6  A    between atoms: N_16  and  C_23
REMARK                            x       y       z     vdW  Elec       q    Type
REMARK                         _______ _______ _______ _____ _____    ______ ____
ROOT
ATOM      1  C   UNL     1       3.805   1.697   4.792  0.00  0.00    +0.009 C 
ATOM      2  C   UNL     1       4.047   1.025   3.439  0.00  0.00    +0.003 C 
ATOM      3  C   UNL     1       3.377   1.845   2.334  0.00  0.00    +0.006 C 
ATOM      4  C   UNL     1       3.646   1.192   0.977  0.00  0.00    +0.019 C 
ATOM      5  C   UNL     1       3.045  -0.218   0.965  0.00  0.00    +0.106 C 
ATOM      6  N   UNL     1       3.576  -0.968   2.112  0.00  0.00    -0.313 N 
ATOM      7  C   UNL     1       3.452  -0.387   3.455  0.00  0.00    +0.109 C 
ATOM      8  C   UNL     1       4.185  -2.204   1.929  0.00  0.00    +0.147 A 
ATOM      9  C   UNL     1       3.423  -3.373   1.913  0.00  0.00    +0.105 A 
ATOM     10  C   UNL     1       4.084  -4.588   1.726  0.00  0.00    +0.139 A 
ATOM     11  N   UNL     1       5.406  -4.586   1.571  0.00  0.00    -0.332 N 
ATOM     12  C   UNL     1       6.088  -3.459   1.593  0.00  0.00    +0.200 A 
ATOM     13  N   UNL     1       5.502  -2.290   1.761  0.00  0.00    -0.221 NA
ATOM     14  H   UNL     1       5.874  -5.425   1.441  0.00  0.00    +0.168 HD
ENDROOT
BRANCH   9  15
ATOM     15  N   UNL     1       2.029  -3.329   2.080  0.00  0.00    -0.353 N 
ATOM     16  H   UNL     1       1.564  -2.478   2.051  0.00  0.00    +0.143 HD
ATOM     17  H   UNL     1       1.531  -4.149   2.225  0.00  0.00    +0.143 HD
ENDBRANCH   9  15
BRANCH  10  18
ATOM     18  N   UNL     1       3.373  -5.782   1.702  0.00  0.00    -0.243 N 
ATOM     19  H   UNL     1       2.410  -5.776   1.815  0.00  0.00    +0.172 HD
BRANCH  18  20
ATOM     20  N   UNL     1       4.048  -6.996   1.513  0.00  0.00    -0.221 N 
BRANCH  20  21
ATOM     21  C   UNL     1       4.248  -7.859   2.593  0.00  0.00    +0.053 A 
ATOM     22  C   UNL     1       3.942  -7.442   3.883  0.00  0.00    +0.025 A 
ATOM     23  C   UNL     1       4.142  -8.298   4.949  0.00  0.00    +0.002 A 
ATOM     24  C   UNL     1       4.644  -9.568   4.733  0.00  0.00    +0.000 A 
ATOM     25  C   UNL     1       4.950  -9.986   3.450  0.00  0.00    +0.002 A 
ATOM     26  C   UNL     1       4.747  -9.137   2.380  0.00  0.00    +0.025 A 
ENDBRANCH  20  21
BRANCH  20  27
ATOM     27  C   UNL     1       4.520  -7.342   0.245  0.00  0.00    +0.053 A 
ATOM     28  C   UNL     1       3.654  -7.356  -0.841  0.00  0.00    +0.025 A 
ATOM     29  C   UNL     1       4.125  -7.699  -2.094  0.00  0.00    +0.002 A 
ATOM     30  C   UNL     1       5.456  -8.029  -2.267  0.00  0.00    +0.000 A 
ATOM     31  C   UNL     1       6.321  -8.018  -1.188  0.00  0.00    +0.002 A 
ATOM     32  C   UNL     1       5.859  -7.670   0.066  0.00  0.00    +0.025 A 
ENDBRANCH  20  27
ENDBRANCH  18  20
ENDBRANCH  10  18
TORSDOF 5
