REMARK  Name = ZINC38971684
REMARK  5 active torsions:
REMARK  status: ('A' for Active; 'I' for Inactive)
REMARK    1  A    between atoms: C_5  and  C_7
REMARK    2  A    between atoms: C_7  and  N_8
REMARK    3  A    between atoms: N_8  and  C_9
REMARK    4  A    between atoms: N_12  and  S_13
REMARK    5  A    between atoms: S_13  and  C_16
REMARK                            x       y       z     vdW  Elec       q    Type
REMARK                         _______ _______ _______ _____ _____    ______ ____
ROOT
ATOM      1  C   UNL     1       1.516  -4.149   1.367  0.00  0.00    +0.220 C 
ATOM      2  C   UNL     1       0.629  -4.603   2.503  0.00  0.00    +0.188 C 
ATOM      3  N   UNL     1      -0.625  -4.260   2.539  0.00  0.00    -0.110 NA
ATOM      4  N   UNL     1       1.154  -5.367   3.474  0.00  0.00    -0.226 NA
ATOM      5  C   UNL     1       2.420  -5.729   3.460  0.00  0.00    +0.089 A 
ATOM      6  C   UNL     1       2.941  -6.536   4.503  0.00  0.00    +0.030 A 
ATOM      7  C   UNL     1       4.239  -6.910   4.494  0.00  0.00    +0.002 A 
ATOM      8  C   UNL     1       5.131  -6.531   3.477  0.00  0.00    +0.002 A 
ATOM      9  C   UNL     1       4.739  -5.763   2.437  0.00  0.00    +0.027 A 
ATOM     10  C   UNL     1       3.340  -5.314   2.373  0.00  0.00    +0.063 A 
ATOM     11  N   UNL     1       2.925  -4.572   1.385  0.00  0.00    -0.362 N 
ATOM     12  H   UNL     1       3.533  -4.304   0.677  0.00  0.00    +0.162 HD
ENDROOT
BRANCH   3  13
ATOM     13  S   UNL     1      -1.586  -4.764   3.790  0.00  0.00    +0.100 S 
ATOM     14  O   UNL     1      -1.692  -6.177   3.676  0.00  0.00    -0.146 OA
ATOM     15  O   UNL     1      -1.094  -4.130   4.962  0.00  0.00    -0.146 OA
BRANCH  13  16
ATOM     16  C   UNL     1      -3.198  -4.114   3.503  0.00  0.00    +0.113 A 
ATOM     17  C   UNL     1      -3.541  -2.872   4.004  0.00  0.00    +0.030 A 
ATOM     18  C   UNL     1      -4.806  -2.361   3.780  0.00  0.00    +0.022 A 
ATOM     19  C   UNL     1      -5.728  -3.092   3.054  0.00  0.00    +0.041 A 
ATOM     20  C   UNL     1      -5.385  -4.335   2.552  0.00  0.00    +0.022 A 
ATOM     21  C   UNL     1      -4.118  -4.843   2.772  0.00  0.00    +0.030 A 
ATOM     22 CL   UNL     1      -7.317  -2.451   2.772  0.00  0.00    -0.084 Cl
ENDBRANCH  13  16
ENDBRANCH   3  13
BRANCH   1  23
ATOM     23  N   UNL     1       1.489  -2.680   1.337  0.00  0.00    -0.287 NA
ATOM     24  H   UNL     1       2.347  -2.295   1.703  0.00  0.00    +0.125 HD
BRANCH  23  25
ATOM     25  C   UNL     1       1.229  -2.186  -0.022  0.00  0.00    +0.120 C 
BRANCH  25  30
ATOM     26  C   UNL     1      -0.017   1.378   0.010  0.00  0.00    +0.000 A 
ATOM     27  C   UNL     1       1.171   2.086   0.002  0.00  0.00    +0.001 A 
ATOM     28  C   UNL     1       2.377   1.412  -0.013  0.00  0.00    +0.020 A 
ATOM     29  C   UNL     1       2.397   0.029  -0.021  0.00  0.00    +0.045 A 
ATOM     30  C   UNL     1       1.208  -0.679  -0.013  0.00  0.00    -0.015 A 
ATOM     31  C   UNL     1       0.002  -0.004   0.002  0.00  0.00    +0.006 A 
ATOM     32 CL   UNL     1       3.912  -0.818  -0.041  0.00  0.00    -0.083 Cl
ENDBRANCH  25  30
ENDBRANCH  23  25
ENDBRANCH   1  23
TORSDOF 5
