REMARK  Name = ZINC11787412
REMARK  8 active torsions:
REMARK  status: ('A' for Active; 'I' for Inactive)
REMARK    1  A    between atoms: C_1  and  C_2
REMARK    2  A    between atoms: C_7  and  O_8
REMARK    3  A    between atoms: O_8  and  C_9
REMARK    4  A    between atoms: C_9  and  C_11
REMARK    5  A    between atoms: C_9  and  C_12
REMARK    6  A    between atoms: C_17  and  C_20
REMARK    7  A    between atoms: C_20  and  C_27
REMARK    8  A    between atoms: C_27  and  C_28
REMARK                            x       y       z     vdW  Elec       q    Type
REMARK                         _______ _______ _______ _____ _____    ______ ____
ROOT
ATOM      1  C   UNL     1      -0.844   0.369   2.386  0.00  0.00    +0.256 C 
ATOM      2  O   UNL     1      -0.361  -0.691   2.726  0.00  0.00    -0.272 OA
ATOM      3  N   UNL     1      -0.515   0.908   1.195  0.00  0.00    -0.298 N 
ATOM      4  C   UNL     1       0.501   0.276   0.343  0.00  0.00    +0.108 C 
ATOM      5  C   UNL     1      -0.092   0.046  -1.050  0.00  0.00    +0.025 C 
ATOM      6  C   UNL     1      -0.634   1.371  -1.594  0.00  0.00    +0.025 C 
ATOM      7  C   UNL     1      -1.743   1.886  -0.675  0.00  0.00    +0.025 C 
ATOM      8  C   UNL     1      -1.168   2.136   0.723  0.00  0.00    +0.108 C 
ENDROOT
BRANCH   6   9
ATOM      9  C   UNL     1      -1.196   1.152  -3.000  0.00  0.00    +0.119 C 
ATOM     10  C   UNL     1      -2.142  -0.032  -3.018  0.00  0.00    +0.245 C 
ATOM     11  O   UNL     1      -3.175  -0.154  -2.395  0.00  0.00    -0.273 OA
ATOM     12  N   UNL     1      -1.595  -0.922  -3.870  0.00  0.00    -0.238 N 
ATOM     13  C   UNL     1      -0.447  -0.469  -4.387  0.00  0.00    +0.307 C 
ATOM     14  O   UNL     1       0.229  -1.094  -5.180  0.00  0.00    -0.252 OA
ATOM     15  N   UNL     1      -0.126   0.755  -3.931  0.00  0.00    -0.284 N 
ATOM     16  H   UNL     1      -1.985  -1.785  -4.081  0.00  0.00    +0.159 HD
ATOM     17  H   UNL     1       0.657   1.275  -4.169  0.00  0.00    +0.151 HD
BRANCH   9  18
ATOM     18  C   UNL     1      -1.902   2.416  -3.498  0.00  0.00    +0.073 C 
BRANCH  18  19
ATOM     19  C   UNL     1      -2.446   2.175  -4.882  0.00  0.00    -0.010 A 
ATOM     20  C   UNL     1      -1.711   2.553  -5.990  0.00  0.00    +0.006 A 
ATOM     21  C   UNL     1      -2.208   2.327  -7.260  0.00  0.00    +0.000 A 
ATOM     22  C   UNL     1      -3.445   1.732  -7.423  0.00  0.00    +0.003 A 
ATOM     23  C   UNL     1      -4.184   1.358  -6.318  0.00  0.00    +0.038 A 
ATOM     24  C   UNL     1      -3.685   1.579  -5.045  0.00  0.00    +0.127 A 
ATOM     25  F   UNL     1      -4.407   1.214  -3.963  0.00  0.00    -0.205 F 
ENDBRANCH  18  19
ENDBRANCH   9  18
ENDBRANCH   6   9
BRANCH   1  26
ATOM     26  C   UNL     1      -1.812   1.082   3.294  0.00  0.00    +0.256 C 
ATOM     27  C   UNL     1      -1.170   2.370   3.813  0.00  0.00    +0.062 C 
BRANCH  26  28
ATOM     28  O   UNL     1      -2.142   0.236   4.397  0.00  0.00    -0.480 OA
BRANCH  28  35
ATOM     29  C   UNL     1      -2.925  -1.578   6.416  0.00  0.00    +0.047 C 
ATOM     30  C   UNL     1      -3.774  -0.402   6.006  0.00  0.00    -0.007 A 
ATOM     31  C   UNL     1      -4.986  -0.174   6.629  0.00  0.00    +0.027 A 
ATOM     32  C   UNL     1      -5.769   0.901   6.249  0.00  0.00    +0.041 A 
ATOM     33  C   UNL     1      -5.337   1.754   5.249  0.00  0.00    +0.023 A 
ATOM     34  C   UNL     1      -4.123   1.534   4.628  0.00  0.00    +0.047 A 
ATOM     35  C   UNL     1      -3.337   0.455   5.008  0.00  0.00    +0.125 A 
ATOM     36 CL   UNL     1      -7.295   1.181   7.028  0.00  0.00    -0.084 Cl
ENDBRANCH  28  35
ENDBRANCH  26  28
ENDBRANCH   1  26
TORSDOF 6
