REMARK  Name = ZINC41273213
REMARK  5 active torsions:
REMARK  status: ('A' for Active; 'I' for Inactive)
REMARK    1  A    between atoms: C_6  and  C_7
REMARK    2  A    between atoms: C_10  and  C_12
REMARK    3  A    between atoms: C_12  and  N_13
REMARK    4  A    between atoms: C_16  and  C_19
REMARK    5  A    between atoms: N_21  and  C_22
REMARK                            x       y       z     vdW  Elec       q    Type
REMARK                         _______ _______ _______ _____ _____    ______ ____
ROOT
ATOM      1  N   UNL     1      -3.579  -4.162  -1.362  0.00  0.00    +0.386 N 
ATOM      2  C   UNL     1      -4.545  -3.268  -2.012  0.00  0.00    -0.077 C 
ATOM      3  C   UNL     1      -4.715  -3.675  -3.477  0.00  0.00    -0.006 C 
ATOM      4  C   UNL     1      -5.226  -5.117  -3.545  0.00  0.00    +0.071 C 
ATOM      5  C   UNL     1      -4.249  -6.030  -2.800  0.00  0.00    -0.006 C 
ATOM      6  C   UNL     1      -4.096  -5.536  -1.360  0.00  0.00    -0.077 C 
ATOM      7  H   UNL     1      -2.705  -4.133  -1.865  0.00  0.00    -0.081 HD
ENDROOT
BRANCH   4   8
ATOM      8  C   UNL     1      -5.323  -5.550  -4.985  0.00  0.00    +0.216 C 
ATOM      9  O   UNL     1      -5.013  -4.782  -5.872  0.00  0.00    -0.276 OA
ATOM     10  N   UNL     1      -5.753  -6.791  -5.288  0.00  0.00    -0.312 N 
ATOM     11  H   UNL     1      -6.000  -7.405  -4.580  0.00  0.00    +0.149 HD
BRANCH  10  12
ATOM     12  C   UNL     1      -5.846  -7.212  -6.689  0.00  0.00    +0.073 C 
ATOM     13  C   UNL     1      -7.172  -6.691  -7.279  0.00  0.00    +0.022 C 
ATOM     14  C   UNL     1      -7.049  -6.663  -8.779  0.00  0.00    +0.002 C 
ATOM     15  C   UNL     1      -7.590  -7.946  -9.439  0.00  0.00    +0.000 C 
ATOM     16  C   UNL     1      -7.192  -9.224  -8.676  0.00  0.00    +0.000 C 
ATOM     17  C   UNL     1      -5.764  -9.190  -8.201  0.00  0.00    +0.002 C 
ATOM     18  C   UNL     1      -5.742  -8.662  -6.752  0.00  0.00    +0.022 C 
ENDBRANCH  10  12
ENDBRANCH   4   8
BRANCH   1  19
ATOM     19  C   UNL     1      -3.360  -3.721   0.022  0.00  0.00    +0.021 C 
BRANCH  19  23
ATOM     20  C   UNL     1      -1.266  -0.763   0.011  0.00  0.00    +0.248 A 
ATOM     21  N   UNL     1      -2.477  -0.256   0.019  0.00  0.00    -0.107 NA
ATOM     22  N   UNL     1      -3.337  -1.213   0.024  0.00  0.00    -0.114 NA
ATOM     23  C   UNL     1      -2.715  -2.358   0.018  0.00  0.00    +0.202 A 
ATOM     24  O   UNL     1      -1.395  -2.105   0.005  0.00  0.00    -0.422 OA
BRANCH  20  30
ATOM     25  C   UNL     1      -0.017   1.392   0.010  0.00  0.00    +0.016 A 
ATOM     26  C   UNL     1       1.169   2.095   0.002  0.00  0.00    +0.039 A 
ATOM     27  C   UNL     1       2.379   1.418  -0.013  0.00  0.00    +0.123 A 
ATOM     28  C   UNL     1       2.403   0.033  -0.021  0.00  0.00    +0.039 A 
ATOM     29  C   UNL     1       1.223  -0.680  -0.014  0.00  0.00    +0.016 A 
ATOM     30  C   UNL     1       0.002  -0.004   0.002  0.00  0.00    +0.039 A 
ATOM     31  F   UNL     1       3.538   2.112  -0.022  0.00  0.00    -0.205 F 
ENDBRANCH  20  30
ENDBRANCH  19  23
ENDBRANCH   1  19
TORSDOF 5
