REMARK  Name = ZINC14111689
REMARK  9 active torsions:
REMARK  status: ('A' for Active; 'I' for Inactive)
REMARK    1  A    between atoms: C_1  and  C_2
REMARK    2  A    between atoms: C_2  and  C_3
REMARK    3  A    between atoms: C_2  and  C_4
REMARK    4  A    between atoms: C_4  and  C_6
REMARK    5  A    between atoms: C_4  and  N_21
REMARK    6  A    between atoms: N_8  and  C_9
REMARK    7  A    between atoms: C_9  and  C_10
REMARK    8  A    between atoms: C_10  and  N_66
REMARK    9  A    between atoms: C_22  and  C_24
REMARK                            x       y       z     vdW  Elec       q    Type
REMARK                         _______ _______ _______ _____ _____    ______ ____
ROOT
ATOM      1  C   UNL     1       0.572   2.527   0.797  0.00  0.00    +0.234 C 
ATOM      2  O   UNL     1       1.494   1.752   0.651  0.00  0.00    -0.274 OA
ATOM      3  N   UNL     1       0.757   3.843   0.576  0.00  0.00    -0.315 N 
ATOM      4  H   UNL     1       0.036   4.470   0.746  0.00  0.00    +0.149 HD
ENDROOT
BRANCH   1   5
ATOM      5  C   UNL     1      -0.779   2.017   1.227  0.00  0.00    +0.162 C 
BRANCH   5   6
ATOM      6  N   UNL     1      -0.979   0.662   0.707  0.00  0.00    -0.300 N 
ATOM      7  C   UNL     1      -2.227   0.193   0.510  0.00  0.00    +0.250 C 
ATOM      8  O   UNL     1      -3.187   0.893   0.765  0.00  0.00    -0.270 OA
ATOM      9  H   UNL     1      -0.212   0.103   0.503  0.00  0.00    +0.150 HD
BRANCH   7  10
ATOM     10  C   UNL     1      -2.427  -1.172  -0.014  0.00  0.00    +0.107 A 
ATOM     11  C   UNL     1      -2.532  -2.255   0.865  0.00  0.00    +0.138 A 
ATOM     12  C   UNL     1      -2.726  -3.529   0.365  0.00  0.00    +0.039 A 
ATOM     13  C   UNL     1      -2.805  -3.736  -1.000  0.00  0.00    +0.006 A 
ATOM     14  C   UNL     1      -2.696  -2.672  -1.876  0.00  0.00    +0.039 A 
ATOM     15  C   UNL     1      -2.508  -1.390  -1.394  0.00  0.00    +0.138 A 
ATOM     16  F   UNL     1      -2.402  -0.352  -2.252  0.00  0.00    -0.205 F 
ATOM     17  F   UNL     1      -2.450  -2.055   2.199  0.00  0.00    -0.205 F 
ENDBRANCH   7  10
ENDBRANCH   5   6
BRANCH   5  19
ATOM     18  C   UNL     1      -0.667   3.411   3.298  0.00  0.00    +0.009 C 
ATOM     19  C   UNL     1      -0.852   1.992   2.755  0.00  0.00    +0.012 C 
ATOM     20  C   UNL     1      -2.216   1.453   3.192  0.00  0.00    +0.009 C 
ENDBRANCH   5  19
ENDBRANCH   1   5
BRANCH   3  21
ATOM     21  C   UNL     1       2.046   4.329   0.077  0.00  0.00    +0.092 C 
BRANCH  21  22
ATOM     22  C   UNL     1       1.945   5.824  -0.228  0.00  0.00    -0.050 C 
ATOM     23  C   UNL     1       3.309   6.345  -0.684  0.00  0.00    -0.010 C 
ATOM     24  C   UNL     1       4.338   6.120   0.426  0.00  0.00    -0.001 C 
ATOM     25  C   UNL     1       3.901   6.870   1.686  0.00  0.00    -0.000 C 
ATOM     26  C   UNL     1       2.536   6.349   2.142  0.00  0.00    -0.001 C 
ATOM     27  C   UNL     1       1.508   6.574   1.032  0.00  0.00    -0.010 C 
BRANCH  22  33
ATOM     28  C   UNL     1      -0.362   5.529  -0.900  0.00  0.00    -0.078 C 
ATOM     29  C   UNL     1      -1.394   5.899  -1.968  0.00  0.00    -0.019 C 
ATOM     30  C   UNL     1      -0.971   5.295  -3.310  0.00  0.00    -0.004 C 
ATOM     31  C   UNL     1       0.426   5.806  -3.674  0.00  0.00    -0.019 C 
ATOM     32  C   UNL     1       1.405   5.439  -2.556  0.00  0.00    -0.078 C 
ATOM     33  N   UNL     1       0.955   6.070  -1.297  0.00  0.00    +0.384 N 
ATOM     34  H   UNL     1       0.868   7.082  -1.445  0.00  0.00    -0.081 HD
ENDBRANCH  22  33
ENDBRANCH  21  22
ENDBRANCH   3  21
TORSDOF 7
