REMARK  Name = ZINC33716418
REMARK  12 active torsions:
REMARK  status: ('A' for Active; 'I' for Inactive)
REMARK    1  A    between atoms: C_1  and  C_2
REMARK    2  A    between atoms: C_2  and  O_3
REMARK    3  A    between atoms: O_3  and  C_4
REMARK    4  A    between atoms: C_4  and  C_6
REMARK    5  A    between atoms: C_10  and  N_11
REMARK    6  A    between atoms: C_12  and  C_14
REMARK    7  A    between atoms: C_16  and  N_23
REMARK    8  A    between atoms: C_18  and  N_20
REMARK    9  A    between atoms: C_26  and  C_32
REMARK   10  A    between atoms: C_26  and  C_33
REMARK   11  A    between atoms: C_28  and  C_30
REMARK   12  A    between atoms: C_28  and  C_31
REMARK                            x       y       z     vdW  Elec       q    Type
REMARK                         _______ _______ _______ _____ _____    ______ ____
ROOT
ATOM      1  C   UNL     1       0.002  -0.004   0.002  0.00  0.00    +0.091 A 
ATOM      2  C   UNL     1       1.298  -0.652  -0.014  0.00  0.00    -0.024 A 
ATOM      3  C   UNL     1       2.364   0.180  -0.023  0.00  0.00    -0.016 A 
ATOM      4  S   UNL     1       1.665   1.805  -0.004  0.00  0.00    -0.079 S 
ATOM      5  C   UNL     1      -0.017   1.387   0.010  0.00  0.00    +0.086 A 
ATOM      6  C   UNL     1       3.806  -0.213  -0.052  0.00  0.00    -0.041 C 
ATOM      7  N   UNL     1       3.958  -1.663  -0.113  0.00  0.00    +0.389 N 
ATOM      8  C   UNL     1       2.872  -2.435  -0.694  0.00  0.00    -0.069 C 
ATOM      9  C   UNL     1       1.533  -2.156  -0.005  0.00  0.00    +0.024 C 
ATOM     10  C   UNL     1       2.734  -2.163  -2.194  0.00  0.00    -0.010 C 
ATOM     11  C   UNL     1       3.189  -3.933  -0.516  0.00  0.00    -0.010 C 
ATOM     12  C   UNL     1       4.503   0.462  -1.238  0.00  0.00    -0.005 C 
ATOM     13  C   UNL     1       4.468   0.300   1.242  0.00  0.00    -0.005 C 
ATOM     14  H   UNL     1       4.844  -1.913  -0.715  0.00  0.00    -0.084 HD
ATOM     15  H   UNL     1       4.082  -2.062   0.905  0.00  0.00    -0.084 HD
ENDROOT
BRANCH   5  16
ATOM     16  N   UNL     1      -1.115   2.231   0.020  0.00  0.00    -0.275 N 
ATOM     17  C   UNL     1      -0.938   3.567   0.026  0.00  0.00    +0.249 C 
ATOM     18  O   UNL     1       0.186   4.031   0.023  0.00  0.00    -0.270 OA
ATOM     19  H   UNL     1      -2.131   1.811   0.023  0.00  0.00    +0.156 HD
BRANCH  17  20
ATOM     20  C   UNL     1      -2.109   4.468   0.037  0.00  0.00    +0.041 A 
ATOM     21  C   UNL     1      -3.401   3.938   0.035  0.00  0.00    +0.046 A 
ATOM     22  C   UNL     1      -4.490   4.785   0.051  0.00  0.00    +0.129 A 
ATOM     23  C   UNL     1      -4.305   6.156   0.057  0.00  0.00    +0.065 A 
ATOM     24  C   UNL     1      -3.027   6.687   0.054  0.00  0.00    +0.129 A 
ATOM     25  C   UNL     1      -1.929   5.852   0.043  0.00  0.00    +0.046 A 
BRANCH  24  26
ATOM     26  N   UNL     1      -2.838   8.155   0.061  0.00  0.00    +0.057 N 
ATOM     27  O   UNL     1      -1.714   8.625   0.058  0.00  0.00    -0.126 OA
ATOM     28  O   UNL     1      -3.807   8.894   0.070  0.00  0.00    -0.126 OA
ENDBRANCH  24  26
BRANCH  22  29
ATOM     29  N   UNL     1      -5.860   4.225   0.055  0.00  0.00    +0.057 N 
ATOM     30  O   UNL     1      -6.823   4.971   0.064  0.00  0.00    -0.126 OA
ATOM     31  O   UNL     1      -6.025   3.018   0.049  0.00  0.00    -0.126 OA
ENDBRANCH  22  29
ENDBRANCH  17  20
ENDBRANCH   5  16
BRANCH   1  32
ATOM     32  C   UNL     1      -1.244  -0.773   0.012  0.00  0.00    +0.342 C 
ATOM     33  O   UNL     1      -1.774  -1.087  -1.037  0.00  0.00    -0.245 OA
BRANCH  32  34
ATOM     34  O   UNL     1      -1.805  -1.133   1.185  0.00  0.00    -0.461 OA
BRANCH  34  36
ATOM     35  C   UNL     1      -3.521  -2.208   2.538  0.00  0.00    +0.048 C 
ATOM     36  C   UNL     1      -3.040  -1.894   1.120  0.00  0.00    +0.229 C 
ENDBRANCH  34  36
ENDBRANCH  32  34
ENDBRANCH   1  32
TORSDOF 7
