REMARK  Name = ZINC22108630
REMARK  4 active torsions:
REMARK  status: ('A' for Active; 'I' for Inactive)
REMARK    1  A    between atoms: C_1  and  C_2
REMARK    2  A    between atoms: C_6  and  C_8
REMARK    3  A    between atoms: C_12  and  C_19
REMARK    4  A    between atoms: C_22  and  N_25
REMARK                            x       y       z     vdW  Elec       q    Type
REMARK                         _______ _______ _______ _____ _____    ______ ____
ROOT
ATOM      1  C   UNL     1       2.419   3.937   0.001  0.00  0.00    +0.066 A 
ATOM      2  C   UNL     1       2.531   5.294   0.001  0.00  0.00    +0.076 A 
ATOM      3  C   UNL     1       3.905   5.622  -0.005  0.00  0.00    +0.158 A 
ATOM      4  N   UNL     1       4.530   6.790  -0.006  0.00  0.00    -0.228 NA
ATOM      5  C   UNL     1       5.864   6.863  -0.019  0.00  0.00    +0.079 A 
ATOM      6  C   UNL     1       6.621   5.698  -0.031  0.00  0.00    +0.100 A 
ATOM      7  C   UNL     1       5.958   4.462  -0.031  0.00  0.00    +0.274 A 
ATOM      8  O   UNL     1       6.591   3.419  -0.042  0.00  0.00    -0.266 OA
ATOM      9  N   UNL     1       4.609   4.445  -0.018  0.00  0.00    -0.201 N 
ATOM     10  N   UNL     1       3.684   3.393  -0.014  0.00  0.00    -0.288 N 
ATOM     11  H   UNL     1       3.813   2.301  -0.020  0.00  0.00    +0.187 HD
ENDROOT
BRANCH   1  17
ATOM     12  C   UNL     1      -2.570   3.858   0.047  0.00  0.00    +0.044 C 
ATOM     13  C   UNL     1      -1.249   3.133   0.031  0.00  0.00    -0.050 A 
ATOM     14  C   UNL     1      -1.221   1.750   0.017  0.00  0.00    +0.003 A 
ATOM     15  C   UNL     1      -0.013   1.076   0.008  0.00  0.00    +0.001 A 
ATOM     16  C   UNL     1       1.174   1.780   0.000  0.00  0.00    +0.010 A 
ATOM     17  C   UNL     1       1.153   3.176   0.008  0.00  0.00    +0.000 A 
ATOM     18  C   UNL     1      -0.071   3.850   0.023  0.00  0.00    +0.013 A 
ENDBRANCH   1  17
BRANCH   5  19
ATOM     19  C   UNL     1       6.536   8.184  -0.018  0.00  0.00    +0.001 A 
ATOM     20  C   UNL     1       7.928   8.261  -0.026  0.00  0.00    +0.012 A 
ATOM     21  C   UNL     1       8.548   9.494  -0.032  0.00  0.00    +0.033 A 
ATOM     22  C   UNL     1       7.791  10.652  -0.019  0.00  0.00    +0.126 A 
ATOM     23  C   UNL     1       6.409  10.581  -0.005  0.00  0.00    +0.033 A 
ATOM     24  C   UNL     1       5.778   9.354  -0.005  0.00  0.00    +0.012 A 
BRANCH  22  25
ATOM     25  N   UNL     1       8.462  11.972  -0.019  0.00  0.00    +0.056 N 
ATOM     26  O   UNL     1       7.797  12.992  -0.007  0.00  0.00    -0.126 OA
ATOM     27  O   UNL     1       9.678  12.036  -0.031  0.00  0.00    -0.126 OA
ENDBRANCH  22  25
ENDBRANCH   5  19
TORSDOF 3
