REMARK  Name = ZINC12250808
REMARK  9 active torsions:
REMARK  status: ('A' for Active; 'I' for Inactive)
REMARK    1  A    between atoms: C_1  and  C_2
REMARK    2  A    between atoms: C_3  and  C_31
REMARK    3  A    between atoms: C_4  and  C_26
REMARK    4  A    between atoms: C_6  and  C_24
REMARK    5  A    between atoms: C_7  and  S_9
REMARK    6  A    between atoms: S_9  and  C_10
REMARK    7  A    between atoms: C_10  and  C_11
REMARK    8  A    between atoms: N_13  and  C_14
REMARK    9  A    between atoms: N_33  and  C_34
REMARK                            x       y       z     vdW  Elec       q    Type
REMARK                         _______ _______ _______ _____ _____    ______ ____
ROOT
ATOM      1  C   UNL     1       0.041   1.575  -0.594  0.00  0.00    +0.061 C 
ATOM      2  C   UNL     1      -0.577   1.852   0.752  0.00  0.00    +0.015 C 
ATOM      3  C   UNL     1       0.177   1.749   1.859  0.00  0.00    +0.047 C 
ATOM      4  C   UNL     1      -0.389   2.004   3.226  0.00  0.00    +0.134 C 
ATOM      5  C   UNL     1      -1.698   2.736   3.135  0.00  0.00    +0.072 C 
ATOM      6  C   UNL     1      -2.389   2.804   1.966  0.00  0.00    +0.080 C 
ATOM      7  N   UNL     1      -1.895   2.209   0.828  0.00  0.00    -0.312 N 
ATOM      8  H   UNL     1      -2.566   2.020  -0.024  0.00  0.00    +0.152 HD
ENDROOT
BRANCH   4   9
ATOM      9  C   UNL     1      -0.606   0.687   3.926  0.00  0.00    +0.118 A 
ATOM     10  C   UNL     1      -0.035   0.307   5.083  0.00  0.00    +0.045 A 
ATOM     11  C   UNL     1      -0.515  -0.991   5.371  0.00  0.00    +0.041 A 
ATOM     12  C   UNL     1      -1.352  -1.327   4.373  0.00  0.00    +0.195 A 
ATOM     13  O   UNL     1      -1.407  -0.305   3.503  0.00  0.00    -0.467 OA
ENDBRANCH   4   9
BRANCH   3  14
ATOM     14  C   UNL     1       1.541   1.391   1.733  0.00  0.00    +0.247 C 
ATOM     15  O   UNL     1       2.041   1.275   0.629  0.00  0.00    -0.270 OA
ATOM     16  N   UNL     1       2.286   1.178   2.836  0.00  0.00    -0.282 N 
ATOM     17  H   UNL     1       1.817   1.207   3.831  0.00  0.00    +0.155 HD
BRANCH  16  18
ATOM     18  C   UNL     1       3.655   0.920   2.716  0.00  0.00    +0.034 A 
ATOM     19  C   UNL     1       4.130   0.171   1.647  0.00  0.00    +0.023 A 
ATOM     20  C   UNL     1       5.484  -0.077   1.528  0.00  0.00    +0.002 A 
ATOM     21  C   UNL     1       6.364   0.409   2.477  0.00  0.00    +0.000 A 
ATOM     22  C   UNL     1       5.893   1.150   3.546  0.00  0.00    +0.002 A 
ATOM     23  C   UNL     1       4.541   1.407   3.667  0.00  0.00    +0.023 A 
ENDBRANCH  16  18
ENDBRANCH   3  14
BRANCH   5  24
ATOM     24  C   UNL     1      -2.227   3.376   4.302  0.00  0.00    +0.098 C 
ATOM     25  N   UNL     1      -2.647   3.883   5.228  0.00  0.00    -0.191 NA
ENDBRANCH   5  24
BRANCH   6  26
ATOM     26  S   UNL     1      -3.925   3.665   1.906  0.00  0.00    -0.100 S 
BRANCH  26  27
ATOM     27  C   UNL     1      -4.353   3.423   0.164  0.00  0.00    +0.171 C 
BRANCH  27  28
ATOM     28  C   UNL     1      -5.670   4.095  -0.127  0.00  0.00    +0.227 C 
ATOM     29  O   UNL     1      -6.261   4.679   0.756  0.00  0.00    -0.275 OA
ATOM     30  N   UNL     1      -6.192   4.045  -1.369  0.00  0.00    -0.284 N 
ATOM     31  H   UNL     1      -5.702   3.441  -2.147  0.00  0.00    +0.155 HD
BRANCH  30  32
ATOM     32  C   UNL     1      -7.353   4.760  -1.667  0.00  0.00    +0.041 A 
ATOM     33  C   UNL     1      -7.712   5.852  -0.906  0.00  0.00    +0.024 A 
ATOM     34  C   UNL     1      -8.868   6.571  -1.195  0.00  0.00    +0.002 A 
ATOM     35  C   UNL     1      -9.675   6.219  -2.234  0.00  0.00    +0.008 A 
ATOM     36  C   UNL     1      -9.344   5.112  -3.034  0.00  0.00    -0.016 A 
ATOM     37  C   UNL     1      -8.167   4.376  -2.754  0.00  0.00    +0.003 A 
ATOM     38  C   UNL     1      -7.841   3.267  -3.551  0.00  0.00    +0.010 A 
ATOM     39  C   UNL     1      -8.652   2.921  -4.588  0.00  0.00    +0.001 A 
ATOM     40  C   UNL     1      -9.808   3.647  -4.868  0.00  0.00    +0.001 A 
ATOM     41  C   UNL     1     -10.158   4.725  -4.113  0.00  0.00    +0.008 A 
ENDBRANCH  30  32
ENDBRANCH  27  28
ENDBRANCH  26  27
ENDBRANCH   6  26
TORSDOF 8
