REMARK  Name = ZINC18196226
REMARK  2 active torsions:
REMARK  status: ('A' for Active; 'I' for Inactive)
REMARK    1  A    between atoms: C_3  and  C_6
REMARK    2  A    between atoms: C_11  and  C_19
REMARK                            x       y       z     vdW  Elec       q    Type
REMARK                         _______ _______ _______ _____ _____    ______ ____
ROOT
ATOM      1  C   UNL     1       3.791  -0.395  -0.036  0.00  0.00    +0.039 C 
ATOM      2  C   UNL     1       4.518   0.122   1.208  0.00  0.00    +0.060 C 
ATOM      3  C   UNL     1       5.963  -0.314   1.169  0.00  0.00    +0.020 C 
ATOM      4  C   UNL     1       6.608  -0.476  -0.006  0.00  0.00    +0.041 C 
ATOM      5  C   UNL     1       8.055  -0.913  -0.076  0.00  0.00    +0.175 C 
ATOM      6  N   UNL     1       8.675  -0.796   1.238  0.00  0.00    -0.221 N 
ATOM      7  C   UNL     1       7.971  -0.621   2.383  0.00  0.00    +0.218 A 
ATOM      8  N   UNL     1       8.818  -0.563   3.373  0.00  0.00    -0.201 NA
ATOM      9  C   UNL     1      10.064  -0.690   2.904  0.00  0.00    +0.247 A 
ATOM     10  N   UNL     1      10.021  -0.834   1.602  0.00  0.00    -0.156 NA
ATOM     11  N   UNL     1       6.588  -0.529   2.374  0.00  0.00    -0.287 N 
ATOM     12  C   UNL     1       5.950  -0.247  -1.228  0.00  0.00    +0.164 C 
ATOM     13  O   UNL     1       6.564  -0.380  -2.268  0.00  0.00    -0.292 OA
ATOM     14  C   UNL     1       4.503   0.158  -1.275  0.00  0.00    +0.088 C 
ATOM     15  H   UNL     1       6.077  -0.613   3.194  0.00  0.00    +0.155 HD
ENDROOT
BRANCH   5  16
ATOM     16  C   UNL     1       8.123  -2.347  -0.535  0.00  0.00    -0.018 A 
ATOM     17  C   UNL     1       7.514  -3.340   0.209  0.00  0.00    +0.007 A 
ATOM     18  C   UNL     1       7.571  -4.654  -0.215  0.00  0.00    +0.020 A 
ATOM     19  C   UNL     1       8.248  -4.977  -1.377  0.00  0.00    +0.041 A 
ATOM     20  C   UNL     1       8.863  -3.983  -2.118  0.00  0.00    +0.020 A 
ATOM     21  C   UNL     1       8.800  -2.669  -1.696  0.00  0.00    +0.007 A 
ATOM     22 CL   UNL     1       8.327  -6.629  -1.906  0.00  0.00    -0.084 Cl
ENDBRANCH   5  16
BRANCH   1  25
ATOM     23  C   UNL     1       0.002  -0.004   0.002  0.00  0.00    +0.008 A 
ATOM     24  C   UNL     1       1.220  -0.658  -0.013  0.00  0.00    +0.011 A 
ATOM     25  C   UNL     1       2.360   0.076  -0.020  0.00  0.00    -0.006 A 
ATOM     26  S   UNL     1       1.725   1.744  -0.005  0.00  0.00    -0.101 S 
ATOM     27  C   UNL     1      -0.016   1.351   0.009  0.00  0.00    +0.045 A 
ENDBRANCH   1  25
TORSDOF 2
