REMARK  Name = ZINC49634648
REMARK  12 active torsions:
REMARK  status: ('A' for Active; 'I' for Inactive)
REMARK    1  A    between atoms: C_1  and  C_2
REMARK    2  A    between atoms: C_2  and  C_4
REMARK    3  A    between atoms: C_2  and  N_34
REMARK    4  A    between atoms: C_7  and  S_16
REMARK    5  A    between atoms: N_8  and  C_9
REMARK    6  A    between atoms: S_16  and  C_17
REMARK    7  A    between atoms: C_17  and  C_19
REMARK    8  A    between atoms: C_17  and  C_20
REMARK    9  A    between atoms: C_20  and  N_22
REMARK   10  A    between atoms: C_25  and  C_28
REMARK   11  A    between atoms: N_34  and  C_35
REMARK   12  A    between atoms: N_34  and  C_36
REMARK                            x       y       z     vdW  Elec       q    Type
REMARK                         _______ _______ _______ _____ _____    ______ ____
ROOT
ATOM      1  C   UNL     1      -1.412  -0.526   0.013  0.00  0.00    +0.125 A 
ATOM      2  N   UNL     1      -2.238  -0.538  -0.995  0.00  0.00    -0.135 NA
ATOM      3  N   UNL     1      -3.361  -1.052  -0.640  0.00  0.00    -0.122 NA
ATOM      4  C   UNL     1      -3.314  -1.400   0.625  0.00  0.00    +0.197 A 
ATOM      5  N   UNL     1      -2.064  -1.080   1.081  0.00  0.00    -0.275 N 
ENDROOT
BRANCH   5   6
ATOM      6  C   UNL     1      -1.558  -1.276   2.376  0.00  0.00    +0.050 A 
ATOM      7  C   UNL     1      -0.500  -2.150   2.583  0.00  0.00    +0.029 A 
ATOM      8  C   UNL     1      -0.003  -2.342   3.857  0.00  0.00    +0.040 A 
ATOM      9  C   UNL     1      -0.560  -1.663   4.928  0.00  0.00    +0.124 A 
ATOM     10  C   UNL     1      -1.616  -0.791   4.723  0.00  0.00    +0.040 A 
ATOM     11  C   UNL     1      -2.112  -0.592   3.449  0.00  0.00    +0.029 A 
ATOM     12  F   UNL     1      -0.073  -1.853   6.174  0.00  0.00    -0.205 F 
ENDBRANCH   5   6
BRANCH   1  14
ATOM     13  C   UNL     1      -0.019   1.526   0.010  0.00  0.00    -0.005 C 
ATOM     14  C   UNL     1       0.002  -0.004   0.002  0.00  0.00    -0.003 C 
BRANCH  14  15
ATOM     15  N   UNL     1       0.690  -0.478  -1.207  0.00  0.00    +0.382 N 
ATOM     16  C   UNL     1       2.068   0.031  -1.217  0.00  0.00    -0.096 C 
ATOM     17  C   UNL     1       0.710  -1.947  -1.215  0.00  0.00    -0.096 C 
ATOM     18  H   UNL     1       0.202  -0.144  -2.024  0.00  0.00    -0.082 HD
ENDBRANCH  14  15
ENDBRANCH   1  14
BRANCH   4  19
ATOM     19  S   UNL     1      -4.611  -2.144   1.557  0.00  0.00    -0.073 S 
BRANCH  19  20
ATOM     20  C   UNL     1      -5.972  -2.300   0.368  0.00  0.00    +0.139 C 
ATOM     21  C   UNL     1      -6.440  -0.907  -0.057  0.00  0.00    +0.029 C 
BRANCH  20  22
ATOM     22  C   UNL     1      -7.117  -3.042   1.009  0.00  0.00    +0.251 C 
ATOM     23  O   UNL     1      -7.245  -3.034   2.219  0.00  0.00    -0.272 OA
BRANCH  22  24
ATOM     24  N   UNL     1      -7.985  -3.703   0.254  0.00  0.00    -0.156 NA
ATOM     25  C   UNL     1      -8.998  -4.359   0.821  0.00  0.00    +0.163 A 
ATOM     26  N   UNL     1      -9.973  -5.088   0.216  0.00  0.00    -0.335 N 
ATOM     27  C   UNL     1     -10.927  -5.686   0.991  0.00  0.00    +0.055 A 
ATOM     28  C   UNL     1     -10.829  -5.503   2.327  0.00  0.00    +0.074 A 
ATOM     29  S   UNL     1      -9.370  -4.487   2.456  0.00  0.00    -0.060 S 
ATOM     30  H   UNL     1      -9.990  -5.183  -0.749  0.00  0.00    +0.168 HD
BRANCH  27  31
ATOM     31  C   UNL     1     -12.015  -6.493   0.396  0.00  0.00    -0.001 A 
ATOM     32  C   UNL     1     -12.083  -6.666  -0.987  0.00  0.00    +0.010 A 
ATOM     33  C   UNL     1     -13.100  -7.420  -1.535  0.00  0.00    +0.001 A 
ATOM     34  C   UNL     1     -14.051  -8.004  -0.717  0.00  0.00    +0.000 A 
ATOM     35  C   UNL     1     -13.989  -7.836   0.655  0.00  0.00    +0.001 A 
ATOM     36  C   UNL     1     -12.973  -7.089   1.216  0.00  0.00    +0.010 A 
ENDBRANCH  27  31
ENDBRANCH  22  24
ENDBRANCH  20  22
ENDBRANCH  19  20
ENDBRANCH   4  19
TORSDOF 8
