REMARK  Name = ZINC34725256
REMARK  7 active torsions:
REMARK  status: ('A' for Active; 'I' for Inactive)
REMARK    1  A    between atoms: C_1  and  C_2
REMARK    2  A    between atoms: C_3  and  C_31
REMARK    3  A    between atoms: N_11  and  C_19
REMARK    4  A    between atoms: N_14  and  C_15
REMARK    5  A    between atoms: C_15  and  C_16
REMARK    6  A    between atoms: C_19  and  C_20
REMARK    7  A    between atoms: N_22  and  C_23
REMARK                            x       y       z     vdW  Elec       q    Type
REMARK                         _______ _______ _______ _____ _____    ______ ____
ROOT
ATOM      1  C   UNL     1      -0.035   1.508   0.052  0.00  0.00    +0.039 C 
ATOM      2  C   UNL     1      -0.011   0.001   0.034  0.00  0.00    -0.064 C 
ATOM      3  C   UNL     1      -1.062  -0.797   0.030  0.00  0.00    -0.042 C 
ATOM      4  C   UNL     1      -0.661  -2.232   0.010  0.00  0.00    +0.003 A 
ATOM      5  C   UNL     1       0.698  -2.277   0.002  0.00  0.00    +0.004 A 
ATOM      6  S   UNL     1       1.102  -4.003  -0.022  0.00  0.00    -0.074 S 
ATOM      7  C   UNL     1      -0.543  -4.666  -0.021  0.00  0.00    +0.098 A 
ATOM      8  C   UNL     1      -1.357  -3.538  -0.002  0.00  0.00    +0.078 A 
ATOM      9  C   UNL     1      -2.811  -3.796   0.004  0.00  0.00    +0.266 A 
ATOM     10  O   UNL     1      -3.602  -2.871   0.019  0.00  0.00    -0.267 OA
ATOM     11  N   UNL     1      -3.250  -5.068  -0.009  0.00  0.00    -0.251 N 
ATOM     12  C   UNL     1      -2.404  -6.110  -0.026  0.00  0.00    +0.334 A 
ATOM     13  O   UNL     1      -2.851  -7.241  -0.036  0.00  0.00    -0.246 OA
ATOM     14  N   UNL     1      -1.068  -5.928  -0.033  0.00  0.00    -0.278 N 
ATOM     15  C   UNL     1       1.222  -0.874   0.009  0.00  0.00    +0.073 C 
ATOM     16  C   UNL     1      -2.490  -0.317   0.044  0.00  0.00    +0.044 C 
ENDROOT
BRANCH  14  17
ATOM     17  C   UNL     1      -0.175  -7.089  -0.052  0.00  0.00    +0.222 C 
BRANCH  17  18
ATOM     18  C   UNL     1       0.139  -7.505   1.362  0.00  0.00    +0.230 C 
ATOM     19  O   UNL     1      -0.336  -6.891   2.294  0.00  0.00    -0.274 OA
ATOM     20  N   UNL     1       0.949  -8.558   1.590  0.00  0.00    -0.328 N 
ATOM     21  H   UNL     1       1.329  -9.048   0.845  0.00  0.00    +0.145 HD
ATOM     22  H   UNL     1       1.151  -8.825   2.501  0.00  0.00    +0.145 HD
ENDBRANCH  17  18
ENDBRANCH  14  17
BRANCH  11  23
ATOM     23  C   UNL     1      -4.693  -5.322  -0.004  0.00  0.00    +0.226 C 
BRANCH  23  24
ATOM     24  C   UNL     1      -5.196  -5.393  -1.422  0.00  0.00    +0.237 C 
ATOM     25  O   UNL     1      -4.425  -5.245  -2.347  0.00  0.00    -0.274 OA
ATOM     26  N   UNL     1      -6.502  -5.620  -1.664  0.00  0.00    -0.284 N 
ATOM     27  H   UNL     1      -7.107  -5.805  -0.928  0.00  0.00    +0.155 HD
BRANCH  26  28
ATOM     28  C   UNL     1      -6.987  -5.589  -2.976  0.00  0.00    +0.034 A 
ATOM     29  C   UNL     1      -8.259  -5.097  -3.237  0.00  0.00    +0.024 A 
ATOM     30  C   UNL     1      -8.735  -5.068  -4.533  0.00  0.00    +0.017 A 
ATOM     31  C   UNL     1      -7.945  -5.528  -5.572  0.00  0.00    +0.018 A 
ATOM     32  C   UNL     1      -6.677  -6.019  -5.315  0.00  0.00    +0.017 A 
ATOM     33  C   UNL     1      -6.195  -6.046  -4.021  0.00  0.00    +0.024 A 
ATOM     34 BR   UNL     1      -8.600  -5.487  -7.345  0.00  0.00    -0.050 Br
ENDBRANCH  26  28
ENDBRANCH  23  24
ENDBRANCH  11  23
TORSDOF 5
