REMARK  Name = ZINC44873519
REMARK  9 active torsions:
REMARK  status: ('A' for Active; 'I' for Inactive)
REMARK    1  A    between atoms: C_4  and  S_7
REMARK    2  A    between atoms: S_7  and  N_10
REMARK    3  A    between atoms: N_10  and  C_11
REMARK    4  A    between atoms: N_10  and  C_29
REMARK    5  A    between atoms: C_11  and  C_12
REMARK    6  A    between atoms: N_14  and  C_15
REMARK    7  A    between atoms: C_15  and  C_16
REMARK    8  A    between atoms: C_19  and  C_22
REMARK    9  A    between atoms: C_22  and  N_23
REMARK                            x       y       z     vdW  Elec       q    Type
REMARK                         _______ _______ _______ _____ _____    ______ ____
ROOT
ATOM      1  C   UNL     1       5.096  -3.371   1.877  0.00  0.00    +0.232 C 
ATOM      2  O   UNL     1       6.044  -3.072   1.182  0.00  0.00    -0.274 OA
ATOM      3  N   UNL     1       4.991  -4.620   2.373  0.00  0.00    -0.310 N 
ATOM      4  H   UNL     1       4.233  -4.859   2.929  0.00  0.00    +0.149 HD
ENDROOT
BRANCH   1   5
ATOM      5  C   UNL     1       4.036  -2.346   2.186  0.00  0.00    +0.227 C 
BRANCH   5   6
ATOM      6  N   UNL     1       4.378  -1.079   1.536  0.00  0.00    -0.194 N 
BRANCH   6   7
ATOM      7  C   UNL     1       5.241  -0.179   2.167  0.00  0.00    +0.052 A 
ATOM      8  C   UNL     1       4.914   0.340   3.413  0.00  0.00    +0.026 A 
ATOM      9  C   UNL     1       5.770   1.228   4.036  0.00  0.00    +0.022 A 
ATOM     10  C   UNL     1       6.951   1.600   3.419  0.00  0.00    +0.041 A 
ATOM     11  C   UNL     1       7.279   1.084   2.178  0.00  0.00    +0.022 A 
ATOM     12  C   UNL     1       6.430   0.192   1.553  0.00  0.00    +0.026 A 
ATOM     13 CL   UNL     1       8.024   2.718   4.203  0.00  0.00    -0.084 Cl
ENDBRANCH   6   7
BRANCH   6  14
ATOM     14  S   UNL     1       3.741  -0.711   0.052  0.00  0.00    +0.075 S 
ATOM     15  O   UNL     1       3.524  -1.947  -0.615  0.00  0.00    -0.150 OA
ATOM     16  O   UNL     1       4.554   0.317  -0.496  0.00  0.00    -0.150 OA
BRANCH  14  20
ATOM     17  C   UNL     1      -0.343   1.109   0.759  0.00  0.00    +0.000 A 
ATOM     18  C   UNL     1       0.776   1.920   0.709  0.00  0.00    +0.002 A 
ATOM     19  C   UNL     1       2.023   1.364   0.493  0.00  0.00    +0.029 A 
ATOM     20  C   UNL     1       2.151  -0.003   0.328  0.00  0.00    +0.109 A 
ATOM     21  C   UNL     1       1.033  -0.813   0.379  0.00  0.00    +0.029 A 
ATOM     22  C   UNL     1      -0.215  -0.257   0.593  0.00  0.00    +0.002 A 
ENDBRANCH  14  20
ENDBRANCH   6  14
ENDBRANCH   5   6
ENDBRANCH   1   5
BRANCH   3  23
ATOM     23  C   UNL     1       6.022  -5.617   2.073  0.00  0.00    +0.139 C 
BRANCH  23  24
ATOM     24  C   UNL     1       5.671  -6.920   2.742  0.00  0.00    -0.030 A 
ATOM     25  C   UNL     1       6.113  -7.180   4.025  0.00  0.00    +0.005 A 
ATOM     26  C   UNL     1       5.791  -8.376   4.639  0.00  0.00    +0.002 A 
ATOM     27  C   UNL     1       5.025  -9.312   3.969  0.00  0.00    -0.064 A 
ATOM     28  C   UNL     1       4.582  -9.052   2.686  0.00  0.00    +0.002 A 
ATOM     29  C   UNL     1       4.901  -7.854   2.074  0.00  0.00    +0.005 A 
BRANCH  27  30
ATOM     30  C   UNL     1       4.674 -10.616   4.638  0.00  0.00    -0.043 C 
BRANCH  30  31
ATOM     31  N   UNL     1       3.409 -10.466   5.370  0.00  0.00    +0.382 N 
ATOM     32  C   UNL     1       3.587  -9.498   6.458  0.00  0.00    -0.078 C 
ATOM     33  C   UNL     1       2.252  -9.277   7.173  0.00  0.00    -0.019 C 
ATOM     34  C   UNL     1       1.761 -10.609   7.748  0.00  0.00    -0.004 C 
ATOM     35  C   UNL     1       1.651 -11.633   6.614  0.00  0.00    -0.019 C 
ATOM     36  C   UNL     1       3.008 -11.766   5.921  0.00  0.00    -0.078 C 
ATOM     37  H   UNL     1       2.695 -10.134   4.740  0.00  0.00    -0.081 HD
ENDBRANCH  30  31
ENDBRANCH  27  30
ENDBRANCH  23  24
ENDBRANCH   3  23
TORSDOF 9
