REMARK  Name = ZINC05002883
REMARK  9 active torsions:
REMARK  status: ('A' for Active; 'I' for Inactive)
REMARK    1  A    between atoms: C_1  and  C_2
REMARK    2  A    between atoms: C_7  and  O_10
REMARK    3  A    between atoms: O_10  and  C_11
REMARK    4  A    between atoms: C_11  and  C_13
REMARK    5  A    between atoms: C_14  and  C_30
REMARK    6  A    between atoms: C_19  and  C_21
REMARK    7  A    between atoms: C_24  and  N_27
REMARK    8  A    between atoms: N_27  and  C_28
REMARK    9  A    between atoms: N_27  and  C_29
REMARK                            x       y       z     vdW  Elec       q    Type
REMARK                         _______ _______ _______ _____ _____    ______ ____
ROOT
ATOM      1  C   UNL     1      -0.108  -4.739  -1.455  0.00  0.00    +0.078 C 
ATOM      2  C   UNL     1      -1.155  -5.553  -1.713  0.00  0.00    +0.021 C 
ATOM      3  N   UNL     1      -2.005  -5.944  -0.718  0.00  0.00    -0.273 N 
ATOM      4  C   UNL     1      -1.877  -5.566   0.560  0.00  0.00    +0.304 C 
ATOM      5  O   UNL     1      -2.684  -5.966   1.375  0.00  0.00    -0.252 OA
ATOM      6  N   UNL     1      -0.881  -4.756   0.972  0.00  0.00    -0.288 N 
ATOM      7  C   UNL     1       0.091  -4.277  -0.025  0.00  0.00    +0.143 C 
ATOM      8  C   UNL     1      -1.389  -6.036  -3.121  0.00  0.00    +0.061 C 
ATOM      9  H   UNL     1      -2.743  -6.528  -0.951  0.00  0.00    +0.156 HD
ATOM     10  H   UNL     1      -0.807  -4.495   1.903  0.00  0.00    +0.151 HD
ENDROOT
BRANCH   7  11
ATOM     11  C   UNL     1       0.062  -2.770  -0.016  0.00  0.00    -0.022 A 
ATOM     12  C   UNL     1       1.242  -2.057  -0.127  0.00  0.00    +0.007 A 
ATOM     13  C   UNL     1       1.219  -0.676  -0.119  0.00  0.00    +0.023 A 
ATOM     14  C   UNL     1       0.010  -0.004   0.001  0.00  0.00    +0.029 A 
ATOM     15  C   UNL     1      -1.173  -0.723   0.118  0.00  0.00    +0.023 A 
ATOM     16  C   UNL     1      -1.144  -2.104   0.104  0.00  0.00    +0.007 A 
BRANCH  14  17
ATOM     17  N   UNL     1      -0.017   1.393   0.010  0.00  0.00    -0.336 N 
ATOM     18  C   UNL     1       1.238   2.149   0.019  0.00  0.00    +0.129 C 
ATOM     19  C   UNL     1      -1.299   2.101   0.003  0.00  0.00    +0.129 C 
ENDBRANCH  14  17
ENDBRANCH   7  11
BRANCH   1  20
ATOM     20  C   UNL     1       0.773  -4.333  -2.484  0.00  0.00    +0.339 C 
ATOM     21  O   UNL     1       0.595  -4.716  -3.625  0.00  0.00    -0.245 OA
BRANCH  20  22
ATOM     22  O   UNL     1       1.813  -3.521  -2.200  0.00  0.00    -0.458 OA
BRANCH  22  28
ATOM     23  C   UNL     1       4.753   0.019  -3.927  0.00  0.00    +0.007 C 
ATOM     24  C   UNL     1       4.163  -1.368  -4.190  0.00  0.00    -0.011 C 
ATOM     25  C   UNL     1       5.296  -2.387  -4.321  0.00  0.00    +0.003 C 
ATOM     26  C   UNL     1       4.706  -3.775  -4.584  0.00  0.00    +0.004 C 
ATOM     27  C   UNL     1       3.796  -4.170  -3.419  0.00  0.00    +0.045 C 
ATOM     28  C   UNL     1       2.663  -3.151  -3.288  0.00  0.00    +0.177 C 
ATOM     29  C   UNL     1       3.253  -1.764  -3.025  0.00  0.00    +0.048 C 
ENDBRANCH  22  28
ENDBRANCH  20  22
ENDBRANCH   1  20
TORSDOF 5
