REMARK  Name = ZINC35851698
REMARK  3 active torsions:
REMARK  status: ('A' for Active; 'I' for Inactive)
REMARK    1  A    between atoms: C_1  and  C_2
REMARK    2  A    between atoms: C_2  and  C_3
REMARK    3  A    between atoms: N_22  and  C_25
REMARK                            x       y       z     vdW  Elec       q    Type
REMARK                         _______ _______ _______ _____ _____    ______ ____
ROOT
ATOM      1  C   UNL     1      -1.177  -0.087  -0.381  0.00  0.00    -0.047 A 
ATOM      2  C   UNL     1      -1.768  -0.128   0.869  0.00  0.00    +0.005 A 
ATOM      3  C   UNL     1      -3.076  -0.546   1.007  0.00  0.00    +0.024 A 
ATOM      4  C   UNL     1      -3.811  -0.930  -0.112  0.00  0.00    +0.039 A 
ATOM      5  C   UNL     1      -3.205  -0.887  -1.364  0.00  0.00    +0.004 A 
ATOM      6  C   UNL     1      -1.902  -0.462  -1.498  0.00  0.00    +0.011 A 
ATOM      7  C   UNL     1      -4.244  -1.361  -2.341  0.00  0.00    +0.138 C 
ATOM      8  C   UNL     1      -3.772  -2.609  -3.095  0.00  0.00    +0.123 C 
ATOM      9  C   UNL     1      -3.263  -2.074  -4.462  0.00  0.00    +0.107 C 
ATOM     10  C   UNL     1      -3.491  -0.552  -4.409  0.00  0.00    +0.071 C 
ATOM     11  N   UNL     1      -4.531  -0.342  -3.365  0.00  0.00    -0.281 NA
ATOM     12  C   UNL     1      -5.804  -0.665  -4.052  0.00  0.00    +0.086 C 
ATOM     13  C   UNL     1      -5.635  -0.131  -5.489  0.00  0.00    +0.017 C 
ATOM     14  C   UNL     1      -4.103  -0.083  -5.741  0.00  0.00    +0.021 C 
ATOM     15  C   UNL     1      -1.782  -2.376  -4.426  0.00  0.00    +0.232 C 
ATOM     16  O   UNL     1      -0.992  -2.116  -5.308  0.00  0.00    -0.274 OA
ATOM     17  N   UNL     1      -1.479  -2.973  -3.267  0.00  0.00    -0.210 N 
ATOM     18  C   UNL     1      -2.529  -3.164  -2.436  0.00  0.00    +0.233 C 
ATOM     19  O   UNL     1      -2.490  -3.688  -1.344  0.00  0.00    -0.274 OA
ATOM     20  C   UNL     1      -5.460  -1.656  -1.504  0.00  0.00    +0.243 C 
ATOM     21  O   UNL     1      -6.531  -2.062  -1.902  0.00  0.00    -0.273 OA
ATOM     22  N   UNL     1      -5.128  -1.381  -0.228  0.00  0.00    -0.283 N 
ATOM     23  H   UNL     1      -5.732  -1.484   0.523  0.00  0.00    +0.155 HD
ENDROOT
BRANCH  17  24
ATOM     24  C   UNL     1      -0.176  -3.375  -2.940  0.00  0.00    +0.045 A 
ATOM     25  C   UNL     1       0.827  -2.427  -2.788  0.00  0.00    +0.024 A 
ATOM     26  C   UNL     1       2.109  -2.826  -2.465  0.00  0.00    +0.003 A 
ATOM     27  C   UNL     1       2.395  -4.168  -2.293  0.00  0.00    +0.015 A 
ATOM     28  C   UNL     1       1.398  -5.115  -2.443  0.00  0.00    +0.020 A 
ATOM     29  C   UNL     1       0.111  -4.721  -2.761  0.00  0.00    +0.039 A 
ATOM     30 BR   UNL     1       1.793  -6.949  -2.207  0.00  0.00    -0.050 Br
ENDBRANCH  17  24
BRANCH   1  32
ATOM     31  C   UNL     1       0.281   1.887  -0.738  0.00  0.00    +0.009 C 
ATOM     32  C   UNL     1       0.251   0.372  -0.526  0.00  0.00    +0.032 C 
ENDBRANCH   1  32
TORSDOF 2
