REMARK  Name = ZINC06678724
REMARK  6 active torsions:
REMARK  status: ('A' for Active; 'I' for Inactive)
REMARK    1  A    between atoms: C_1  and  C_2
REMARK    2  A    between atoms: C_11  and  C_31
REMARK    3  A    between atoms: C_14  and  C_16
REMARK    4  A    between atoms: C_19  and  O_22
REMARK    5  A    between atoms: O_22  and  C_23
REMARK    6  A    between atoms: C_23  and  C_24
REMARK                            x       y       z     vdW  Elec       q    Type
REMARK                         _______ _______ _______ _____ _____    ______ ____
ROOT
ATOM      1  C   UNL     1      -2.611   1.631   0.046  0.00  0.00    +0.068 C 
ATOM      2  C   UNL     1      -1.225   2.223   0.032  0.00  0.00    +0.066 A 
ATOM      3  C   UNL     1      -0.018   1.492   0.010  0.00  0.00    +0.032 A 
ATOM      4  C   UNL     1       1.001   2.379   0.005  0.00  0.00    +0.125 A 
ATOM      5  N   UNL     1       0.445   3.631   0.022  0.00  0.00    -0.263 N 
ATOM      6  H   UNL     1       0.949   4.495   0.026  0.00  0.00    +0.190 HD
ATOM      7  N   UNL     1      -0.943   3.494   0.032  0.00  0.00    -0.177 NA
ATOM      8  N   UNL     1       2.365   2.209  -0.014  0.00  0.00    -0.270 N 
ATOM      9  C   UNL     1       3.162   1.184   0.015  0.00  0.00    +0.231 C 
ATOM     10  O   UNL     1       4.341   1.457   0.088  0.00  0.00    -0.274 OA
ATOM     11  C   UNL     1       2.860  -0.262  -0.027  0.00  0.00    +0.130 C 
ATOM     12  S   UNL     1       1.387  -0.700   0.907  0.00  0.00    -0.135 S 
ATOM     13  C   UNL     1       0.002  -0.004   0.002  0.00  0.00    +0.112 C 
ATOM     14  C   UNL     1       4.053  -1.031   0.546  0.00  0.00    +0.029 C 
ATOM     15  H   UNL     1       2.844   3.052  -0.060  0.00  0.00    +0.156 HD
ENDROOT
BRANCH  13  16
ATOM     16  C   UNL     1      -1.277  -0.509   0.618  0.00  0.00    -0.030 A 
ATOM     17  C   UNL     1      -1.592  -0.179   1.923  0.00  0.00    +0.008 A 
ATOM     18  C   UNL     1      -2.767  -0.635   2.489  0.00  0.00    +0.046 A 
ATOM     19  C   UNL     1      -3.626  -1.435   1.749  0.00  0.00    +0.121 A 
ATOM     20  C   UNL     1      -3.306  -1.769   0.441  0.00  0.00    +0.046 A 
ATOM     21  C   UNL     1      -2.132  -1.305  -0.121  0.00  0.00    +0.008 A 
BRANCH  19  22
ATOM     22  O   UNL     1      -4.780  -1.889   2.304  0.00  0.00    -0.487 OA
BRANCH  22  23
ATOM     23  C   UNL     1      -5.045  -1.506   3.655  0.00  0.00    +0.264 C 
BRANCH  23  24
ATOM     24  C   UNL     1      -6.358  -2.098   4.097  0.00  0.00    -0.008 A 
ATOM     25  C   UNL     1      -6.388  -3.347   4.690  0.00  0.00    +0.007 A 
ATOM     26  C   UNL     1      -7.591  -3.892   5.096  0.00  0.00    +0.003 A 
ATOM     27  C   UNL     1      -8.767  -3.189   4.910  0.00  0.00    +0.038 A 
ATOM     28  C   UNL     1      -8.739  -1.939   4.317  0.00  0.00    +0.124 A 
ATOM     29  C   UNL     1      -7.531  -1.391   3.915  0.00  0.00    +0.045 A 
ATOM     30  F   UNL     1      -9.887  -1.251   4.135  0.00  0.00    -0.205 F 
ENDBRANCH  23  24
ENDBRANCH  22  23
ENDBRANCH  19  22
ENDBRANCH  13  16
TORSDOF 4
