REMARK  Name = ZINC05766821
REMARK  4 active torsions:
REMARK  status: ('A' for Active; 'I' for Inactive)
REMARK    1  A    between atoms: C_6  and  C_7
REMARK    2  A    between atoms: N_8  and  N_9
REMARK    3  A    between atoms: C_10  and  C_12
REMARK    4  A    between atoms: C_16  and  N_18
REMARK                            x       y       z     vdW  Elec       q    Type
REMARK                         _______ _______ _______ _____ _____    ______ ____
ROOT
ATOM      1  N   UNL     1      -3.681   3.184   0.056  0.00  0.00    -0.203 N 
ATOM      2  C   UNL     1      -2.520   3.870   0.048  0.00  0.00    +0.263 C 
ATOM      3  O   UNL     1      -2.533   5.085   0.055  0.00  0.00    -0.268 OA
ATOM      4  H   UNL     1      -3.671   2.214   0.051  0.00  0.00    +0.178 HD
ENDROOT
BRANCH   2   5
ATOM      5  C   UNL     1      -1.234   3.144   0.031  0.00  0.00    +0.041 A 
ATOM      6  C   UNL     1      -1.217   1.747   0.017  0.00  0.00    +0.014 A 
ATOM      7  C   UNL     1      -0.013   1.076   0.008  0.00  0.00    +0.023 A 
ATOM      8  C   UNL     1       1.179   1.783   0.000  0.00  0.00    +0.071 A 
ATOM      9  C   UNL     1       1.168   3.168   0.007  0.00  0.00    +0.145 A 
ATOM     10  C   UNL     1      -0.030   3.851   0.023  0.00  0.00    +0.047 A 
ATOM     11 CL   UNL     1       2.691   0.931  -0.019  0.00  0.00    -0.081 Cl
BRANCH   9  12
ATOM     12  N   UNL     1       2.445   3.917  -0.001  0.00  0.00    +0.058 N 
ATOM     13  O   UNL     1       2.437   5.135   0.005  0.00  0.00    -0.126 OA
ATOM     14  O   UNL     1       3.503   3.315  -0.015  0.00  0.00    -0.126 OA
ENDBRANCH   9  12
ENDBRANCH   2   5
BRANCH   1  16
ATOM     15  C   UNL     1      -6.018   3.212   0.080  0.00  0.00    +0.138 C 
ATOM     16  N   UNL     1      -4.901   3.872   0.072  0.00  0.00    -0.187 NA
BRANCH  15  22
ATOM     17  C   UNL     1      -7.320   5.333   0.111  0.00  0.00    +0.010 A 
ATOM     18  C   UNL     1      -8.525   6.005   0.122  0.00  0.00    +0.016 A 
ATOM     19  C   UNL     1      -9.715   5.297   0.130  0.00  0.00    +0.018 A 
ATOM     20  C   UNL     1      -9.705   3.912   0.121  0.00  0.00    +0.016 A 
ATOM     21  C   UNL     1      -8.507   3.229   0.105  0.00  0.00    +0.010 A 
ATOM     22  C   UNL     1      -7.303   3.936   0.097  0.00  0.00    -0.005 A 
ATOM     23 BR   UNL     1     -11.362   6.226   0.152  0.00  0.00    -0.050 Br
ENDBRANCH  15  22
ENDBRANCH   1  16
TORSDOF 4
