REMARK  Name = ZINC08876260
REMARK  13 active torsions:
REMARK  status: ('A' for Active; 'I' for Inactive)
REMARK    1  A    between atoms: C_1  and  C_2
REMARK    2  A    between atoms: C_2  and  C_3
REMARK    3  A    between atoms: C_3  and  C_4
REMARK    4  A    between atoms: C_4  and  C_5
REMARK    5  A    between atoms: C_5  and  C_6
REMARK    6  A    between atoms: C_6  and  N_7
REMARK    7  A    between atoms: C_8  and  C_10
REMARK    8  A    between atoms: C_10  and  C_12
REMARK    9  A    between atoms: C_10  and  N_16
REMARK   10  A    between atoms: C_12  and  C_13
REMARK   11  A    between atoms: C_13  and  S_14
REMARK   12  A    between atoms: S_14  and  C_15
REMARK   13  A    between atoms: C_17  and  C_19
REMARK                            x       y       z     vdW  Elec       q    Type
REMARK                         _______ _______ _______ _____ _____    ______ ____
ROOT
ATOM      1  C   UNL     1      -1.169   4.968  -2.615  0.00  0.00    +0.167 C 
ATOM      2  C   UNL     1      -0.690   4.111  -3.795  0.00  0.00    +0.069 C 
ATOM      3  C   UNL     1      -0.869   4.861  -5.090  0.00  0.00    -0.015 A 
ATOM      4  C   UNL     1      -0.844   4.311  -6.435  0.00  0.00    +0.003 A 
ATOM      5  C   UNL     1      -0.667   3.012  -6.919  0.00  0.00    +0.010 A 
ATOM      6  C   UNL     1      -0.699   2.849  -8.282  0.00  0.00    +0.001 A 
ATOM      7  C   UNL     1      -0.896   3.914  -9.146  0.00  0.00    +0.002 A 
ATOM      8  C   UNL     1      -1.074   5.210  -8.693  0.00  0.00    +0.026 A 
ATOM      9  C   UNL     1      -1.046   5.405  -7.314  0.00  0.00    +0.047 A 
ATOM     10  N   UNL     1      -1.183   6.524  -6.544  0.00  0.00    -0.356 N 
ATOM     11  H   UNL     1      -1.329   7.420  -6.884  0.00  0.00    +0.166 HD
ATOM     12  C   UNL     1      -1.085   6.189  -5.221  0.00  0.00    +0.046 A 
ATOM     13  C   UNL     1      -1.212   7.121  -4.040  0.00  0.00    +0.155 C 
ATOM     14  N   UNL     1      -0.747   6.350  -2.863  0.00  0.00    -0.273 N 
ATOM     15  C   UNL     1       0.099   7.117  -2.161  0.00  0.00    +0.248 C 
ATOM     16  O   UNL     1       0.485   6.884  -1.032  0.00  0.00    -0.270 OA
ATOM     17  C   UNL     1       0.489   8.280  -2.965  0.00  0.00    +0.042 A 
ATOM     18  C   UNL     1      -0.316   8.308  -4.147  0.00  0.00    -0.009 A 
ATOM     19  C   UNL     1      -0.142   9.270  -5.095  0.00  0.00    +0.006 A 
ATOM     20  C   UNL     1       0.816  10.250  -4.853  0.00  0.00    +0.000 A 
ATOM     21  C   UNL     1       1.578  10.254  -3.702  0.00  0.00    +0.001 A 
ATOM     22  C   UNL     1       1.438   9.276  -2.728  0.00  0.00    +0.013 A 
ENDROOT
BRANCH   1  24
ATOM     23  N   UNL     1       0.779   4.583  -1.140  0.00  0.00    -0.302 N 
ATOM     24  C   UNL     1      -0.549   4.467  -1.336  0.00  0.00    +0.235 C 
ATOM     25  O   UNL     1      -1.246   3.960  -0.482  0.00  0.00    -0.274 OA
ATOM     26  H   UNL     1       1.336   4.988  -1.822  0.00  0.00    +0.150 HD
BRANCH  23  27
ATOM     27  C   UNL     1       1.381   4.096   0.103  0.00  0.00    +0.160 C 
BRANCH  27  29
ATOM     28  N   UNL     1       3.395   4.560   1.463  0.00  0.00    -0.314 N 
ATOM     29  C   UNL     1       2.664   4.842   0.366  0.00  0.00    +0.233 C 
ATOM     30  O   UNL     1       3.038   5.697  -0.408  0.00  0.00    -0.274 OA
ATOM     31  H   UNL     1       3.096   3.876   2.083  0.00  0.00    +0.149 HD
BRANCH  28  32
ATOM     32  C   UNL     1       4.642   5.285   1.718  0.00  0.00    +0.104 C 
BRANCH  32  33
ATOM     33  C   UNL     1       5.271   4.777   3.017  0.00  0.00    +0.019 C 
BRANCH  33  34
ATOM     34  C   UNL     1       6.573   5.534   3.284  0.00  0.00    +0.002 C 
BRANCH  34  35
ATOM     35  C   UNL     1       7.202   5.025   4.583  0.00  0.00    -0.000 C 
BRANCH  35  37
ATOM     36  C   UNL     1       9.133   5.274   6.149  0.00  0.00    +0.004 C 
ATOM     37  C   UNL     1       8.504   5.783   4.850  0.00  0.00    -0.003 C 
ENDBRANCH  35  37
ENDBRANCH  34  35
ENDBRANCH  33  34
ENDBRANCH  32  33
ENDBRANCH  28  32
ENDBRANCH  27  29
BRANCH  27  38
ATOM     38  C   UNL     1       1.678   2.600  -0.025  0.00  0.00    +0.042 C 
BRANCH  38  39
ATOM     39  C   UNL     1       0.364   1.830  -0.168  0.00  0.00    +0.071 C 
BRANCH  39  40
ATOM     40  S   UNL     1       0.717   0.057  -0.320  0.00  0.00    -0.164 S 
ATOM     41  C   UNL     1      -0.922  -0.704  -0.478  0.00  0.00    +0.084 C 
ENDBRANCH  39  40
ENDBRANCH  38  39
ENDBRANCH  27  38
ENDBRANCH  23  27
ENDBRANCH   1  24
TORSDOF 11
