REMARK  Name = ZINC39177731
REMARK  2 active torsions:
REMARK  status: ('A' for Active; 'I' for Inactive)
REMARK    1  A    between atoms: C_1  and  C_2
REMARK    2  A    between atoms: N_17  and  C_18
REMARK                            x       y       z     vdW  Elec       q    Type
REMARK                         _______ _______ _______ _____ _____    ______ ____
ROOT
ATOM      1  C   UNL     1      -0.018   1.503   0.010  0.00  0.00    +0.047 C 
ATOM      2  C   UNL     1       0.002  -0.004   0.002  0.00  0.00    -0.010 A 
ATOM      3  C   UNL     1       0.006  -0.706  -1.196  0.00  0.00    +0.041 A 
ATOM      4  C   UNL     1       0.028  -2.086  -1.169  0.00  0.00    +0.128 A 
ATOM      5  N   UNL     1       0.061  -2.740  -0.024  0.00  0.00    -0.237 NA
ATOM      6  C   UNL     1       0.067  -2.111   1.143  0.00  0.00    +0.149 A 
ATOM      7  C   UNL     1       0.023  -0.720   1.194  0.00  0.00    +0.078 A 
ATOM      8  N   UNL     1      -0.051  -0.031   2.402  0.00  0.00    -0.278 N 
ATOM      9  C   UNL     1       0.601  -0.314   3.519  0.00  0.00    +0.252 C 
ATOM     10  O   UNL     1       0.419   0.421   4.470  0.00  0.00    -0.270 OA
ATOM     11  C   UNL     1       1.524  -1.437   3.707  0.00  0.00    +0.077 A 
ATOM     12  C   UNL     1       2.691  -1.267   4.460  0.00  0.00    +0.018 A 
ATOM     13  C   UNL     1       3.518  -2.361   4.649  0.00  0.00    +0.021 A 
ATOM     14  C   UNL     1       3.169  -3.580   4.098  0.00  0.00    +0.113 A 
ATOM     15  N   UNL     1       2.072  -3.715   3.378  0.00  0.00    -0.239 NA
ATOM     16  C   UNL     1       1.258  -2.695   3.147  0.00  0.00    +0.139 A 
ATOM     17  N   UNL     1       0.152  -2.864   2.315  0.00  0.00    -0.265 N 
ATOM     18 BR   UNL     1      -0.019   0.218  -2.846  0.00  0.00    -0.048 Br
ATOM     19  H   UNL     1      -0.643   0.738   2.427  0.00  0.00    +0.155 HD
ENDROOT
BRANCH  17  20
ATOM     20  C   UNL     1      -0.903  -3.821   2.657  0.00  0.00    +0.082 C 
ATOM     21  C   UNL     1      -0.853  -4.462   4.045  0.00  0.00    +0.025 C 
ATOM     22  C   UNL     1      -0.502  -5.290   2.808  0.00  0.00    +0.025 C 
ENDBRANCH  17  20
TORSDOF 1
