REMARK  Name = ZINC63314241
REMARK  14 active torsions:
REMARK  status: ('A' for Active; 'I' for Inactive)
REMARK    1  A    between atoms: C_1  and  C_2
REMARK    2  A    between atoms: C_2  and  O_3
REMARK    3  A    between atoms: O_3  and  C_4
REMARK    4  A    between atoms: C_7  and  O_34
REMARK    5  A    between atoms: C_8  and  C_10
REMARK    6  A    between atoms: C_12  and  C_29
REMARK    7  A    between atoms: C_13  and  C_18
REMARK    8  A    between atoms: C_18  and  S_19
REMARK    9  A    between atoms: S_19  and  C_20
REMARK   10  A    between atoms: C_29  and  O_31
REMARK   11  A    between atoms: O_31  and  C_32
REMARK   12  A    between atoms: C_32  and  C_33
REMARK   13  A    between atoms: O_34  and  C_35
REMARK   14  A    between atoms: C_35  and  C_36
REMARK                            x       y       z     vdW  Elec       q    Type
REMARK                         _______ _______ _______ _____ _____    ______ ____
ROOT
ATOM      1  C   UNL     1       2.151  -3.981  -3.666  0.00  0.00    +0.147 C 
ATOM      2  C   UNL     1       1.241  -4.412  -4.798  0.00  0.00    +0.079 C 
ATOM      3  C   UNL     1       1.335  -3.745  -5.968  0.00  0.00    +0.034 C 
ATOM      4  N   UNL     1       2.221  -2.717  -6.125  0.00  0.00    -0.272 N 
ATOM      5  C   UNL     1       3.047  -2.296  -5.159  0.00  0.00    +0.304 C 
ATOM      6  O   UNL     1       3.801  -1.371  -5.393  0.00  0.00    -0.252 OA
ATOM      7  N   UNL     1       3.069  -2.862  -3.937  0.00  0.00    -0.288 N 
ATOM      8  H   UNL     1       2.253  -2.268  -6.984  0.00  0.00    +0.156 HD
ATOM      9  H   UNL     1       3.675  -2.540  -3.252  0.00  0.00    +0.151 HD
ENDROOT
BRANCH   1  14
ATOM     10  C   UNL     1       0.201  -1.914  -1.174  0.00  0.00    +0.121 A 
ATOM     11  C   UNL     1      -0.310  -2.896  -0.338  0.00  0.00    +0.049 A 
ATOM     12  C   UNL     1      -0.024  -4.225  -0.580  0.00  0.00    +0.049 A 
ATOM     13  C   UNL     1       0.773  -4.579  -1.658  0.00  0.00    +0.126 A 
ATOM     14  C   UNL     1       1.284  -3.597  -2.494  0.00  0.00    +0.023 A 
ATOM     15  C   UNL     1       0.994  -2.267  -2.256  0.00  0.00    +0.055 A 
BRANCH  10  16
ATOM     16  O   UNL     1      -0.080  -0.605  -0.936  0.00  0.00    -0.492 OA
BRANCH  16  18
ATOM     17  C   UNL     1      -1.107   1.200   0.300  0.00  0.00    +0.048 C 
ATOM     18  C   UNL     1      -0.902  -0.313   0.195  0.00  0.00    +0.225 C 
ENDBRANCH  16  18
ENDBRANCH  10  16
BRANCH  13  19
ATOM     19  O   UNL     1       1.055  -5.888  -1.895  0.00  0.00    -0.492 OA
BRANCH  19  20
ATOM     20  C   UNL     1       0.582  -6.837  -0.938  0.00  0.00    +0.225 C 
ATOM     21  C   UNL     1       1.095  -8.231  -1.305  0.00  0.00    +0.048 C 
ENDBRANCH  19  20
ENDBRANCH  13  19
ENDBRANCH   1  14
BRANCH   2  22
ATOM     22  C   UNL     1       0.324  -5.477  -4.635  0.00  0.00    +0.339 C 
ATOM     23  O   UNL     1       0.719  -6.628  -4.654  0.00  0.00    -0.245 OA
BRANCH  22  24
ATOM     24  O   UNL     1      -0.988  -5.217  -4.458  0.00  0.00    -0.462 OA
BRANCH  24  25
ATOM     25  C   UNL     1      -1.840  -6.332  -4.190  0.00  0.00    +0.229 C 
ATOM     26  C   UNL     1      -3.295  -5.861  -4.133  0.00  0.00    +0.048 C 
ENDBRANCH  24  25
ENDBRANCH  22  24
ENDBRANCH   2  22
BRANCH   3  27
ATOM     27  C   UNL     1       0.449  -4.142  -7.121  0.00  0.00    +0.124 C 
BRANCH  27  28
ATOM     28  S   UNL     1      -0.866  -2.909  -7.325  0.00  0.00    -0.109 S 
BRANCH  28  29
ATOM     29  C   UNL     1      -1.831  -3.525  -8.732  0.00  0.00    +0.236 C 
ATOM     30  N   UNL     1      -2.310  -4.885  -8.458  0.00  0.00    -0.355 N 
ATOM     31  C   UNL     1      -1.806  -5.668  -9.367  0.00  0.00    +0.061 A 
ATOM     32  C   UNL     1      -1.919  -7.112  -9.618  0.00  0.00    +0.027 A 
ATOM     33  C   UNL     1      -1.268  -7.658 -10.663  0.00  0.00    +0.002 A 
ATOM     34  C   UNL     1      -0.472  -6.901 -11.541  0.00  0.00    +0.002 A 
ATOM     35  C   UNL     1      -0.301  -5.571 -11.402  0.00  0.00    +0.027 A 
ATOM     36  C   UNL     1      -0.963  -4.866 -10.296  0.00  0.00    +0.061 A 
ATOM     37  N   UNL     1      -0.979  -3.619  -9.925  0.00  0.00    -0.355 N 
ATOM     38  H   UNL     1      -2.895  -5.152  -7.731  0.00  0.00    +0.162 HD
ATOM     39  H   UNL     1      -0.514  -2.885 -10.357  0.00  0.00    +0.162 HD
ENDBRANCH  28  29
ENDBRANCH  27  28
ENDBRANCH   3  27
TORSDOF 11
