REMARK  Name = ZINC08769720
REMARK  13 active torsions:
REMARK  status: ('A' for Active; 'I' for Inactive)
REMARK    1  A    between atoms: C_1  and  C_2
REMARK    2  A    between atoms: C_2  and  C_3
REMARK    3  A    between atoms: C_3  and  C_4
REMARK    4  A    between atoms: C_4  and  C_5
REMARK    5  A    between atoms: C_5  and  C_7
REMARK    6  A    between atoms: C_5  and  C_9
REMARK    7  A    between atoms: C_7  and  C_8
REMARK    8  A    between atoms: C_9  and  N_10
REMARK    9  A    between atoms: C_14  and  C_15
REMARK   10  A    between atoms: C_16  and  N_27
REMARK   11  A    between atoms: C_19  and  C_26
REMARK   12  A    between atoms: C_29  and  C_36
REMARK   13  A    between atoms: C_32  and  C_35
REMARK                            x       y       z     vdW  Elec       q    Type
REMARK                         _______ _______ _______ _____ _____    ______ ____
ROOT
ATOM      1  C   UNL     1      -0.850   1.817   3.154  0.00  0.00    +0.081 A 
ATOM      2  C   UNL     1      -0.547   1.507   1.807  0.00  0.00    +0.136 A 
ATOM      3  N   UNL     1       0.264   0.494   1.536  0.00  0.00    -0.213 NA
ATOM      4  C   UNL     1       0.814  -0.239   2.504  0.00  0.00    +0.145 A 
ATOM      5  C   UNL     1       1.672  -1.298   2.155  0.00  0.00    -0.007 A 
ATOM      6  C   UNL     1       2.236  -2.057   3.138  0.00  0.00    +0.008 A 
ATOM      7  C   UNL     1       1.954  -1.771   4.480  0.00  0.00    +0.019 A 
ATOM      8  C   UNL     1       1.126  -0.750   4.797  0.00  0.00    +0.096 A 
ATOM      9  N   UNL     1       0.557   0.015   3.822  0.00  0.00    -0.267 N 
ATOM     10  C   UNL     1      -0.264   1.028   4.173  0.00  0.00    +0.267 A 
ATOM     11  O   UNL     1      -0.497   1.259   5.347  0.00  0.00    -0.267 OA
ATOM     12  C   UNL     1       1.965  -1.592   0.707  0.00  0.00    +0.047 C 
ENDROOT
BRANCH   1  17
ATOM     13  N   UNL     1       0.323   5.449   5.117  0.00  0.00    -0.255 N 
ATOM     14  C   UNL     1       0.107   4.313   4.477  0.00  0.00    +0.258 C 
ATOM     15  O   UNL     1       1.029   3.568   4.194  0.00  0.00    -0.269 OA
ATOM     16  C   UNL     1      -1.234   3.984   4.128  0.00  0.00    +0.077 C 
ATOM     17  C   UNL     1      -1.717   2.887   3.474  0.00  0.00    +0.037 C 
ATOM     18  S   UNL     1      -2.112   5.403   4.770  0.00  0.00    -0.061 S 
ATOM     19  C   UNL     1      -0.700   6.275   5.431  0.00  0.00    +0.121 C 
ATOM     20  S   UNL     1      -0.653   7.779   6.248  0.00  0.00    -0.027 S 
BRANCH  13  21
ATOM     21  C   UNL     1       1.690   5.817   5.492  0.00  0.00    +0.118 C 
BRANCH  21  22
ATOM     22  C   UNL     1       2.380   6.493   4.305  0.00  0.00    +0.007 C 
BRANCH  22  23
ATOM     23  C   UNL     1       3.839   6.785   4.662  0.00  0.00    +0.002 C 
ATOM     24  C   UNL     1       4.591   5.467   4.853  0.00  0.00    +0.004 C 
ENDBRANCH  22  23
BRANCH  22  25
ATOM     25  C   UNL     1       1.663   7.804   3.977  0.00  0.00    +0.005 C 
BRANCH  25  26
ATOM     26  C   UNL     1       2.273   8.418   2.716  0.00  0.00    +0.000 C 
BRANCH  26  28
ATOM     27  C   UNL     1       2.166  10.342   1.126  0.00  0.00    +0.004 C 
ATOM     28  C   UNL     1       1.556   9.729   2.388  0.00  0.00    -0.003 C 
ENDBRANCH  26  28
ENDBRANCH  25  26
ENDBRANCH  22  25
ENDBRANCH  21  22
ENDBRANCH  13  21
ENDBRANCH   1  17
BRANCH   2  29
ATOM     29  N   UNL     1      -1.096   2.249   0.784  0.00  0.00    -0.314 N 
ATOM     30  C   UNL     1      -2.307   1.605   0.258  0.00  0.00    +0.109 C 
ATOM     31  C   UNL     1      -2.968   2.524  -0.771  0.00  0.00    +0.004 C 
ATOM     32  C   UNL     1      -1.981   2.803  -1.908  0.00  0.00    +0.009 C 
ATOM     33  C   UNL     1      -0.710   3.429  -1.327  0.00  0.00    +0.004 C 
ATOM     34  C   UNL     1      -0.114   2.483  -0.282  0.00  0.00    +0.109 C 
ATOM     35  C   UNL     1       0.306   3.656  -2.449  0.00  0.00    +0.009 C 
ATOM     36  C   UNL     1      -4.217   1.843  -1.335  0.00  0.00    +0.009 C 
ENDBRANCH   2  29
TORSDOF 8
