REMARK  Name = ZINC33147646
REMARK  7 active torsions:
REMARK  status: ('A' for Active; 'I' for Inactive)
REMARK    1  A    between atoms: C_1  and  C_2
REMARK    2  A    between atoms: C_3  and  C_14
REMARK    3  A    between atoms: C_4  and  C_13
REMARK    4  A    between atoms: N_5  and  C_7
REMARK    5  A    between atoms: C_16  and  C_20
REMARK    6  A    between atoms: N_22  and  N_23
REMARK    7  A    between atoms: C_24  and  C_25
REMARK                            x       y       z     vdW  Elec       q    Type
REMARK                         _______ _______ _______ _____ _____    ______ ____
ROOT
ATOM      1  C   UNL     1      -0.787   5.928   0.699  0.00  0.00    +0.097 A 
ATOM      2  C   UNL     1      -1.925   5.122   0.845  0.00  0.00    +0.062 A 
ATOM      3  C   UNL     1      -1.585   3.845   0.450  0.00  0.00    +0.122 A 
ATOM      4  N   UNL     1      -0.274   3.875   0.065  0.00  0.00    -0.272 N 
ATOM      5  H   UNL     1       0.214   2.958  -0.296  0.00  0.00    +0.189 HD
ATOM      6  N   UNL     1       0.194   5.184   0.232  0.00  0.00    -0.173 NA
ENDROOT
BRANCH   1   9
ATOM      7  C   UNL     1      -2.900   8.134  -0.147  0.00  0.00    +0.068 C 
ATOM      8  C   UNL     1      -1.637   8.364   0.643  0.00  0.00    +0.070 A 
ATOM      9  C   UNL     1      -0.704   7.377   1.014  0.00  0.00    +0.046 A 
ATOM     10  C   UNL     1       0.288   7.993   1.720  0.00  0.00    +0.051 A 
ATOM     11  N   UNL     1      -0.010   9.310   1.778  0.00  0.00    -0.236 N 
ATOM     12  N   UNL     1      -1.218   9.514   1.101  0.00  0.00    -0.171 NA
ATOM     13  C   UNL     1       1.498   7.326   2.322  0.00  0.00    +0.066 C 
BRANCH  11  14
ATOM     14  C   UNL     1       0.755  10.299   2.411  0.00  0.00    +0.066 A 
ATOM     15  C   UNL     1       0.132  11.288   3.160  0.00  0.00    +0.028 A 
ATOM     16  C   UNL     1       0.889  12.258   3.787  0.00  0.00    +0.002 A 
ATOM     17  C   UNL     1       2.266  12.251   3.661  0.00  0.00    +0.000 A 
ATOM     18  C   UNL     1       2.889  11.270   2.912  0.00  0.00    +0.002 A 
ATOM     19  C   UNL     1       2.138  10.294   2.287  0.00  0.00    +0.028 A 
ENDBRANCH  11  14
ENDBRANCH   1   9
BRANCH   3  20
ATOM     20  C   UNL     1      -2.471   2.671   0.440  0.00  0.00    +0.281 C 
ATOM     21  O   UNL     1      -3.649   2.794   0.720  0.00  0.00    -0.267 OA
ATOM     22  N   UNL     1      -1.979   1.458   0.119  0.00  0.00    -0.202 N 
ATOM     23  H   UNL     1      -0.935   1.359  -0.213  0.00  0.00    +0.178 HD
BRANCH  22  24
ATOM     24  N   UNL     1      -2.796   0.324   0.210  0.00  0.00    -0.187 NA
ATOM     25  C   UNL     1      -2.288  -0.859   0.033  0.00  0.00    +0.140 C 
BRANCH  25  26
ATOM     26  C   UNL     1      -0.841  -1.071   0.202  0.00  0.00    +0.020 A 
ATOM     27  C   UNL     1       0.052  -0.197   0.739  0.00  0.00    +0.093 A 
ATOM     28  N   UNL     1       1.298  -0.747   0.727  0.00  0.00    -0.360 N 
ATOM     29  H   UNL     1       2.154  -0.181   1.125  0.00  0.00    +0.165 HD
ATOM     30  C   UNL     1       1.257  -2.011   0.176  0.00  0.00    +0.047 A 
ATOM     31  C   UNL     1      -0.077  -2.273  -0.177  0.00  0.00    +0.008 A 
ATOM     32  C   UNL     1      -0.417  -3.491  -0.762  0.00  0.00    +0.010 A 
ATOM     33  C   UNL     1       0.560  -4.434  -0.991  0.00  0.00    +0.001 A 
ATOM     34  C   UNL     1       1.878  -4.176  -0.643  0.00  0.00    +0.002 A 
ATOM     35  C   UNL     1       2.229  -2.976  -0.064  0.00  0.00    +0.026 A 
ENDBRANCH  25  26
ENDBRANCH  22  24
ENDBRANCH   3  20
TORSDOF 5
