REMARK  Name = ZINC05459532
REMARK  2 active torsions:
REMARK  status: ('A' for Active; 'I' for Inactive)
REMARK    1  A    between atoms: C_10  and  C_23
REMARK    2  A    between atoms: C_13  and  C_16
REMARK                            x       y       z     vdW  Elec       q    Type
REMARK                         _______ _______ _______ _____ _____    ______ ____
ROOT
ATOM      1  C   UNL     1      -0.017   1.373   0.010  0.00  0.00    +0.002 A 
ATOM      2  C   UNL     1       1.169   2.091   0.002  0.00  0.00    +0.002 A 
ATOM      3  C   UNL     1       2.384   1.437  -0.013  0.00  0.00    +0.028 A 
ATOM      4  C   UNL     1       2.423   0.051  -0.021  0.00  0.00    +0.069 A 
ATOM      5  C   UNL     1       1.223  -0.682  -0.014  0.00  0.00    +0.065 A 
ATOM      6  C   UNL     1       0.002  -0.004   0.002  0.00  0.00    +0.028 A 
ATOM      7  N   UNL     1       1.556  -2.002  -0.023  0.00  0.00    -0.327 N 
ATOM      8  C   UNL     1       2.853  -2.124  -0.038  0.00  0.00    +0.175 A 
ATOM      9  N   UNL     1       3.438  -0.883  -0.036  0.00  0.00    -0.306 N 
ATOM     10  C   UNL     1       4.885  -0.658  -0.046  0.00  0.00    +0.122 C 
ATOM     11  C   UNL     1       5.588  -1.942   0.412  0.00  0.00    +0.057 C 
ATOM     12  C   UNL     1       5.037  -3.140  -0.368  0.00  0.00    +0.106 C 
ATOM     13  N   UNL     1       3.604  -3.291  -0.054  0.00  0.00    -0.309 N 
ATOM     14  H   UNL     1       3.209  -4.157   0.131  0.00  0.00    +0.149 HD
ATOM     15  H   UNL     1       0.924  -2.739  -0.020  0.00  0.00    +0.169 HD
ENDROOT
BRANCH  12  16
ATOM     16  C   UNL     1       5.212  -2.904  -1.847  0.00  0.00    -0.027 A 
ATOM     17  C   UNL     1       4.324  -2.092  -2.527  0.00  0.00    +0.007 A 
ATOM     18  C   UNL     1       4.484  -1.876  -3.882  0.00  0.00    +0.020 A 
ATOM     19  C   UNL     1       5.533  -2.471  -4.559  0.00  0.00    +0.041 A 
ATOM     20  C   UNL     1       6.422  -3.284  -3.878  0.00  0.00    +0.020 A 
ATOM     21  C   UNL     1       6.265  -3.495  -2.521  0.00  0.00    +0.007 A 
ATOM     22 CL   UNL     1       5.734  -2.200  -6.261  0.00  0.00    -0.084 Cl
ENDBRANCH  12  16
BRANCH  10  23
ATOM     23  C   UNL     1       5.228   0.471   0.891  0.00  0.00    -0.024 A 
ATOM     24  C   UNL     1       4.921   0.370   2.235  0.00  0.00    +0.007 A 
ATOM     25  C   UNL     1       5.235   1.406   3.095  0.00  0.00    +0.020 A 
ATOM     26  C   UNL     1       5.856   2.543   2.610  0.00  0.00    +0.041 A 
ATOM     27  C   UNL     1       6.163   2.643   1.265  0.00  0.00    +0.020 A 
ATOM     28  C   UNL     1       5.854   1.605   0.407  0.00  0.00    +0.007 A 
ATOM     29 CL   UNL     1       6.251   3.844   3.690  0.00  0.00    -0.084 Cl
ENDBRANCH  10  23
TORSDOF 2
