REMARK  Name = ZINC39550751
REMARK  6 active torsions:
REMARK  status: ('A' for Active; 'I' for Inactive)
REMARK    1  A    between atoms: C_4  and  C_7
REMARK    2  A    between atoms: C_7  and  C_8
REMARK    3  A    between atoms: C_8  and  C_15
REMARK    4  A    between atoms: N_18  and  C_21
REMARK    5  A    between atoms: C_21  and  C_22
REMARK    6  A    between atoms: C_27  and  C_28
REMARK                            x       y       z     vdW  Elec       q    Type
REMARK                         _______ _______ _______ _____ _____    ______ ____
ROOT
ATOM      1  C   UNL     1       5.532  -1.663   1.410  0.00  0.00    +0.018 C 
ATOM      2  C   UNL     1       5.422  -3.008   0.686  0.00  0.00    -0.013 C 
ATOM      3  C   UNL     1       6.764  -3.738   0.769  0.00  0.00    -0.078 C 
ATOM      4  N   UNL     1       7.114  -3.965   2.176  0.00  0.00    +0.380 N 
ATOM      5  C   UNL     1       7.292  -2.679   2.860  0.00  0.00    -0.078 C 
ATOM      6  C   UNL     1       5.970  -1.908   2.857  0.00  0.00    -0.013 C 
ATOM      7  H   UNL     1       6.375  -4.485   2.626  0.00  0.00    -0.082 HD
ENDROOT
BRANCH   1   8
ATOM      8  C   UNL     1       4.171  -0.963   1.399  0.00  0.00    +0.119 C 
ATOM      9  C   UNL     1       4.229   0.335   2.180  0.00  0.00    +0.244 C 
ATOM     10  O   UNL     1       4.923   1.301   1.944  0.00  0.00    -0.273 OA
ATOM     11  N   UNL     1       3.349   0.192   3.191  0.00  0.00    -0.238 N 
ATOM     12  C   UNL     1       2.750  -1.004   3.157  0.00  0.00    +0.307 C 
ATOM     13  O   UNL     1       1.917  -1.365   3.966  0.00  0.00    -0.252 OA
ATOM     14  N   UNL     1       3.172  -1.762   2.129  0.00  0.00    -0.284 N 
ATOM     15  H   UNL     1       3.173   0.871   3.860  0.00  0.00    +0.159 HD
ATOM     16  H   UNL     1       2.875  -2.659   1.910  0.00  0.00    +0.151 HD
BRANCH   8  17
ATOM     17  C   UNL     1       3.711  -0.707  -0.038  0.00  0.00    +0.070 C 
BRANCH  17  21
ATOM     18  C   UNL     1      -0.017   1.378   0.010  0.00  0.00    +0.000 A 
ATOM     19  C   UNL     1       1.171   2.086   0.002  0.00  0.00    +0.000 A 
ATOM     20  C   UNL     1       2.377   1.411  -0.013  0.00  0.00    +0.004 A 
ATOM     21  C   UNL     1       2.396   0.029  -0.020  0.00  0.00    -0.045 A 
ATOM     22  C   UNL     1       1.208  -0.679  -0.012  0.00  0.00    +0.004 A 
ATOM     23  C   UNL     1       0.002  -0.004   0.002  0.00  0.00    +0.000 A 
ENDBRANCH  17  21
ENDBRANCH   8  17
ENDBRANCH   1   8
BRANCH   4  24
ATOM     24  C   UNL     1       8.364  -4.734   2.250  0.00  0.00    -0.063 C 
BRANCH  24  25
ATOM     25  C   UNL     1       8.665  -5.079   3.710  0.00  0.00    +0.066 C 
ATOM     26  C   UNL     1       7.656  -6.078   4.242  0.00  0.00    +0.115 C 
ATOM     27  N   UNL     1       8.331  -7.132   4.567  0.00  0.00    -0.161 NA
ATOM     28  N   UNL     1       9.694  -6.987   4.325  0.00  0.00    -0.153 NA
ATOM     29  C   UNL     1       9.986  -5.815   3.824  0.00  0.00    +0.077 C 
BRANCH  29  30
ATOM     30  C   UNL     1      11.317  -5.313   3.446  0.00  0.00    -0.001 A 
ATOM     31  C   UNL     1      11.460  -4.024   2.923  0.00  0.00    +0.010 A 
ATOM     32  C   UNL     1      12.710  -3.561   2.572  0.00  0.00    +0.001 A 
ATOM     33  C   UNL     1      13.822  -4.369   2.736  0.00  0.00    +0.000 A 
ATOM     34  C   UNL     1      13.689  -5.646   3.252  0.00  0.00    +0.001 A 
ATOM     35  C   UNL     1      12.446  -6.121   3.614  0.00  0.00    +0.010 A 
ENDBRANCH  29  30
ENDBRANCH  24  25
ENDBRANCH   4  24
TORSDOF 6
