REMARK  Name = ZINC39686735
REMARK  10 active torsions:
REMARK  status: ('A' for Active; 'I' for Inactive)
REMARK    1  A    between atoms: C_1  and  C_2
REMARK    2  A    between atoms: C_3  and  C_13
REMARK    3  A    between atoms: C_4  and  C_7
REMARK    4  A    between atoms: C_17  and  C_26
REMARK    5  A    between atoms: N_28  and  C_29
REMARK    6  A    between atoms: C_29  and  C_31
REMARK    7  A    between atoms: C_29  and  C_32
REMARK    8  A    between atoms: C_32  and  C_33
REMARK    9  A    between atoms: C_38  and  O_39
REMARK   10  A    between atoms: O_39  and  C_40
REMARK                            x       y       z     vdW  Elec       q    Type
REMARK                         _______ _______ _______ _____ _____    ______ ____
ROOT
ATOM      1  C   UNL     1      -1.844  -0.059  -0.291  0.00  0.00    +0.252 C 
ATOM      2  O   UNL     1      -2.544   0.037  -1.281  0.00  0.00    -0.270 OA
ATOM      3  N   UNL     1      -2.391   0.064   0.935  0.00  0.00    -0.296 N 
ATOM      4  C   UNL     1      -1.695   0.077   2.243  0.00  0.00    +0.121 C 
ATOM      5  C   UNL     1      -2.439   1.148   3.071  0.00  0.00    +0.100 C 
ATOM      6  C   UNL     1      -3.837   1.235   2.435  0.00  0.00    -0.004 C 
ATOM      7  C   UNL     1      -3.825   0.225   1.278  0.00  0.00    +0.115 C 
ATOM      8  C   UNL     1      -4.086   2.640   1.897  0.00  0.00    -0.010 C 
ATOM      9  C   UNL     1      -5.503   2.717   1.320  0.00  0.00    -0.082 C 
ATOM     10  N   UNL     1      -6.478   2.393   2.369  0.00  0.00    +0.379 N 
ATOM     11  C   UNL     1      -6.290   1.008   2.816  0.00  0.00    -0.082 C 
ATOM     12  C   UNL     1      -4.907   0.858   3.455  0.00  0.00    -0.010 C 
ATOM     13  H   UNL     1      -6.349   3.018   3.151  0.00  0.00    -0.086 HD
ATOM     14  H   UNL     1      -7.412   2.504   2.003  0.00  0.00    -0.086 HD
ENDROOT
BRANCH   1  17
ATOM     15  C   UNL     1       0.358   2.112  -0.741  0.00  0.00    +0.090 C 
ATOM     16  C   UNL     1       0.573   0.625  -0.627  0.00  0.00    +0.147 A 
ATOM     17  C   UNL     1      -0.400  -0.310  -0.431  0.00  0.00    +0.106 A 
ATOM     18  C   UNL     1       0.271  -1.618  -0.386  0.00  0.00    +0.126 A 
ATOM     19  N   UNL     1       1.550  -1.395  -0.551  0.00  0.00    -0.077 NA
ATOM     20  O   UNL     1       1.748  -0.004  -0.708  0.00  0.00    -0.359 OA
BRANCH  18  21
ATOM     21  C   UNL     1      -0.377  -2.938  -0.191  0.00  0.00    +0.004 A 
ATOM     22  C   UNL     1      -1.490  -3.054   0.640  0.00  0.00    +0.010 A 
ATOM     23  C   UNL     1      -2.090  -4.284   0.817  0.00  0.00    +0.001 A 
ATOM     24  C   UNL     1      -1.588  -5.401   0.173  0.00  0.00    +0.000 A 
ATOM     25  C   UNL     1      -0.483  -5.291  -0.652  0.00  0.00    +0.001 A 
ATOM     26  C   UNL     1       0.121  -4.065  -0.842  0.00  0.00    +0.010 A 
ENDBRANCH  18  21
ENDBRANCH   1  17
BRANCH   5  27
ATOM     27  C   UNL     1      -1.732   2.475   2.971  0.00  0.00    +0.218 C 
ATOM     28  O   UNL     1      -1.054   2.729   1.997  0.00  0.00    -0.275 OA
ATOM     29  N   UNL     1      -1.851   3.379   3.963  0.00  0.00    -0.312 N 
ATOM     30  H   UNL     1      -2.333   3.149   4.773  0.00  0.00    +0.149 HD
BRANCH  29  31
ATOM     31  C   UNL     1      -1.252   4.708   3.819  0.00  0.00    +0.074 C 
ATOM     32  C   UNL     1      -2.253   5.647   3.143  0.00  0.00    +0.028 C 
BRANCH  31  33
ATOM     33  C   UNL     1      -0.890   5.257   5.200  0.00  0.00    +0.060 C 
BRANCH  33  34
ATOM     34  C   UNL     1       0.195   4.408   5.810  0.00  0.00    -0.004 A 
ATOM     35  C   UNL     1      -0.134   3.378   6.670  0.00  0.00    +0.007 A 
ATOM     36  C   UNL     1       0.862   2.599   7.229  0.00  0.00    +0.000 A 
ATOM     37  C   UNL     1       2.189   2.849   6.930  0.00  0.00    +0.004 A 
ATOM     38  C   UNL     1       2.522   3.877   6.071  0.00  0.00    +0.046 A 
ATOM     39  C   UNL     1       1.525   4.657   5.503  0.00  0.00    +0.123 A 
BRANCH  39  40
ATOM     40  O   UNL     1       1.851   5.666   4.653  0.00  0.00    -0.495 OA
ATOM     41  C   UNL     1       3.240   5.864   4.384  0.00  0.00    +0.277 C 
ENDBRANCH  39  40
ENDBRANCH  33  34
ENDBRANCH  31  33
ENDBRANCH  29  31
ENDBRANCH   5  27
TORSDOF 7
