REMARK  Name = ZINC45878758
REMARK  7 active torsions:
REMARK  status: ('A' for Active; 'I' for Inactive)
REMARK    1  A    between atoms: C_1  and  N_2
REMARK    2  A    between atoms: N_2  and  C_3
REMARK    3  A    between atoms: C_3  and  C_4
REMARK    4  A    between atoms: C_7  and  O_10
REMARK    5  A    between atoms: O_10  and  C_11
REMARK    6  A    between atoms: N_16  and  C_17
REMARK    7  A    between atoms: C_17  and  C_18
REMARK                            x       y       z     vdW  Elec       q    Type
REMARK                         _______ _______ _______ _____ _____    ______ ____
ROOT
ATOM      1  C   UNL     1       0.070   1.456   0.009  0.00  0.00    +0.134 C 
ATOM      2  N   UNL     1       0.065  -0.009   0.000  0.00  0.00    -0.284 N 
ATOM      3  C   UNL     1       0.036  -0.675  -1.171  0.00  0.00    +0.303 C 
ATOM      4  O   UNL     1       0.032  -1.891  -1.178  0.00  0.00    -0.253 OA
ATOM      5  N   UNL     1       0.010   0.006  -2.333  0.00  0.00    -0.295 N 
ATOM      6  H   UNL     1       0.013   0.976  -2.328  0.00  0.00    +0.151 HD
ENDROOT
BRANCH   2   7
ATOM      7  C   UNL     1       0.093  -0.749   1.264  0.00  0.00    +0.144 C 
BRANCH   7   8
ATOM      8  C   UNL     1      -1.317  -0.999   1.731  0.00  0.00    -0.030 A 
ATOM      9  C   UNL     1      -1.948  -0.077   2.546  0.00  0.00    +0.009 A 
ATOM     10  C   UNL     1      -3.241  -0.303   2.976  0.00  0.00    +0.046 A 
ATOM     11  C   UNL     1      -3.907  -1.457   2.589  0.00  0.00    +0.127 A 
ATOM     12  C   UNL     1      -3.272  -2.381   1.771  0.00  0.00    +0.046 A 
ATOM     13  C   UNL     1      -1.981  -2.147   1.340  0.00  0.00    +0.009 A 
BRANCH  11  14
ATOM     14  O   UNL     1      -5.179  -1.683   3.011  0.00  0.00    -0.434 OA
BRANCH  14  15
ATOM     15  C   UNL     1      -5.803  -2.892   2.574  0.00  0.00    +0.541 C 
ATOM     16  F   UNL     1      -5.862  -2.907   1.176  0.00  0.00    -0.166 F 
ATOM     17  F   UNL     1      -5.059  -3.989   3.021  0.00  0.00    -0.166 F 
ENDBRANCH  14  15
ENDBRANCH  11  14
ENDBRANCH   7   8
ENDBRANCH   2   7
BRANCH   5  18
ATOM     18  C   UNL     1      -0.022  -0.719  -3.606  0.00  0.00    +0.142 C 
BRANCH  18  19
ATOM     19  C   UNL     1      -0.047   0.268  -4.745  0.00  0.00    -0.014 A 
ATOM     20  C   UNL     1      -1.256   0.735  -5.243  0.00  0.00    +0.010 A 
ATOM     21  C   UNL     1      -1.234   1.639  -6.289  0.00  0.00    +0.042 A 
ATOM     22  C   UNL     1      -0.008   2.048  -6.804  0.00  0.00    +0.099 A 
ATOM     23  N   UNL     1       1.124   1.580  -6.302  0.00  0.00    -0.349 N 
ATOM     24  C   UNL     1       1.133   0.720  -5.301  0.00  0.00    +0.089 A 
ATOM     25  N   UNL     1       0.029   2.956  -7.856  0.00  0.00    -0.317 N 
ATOM     26  C   UNL     1       1.308   3.502  -8.330  0.00  0.00    +0.106 C 
ATOM     27  C   UNL     1       1.416   3.267  -9.839  0.00  0.00    +0.019 C 
ATOM     28  C   UNL     1       0.186   3.857 -10.533  0.00  0.00    +0.003 C 
ATOM     29  C   UNL     1      -1.075   3.155 -10.023  0.00  0.00    +0.019 C 
ATOM     30  C   UNL     1      -1.211   3.384  -8.519  0.00  0.00    +0.106 C 
ATOM     31  H   UNL     1       1.967   1.878  -6.677  0.00  0.00    +0.167 HD
ENDBRANCH  18  19
ENDBRANCH   5  18
TORSDOF 6
