REMARK  Name = ZINC20780822
REMARK  6 active torsions:
REMARK  status: ('A' for Active; 'I' for Inactive)
REMARK    1  A    between atoms: C_1  and  C_2
REMARK    2  A    between atoms: C_3  and  C_23
REMARK    3  A    between atoms: C_7  and  C_8
REMARK    4  A    between atoms: C_12  and  C_14
REMARK    5  A    between atoms: N_20  and  C_21
REMARK    6  A    between atoms: N_20  and  C_22
REMARK                            x       y       z     vdW  Elec       q    Type
REMARK                         _______ _______ _______ _____ _____    ______ ____
ROOT
ATOM      1  C   UNL     1      -3.869   5.170   0.167  0.00  0.00    +0.001 A 
ATOM      2  C   UNL     1      -3.317   6.447   0.062  0.00  0.00    +0.010 A 
ATOM      3  C   UNL     1      -1.950   6.603  -0.053  0.00  0.00    +0.001 A 
ATOM      4  C   UNL     1      -1.122   5.498  -0.066  0.00  0.00    +0.010 A 
ATOM      5  C   UNL     1      -1.662   4.217   0.038  0.00  0.00    +0.003 A 
ATOM      6  C   UNL     1      -3.039   4.053   0.149  0.00  0.00    +0.020 A 
ENDROOT
BRANCH   1  13
ATOM      7  C   UNL     1      -5.449   7.127   1.652  0.00  0.00    +0.048 C 
ATOM      8  C   UNL     1      -6.100   5.935   0.999  0.00  0.00    -0.003 A 
ATOM      9  C   UNL     1      -7.467   5.738   1.087  0.00  0.00    +0.047 A 
ATOM     10  N   UNL     1      -8.007   4.681   0.503  0.00  0.00    -0.219 NA
ATOM     11  C   UNL     1      -7.260   3.813  -0.164  0.00  0.00    +0.218 A 
ATOM     12  N   UNL     1      -5.950   3.967  -0.277  0.00  0.00    -0.214 NA
ATOM     13  C   UNL     1      -5.337   5.003   0.290  0.00  0.00    +0.079 A 
ATOM     14  N   UNL     1      -7.864   2.720  -0.760  0.00  0.00    -0.306 N 
ATOM     15  C   UNL     1      -9.313   2.535  -0.651  0.00  0.00    +0.132 C 
ATOM     16  C   UNL     1      -7.056   1.749  -1.501  0.00  0.00    +0.132 C 
ATOM     17  C   UNL     1      -8.330   6.717   1.841  0.00  0.00    +0.066 C 
ENDBRANCH   1  13
BRANCH   5  18
ATOM     18  C   UNL     1      -0.770   3.031   0.024  0.00  0.00    +0.092 A 
ATOM     19  C   UNL     1       0.638   3.052   0.011  0.00  0.00    +0.049 A 
ATOM     20  C   UNL     1       1.071   1.773   0.001  0.00  0.00    +0.105 A 
ATOM     21  N   UNL     1      -0.011   0.966   0.007  0.00  0.00    -0.284 N 
ATOM     22  H   UNL     1       0.117  -0.127   0.005  0.00  0.00    +0.188 HD
ATOM     23  N   UNL     1      -1.156   1.772   0.017  0.00  0.00    -0.174 NA
ENDBRANCH   5  18
TORSDOF 2
