REMARK  Name = ZINC09395427
REMARK  7 active torsions:
REMARK  status: ('A' for Active; 'I' for Inactive)
REMARK    1  A    between atoms: C_1  and  C_2
REMARK    2  A    between atoms: C_2  and  C_4
REMARK    3  A    between atoms: C_2  and  S_10
REMARK    4  A    between atoms: S_10  and  C_11
REMARK    5  A    between atoms: C_14  and  C_22
REMARK    6  A    between atoms: N_15  and  C_16
REMARK    7  A    between atoms: C_24  and  C_32
REMARK                            x       y       z     vdW  Elec       q    Type
REMARK                         _______ _______ _______ _____ _____    ______ ____
ROOT
ATOM      1  C   UNL     1      -0.018  -0.767   2.499  0.00  0.00    +0.197 A 
ATOM      2  N   UNL     1      -0.681  -1.363   1.531  0.00  0.00    -0.122 NA
ATOM      3  N   UNL     1      -0.786  -2.620   1.775  0.00  0.00    -0.128 NA
ATOM      4  C   UNL     1      -0.204  -2.906   2.919  0.00  0.00    +0.170 A 
ATOM      5  N   UNL     1       0.306  -1.726   3.418  0.00  0.00    -0.270 N 
ENDROOT
BRANCH   4   6
ATOM      6  C   UNL     1      -0.114  -4.235   3.549  0.00  0.00    +0.031 A 
ATOM      7  C   UNL     1      -0.417  -4.421   4.894  0.00  0.00    +0.040 A 
ATOM      8  C   UNL     1      -0.319  -5.700   5.450  0.00  0.00    +0.072 A 
ATOM      9  N   UNL     1       0.054  -6.749   4.743  0.00  0.00    -0.247 NA
ATOM     10  C   UNL     1       0.363  -6.664   3.447  0.00  0.00    +0.072 A 
ATOM     11  C   UNL     1       0.291  -5.415   2.782  0.00  0.00    +0.011 A 
ATOM     12  C   UNL     1       0.621  -5.328   1.426  0.00  0.00    +0.011 A 
ATOM     13  C   UNL     1       1.000  -6.452   0.751  0.00  0.00    +0.001 A 
ATOM     14  C   UNL     1       1.067  -7.683   1.398  0.00  0.00    +0.002 A 
ATOM     15  C   UNL     1       0.757  -7.801   2.719  0.00  0.00    +0.028 A 
BRANCH   8  16
ATOM     16  C   UNL     1      -0.645  -5.883   6.885  0.00  0.00    +0.000 A 
ATOM     17  C   UNL     1      -1.036  -4.792   7.659  0.00  0.00    +0.010 A 
ATOM     18  C   UNL     1      -1.343  -4.969   8.992  0.00  0.00    +0.001 A 
ATOM     19  C   UNL     1      -1.252  -6.226   9.564  0.00  0.00    +0.000 A 
ATOM     20  C   UNL     1      -0.860  -7.311   8.803  0.00  0.00    +0.001 A 
ATOM     21  C   UNL     1      -0.556  -7.147   7.467  0.00  0.00    +0.010 A 
ENDBRANCH   8  16
ENDBRANCH   4   6
BRANCH   5  22
ATOM     22  C   UNL     1       1.010  -1.547   4.617  0.00  0.00    +0.051 A 
ATOM     23  C   UNL     1       2.268  -2.112   4.775  0.00  0.00    +0.026 A 
ATOM     24  C   UNL     1       2.963  -1.930   5.955  0.00  0.00    +0.002 A 
ATOM     25  C   UNL     1       2.401  -1.194   6.983  0.00  0.00    +0.000 A 
ATOM     26  C   UNL     1       1.146  -0.634   6.830  0.00  0.00    +0.002 A 
ATOM     27  C   UNL     1       0.449  -0.809   5.650  0.00  0.00    +0.026 A 
ENDBRANCH   5  22
BRANCH   1  28
ATOM     28  S   UNL     1       0.373   0.948   2.596  0.00  0.00    -0.073 S 
BRANCH  28  30
ATOM     29  C   UNL     1       0.360   0.903  -0.135  0.00  0.00    +0.029 C 
ATOM     30  C   UNL     1      -0.373   1.529   1.053  0.00  0.00    +0.137 C 
BRANCH  30  31
ATOM     31  C   UNL     1      -0.265   3.030   0.976  0.00  0.00    +0.233 C 
ATOM     32  O   UNL     1       0.611   3.607   1.585  0.00  0.00    -0.274 OA
ATOM     33  N   UNL     1      -1.143   3.731   0.231  0.00  0.00    -0.239 N 
ATOM     34  C   UNL     1      -1.046   5.074   0.162  0.00  0.00    +0.303 C 
ATOM     35  O   UNL     1      -0.168   5.652   0.772  0.00  0.00    -0.253 OA
ATOM     36  N   UNL     1      -1.923   5.775  -0.583  0.00  0.00    -0.313 N 
ATOM     37  H   UNL     1      -1.843   3.270  -0.256  0.00  0.00    +0.159 HD
ATOM     38  H   UNL     1      -2.624   5.314  -1.069  0.00  0.00    +0.146 HD
ATOM     39  H   UNL     1      -1.853   6.742  -0.632  0.00  0.00    +0.146 HD
ENDBRANCH  30  31
ENDBRANCH  28  30
ENDBRANCH   1  28
TORSDOF 6
