REMARK  Name = ZINC45067756
REMARK  9 active torsions:
REMARK  status: ('A' for Active; 'I' for Inactive)
REMARK    1  A    between atoms: C_1  and  C_2
REMARK    2  A    between atoms: C_2  and  C_4
REMARK    3  A    between atoms: C_2  and  O_33
REMARK    4  A    between atoms: C_7  and  S_15
REMARK    5  A    between atoms: N_8  and  C_9
REMARK    6  A    between atoms: S_15  and  C_16
REMARK    7  A    between atoms: C_16  and  C_17
REMARK    8  A    between atoms: N_19  and  C_20
REMARK    9  A    between atoms: O_33  and  C_34
REMARK                            x       y       z     vdW  Elec       q    Type
REMARK                         _______ _______ _______ _____ _____    ______ ____
ROOT
ATOM      1  C   UNL     1       0.693  -0.727   1.265  0.00  0.00    +0.179 A 
ATOM      2  N   UNL     1       0.227  -0.565   2.471  0.00  0.00    -0.129 NA
ATOM      3  N   UNL     1       1.011  -1.117   3.326  0.00  0.00    -0.122 NA
ATOM      4  C   UNL     1       2.030  -1.668   2.709  0.00  0.00    +0.197 A 
ATOM      5  N   UNL     1       1.857  -1.441   1.371  0.00  0.00    -0.271 N 
ENDROOT
BRANCH   5   6
ATOM      6  C   UNL     1       2.698  -1.851   0.326  0.00  0.00    +0.050 A 
ATOM      7  C   UNL     1       2.241  -2.759  -0.619  0.00  0.00    +0.026 A 
ATOM      8  C   UNL     1       3.072  -3.160  -1.647  0.00  0.00    +0.002 A 
ATOM      9  C   UNL     1       4.358  -2.659  -1.735  0.00  0.00    +0.000 A 
ATOM     10  C   UNL     1       4.816  -1.754  -0.795  0.00  0.00    +0.002 A 
ATOM     11  C   UNL     1       3.987  -1.344   0.232  0.00  0.00    +0.026 A 
ENDBRANCH   5   6
BRANCH   1  13
ATOM     12  C   UNL     1       0.290   1.280  -0.134  0.00  0.00    +0.060 C 
ATOM     13  C   UNL     1       0.064  -0.228  -0.010  0.00  0.00    +0.238 C 
BRANCH  13  14
ATOM     14  O   UNL     1      -1.339  -0.499   0.012  0.00  0.00    -0.481 OA
BRANCH  14  15
ATOM     15  C   UNL     1      -1.965  -0.607  -1.189  0.00  0.00    +0.122 A 
ATOM     16  C   UNL     1      -1.270  -0.349  -2.361  0.00  0.00    +0.045 A 
ATOM     17  C   UNL     1      -1.909  -0.460  -3.581  0.00  0.00    +0.004 A 
ATOM     18  C   UNL     1      -3.241  -0.827  -3.634  0.00  0.00    +0.000 A 
ATOM     19  C   UNL     1      -3.937  -1.084  -2.466  0.00  0.00    +0.004 A 
ATOM     20  C   UNL     1      -3.300  -0.981  -1.245  0.00  0.00    +0.045 A 
ENDBRANCH  14  15
ENDBRANCH  13  14
ENDBRANCH   1  13
BRANCH   4  21
ATOM     21  S   UNL     1       3.365  -2.539   3.460  0.00  0.00    -0.076 S 
BRANCH  21  22
ATOM     22  C   UNL     1       2.983  -2.483   5.233  0.00  0.00    +0.173 C 
BRANCH  22  23
ATOM     23  C   UNL     1       4.060  -3.203   6.002  0.00  0.00    +0.224 C 
ATOM     24  O   UNL     1       4.994  -3.704   5.412  0.00  0.00    -0.275 OA
ATOM     25  N   UNL     1       3.986  -3.290   7.345  0.00  0.00    -0.304 N 
ATOM     26  H   UNL     1       3.240  -2.889   7.816  0.00  0.00    +0.150 HD
BRANCH  25  27
ATOM     27  C   UNL     1       5.034  -3.989   8.092  0.00  0.00    +0.135 C 
ATOM     28  C   UNL     1       4.700  -5.457   8.205  0.00  0.00    -0.015 A 
ATOM     29  C   UNL     1       4.514  -6.439   7.256  0.00  0.00    +0.006 A 
ATOM     30  C   UNL     1       4.209  -7.731   7.647  0.00  0.00    +0.000 A 
ATOM     31  C   UNL     1       4.091  -8.040   8.991  0.00  0.00    +0.001 A 
ATOM     32  C   UNL     1       4.276  -7.063   9.947  0.00  0.00    +0.009 A 
ATOM     33  C   UNL     1       4.584  -5.757   9.560  0.00  0.00    -0.012 A 
ATOM     34  C   UNL     1       4.830  -4.532  10.361  0.00  0.00    -0.012 A 
ATOM     35  C   UNL     1       5.101  -3.467   9.507  0.00  0.00    -0.015 A 
ATOM     36  C   UNL     1       5.363  -2.214  10.019  0.00  0.00    +0.006 A 
ATOM     37  C   UNL     1       5.359  -2.011  11.388  0.00  0.00    +0.000 A 
ATOM     38  C   UNL     1       5.092  -3.064  12.244  0.00  0.00    +0.001 A 
ATOM     39  C   UNL     1       4.828  -4.320  11.740  0.00  0.00    +0.009 A 
ENDBRANCH  25  27
ENDBRANCH  22  23
ENDBRANCH  21  22
ENDBRANCH   4  21
TORSDOF 8
