REMARK  Name = ZINC48869871
REMARK  6 active torsions:
REMARK  status: ('A' for Active; 'I' for Inactive)
REMARK    1  A    between atoms: C_5  and  C_7
REMARK    2  A    between atoms: C_7  and  N_8
REMARK    3  A    between atoms: N_8  and  S_9
REMARK    4  A    between atoms: S_9  and  C_12
REMARK    5  A    between atoms: C_15  and  C_17
REMARK    6  A    between atoms: C_17  and  N_18
REMARK                            x       y       z     vdW  Elec       q    Type
REMARK                         _______ _______ _______ _____ _____    ______ ____
ROOT
ATOM      1  S   UNL     1       1.203  -4.267   1.705  0.00  0.00    +0.065 S 
ATOM      2  O   UNL     1       1.573  -4.438   3.067  0.00  0.00    -0.153 OA
ATOM      3  O   UNL     1      -0.100  -4.569   1.226  0.00  0.00    -0.153 OA
ENDROOT
BRANCH   1   4
ATOM      4  C   UNL     1       2.326  -5.235   0.753  0.00  0.00    +0.143 A 
ATOM      5  C   UNL     1       3.576  -5.653   1.073  0.00  0.00    +0.036 A 
ATOM      6  C   UNL     1       4.282  -6.413   0.160  0.00  0.00    +0.011 A 
ATOM      7  C   UNL     1       3.705  -6.718  -1.028  0.00  0.00    -0.026 A 
ATOM      8  S   UNL     1       2.112  -5.926  -0.878  0.00  0.00    -0.075 S 
BRANCH   7   9
ATOM      9  C   UNL     1       4.261  -7.521  -2.176  0.00  0.00    -0.043 C 
BRANCH   9  10
ATOM     10  N   UNL     1       3.914  -8.937  -1.996  0.00  0.00    +0.381 N 
ATOM     11  H   UNL     1       4.287  -9.475  -2.764  0.00  0.00    -0.090 HD
ATOM     12  H   UNL     1       4.307  -9.272  -1.129  0.00  0.00    -0.090 HD
ATOM     13  H   UNL     1       2.910  -9.037  -1.971  0.00  0.00    -0.090 HD
ENDBRANCH   9  10
ENDBRANCH   7   9
ENDBRANCH   1   4
BRANCH   1  14
ATOM     14  N   UNL     1       1.488  -2.679   1.333  0.00  0.00    -0.185 NA
ATOM     15  H   UNL     1       1.827  -2.075   2.012  0.00  0.00    +0.148 HD
BRANCH  14  16
ATOM     16  C   UNL     1       1.229  -2.186  -0.022  0.00  0.00    +0.142 C 
BRANCH  16  21
ATOM     17  C   UNL     1      -0.017   1.378   0.010  0.00  0.00    +0.000 A 
ATOM     18  C   UNL     1       1.171   2.086   0.002  0.00  0.00    +0.001 A 
ATOM     19  C   UNL     1       2.377   1.412  -0.013  0.00  0.00    +0.015 A 
ATOM     20  C   UNL     1       2.397   0.029  -0.021  0.00  0.00    +0.022 A 
ATOM     21  C   UNL     1       1.208  -0.679  -0.013  0.00  0.00    -0.018 A 
ATOM     22  C   UNL     1       0.002  -0.004   0.002  0.00  0.00    +0.006 A 
ATOM     23 BR   UNL     1       4.047  -0.894  -0.042  0.00  0.00    -0.050 Br
ENDBRANCH  16  21
ENDBRANCH  14  16
ENDBRANCH   1  14
TORSDOF 6
