REMARK  Name = ZINC39659936
REMARK  8 active torsions:
REMARK  status: ('A' for Active; 'I' for Inactive)
REMARK    1  A    between atoms: C_1  and  C_2
REMARK    2  A    between atoms: C_2  and  C_3
REMARK    3  A    between atoms: C_2  and  C_4
REMARK    4  A    between atoms: C_4  and  C_6
REMARK    5  A    between atoms: C_4  and  O_30
REMARK    6  A    between atoms: C_10  and  C_19
REMARK    7  A    between atoms: N_21  and  C_22
REMARK    8  A    between atoms: O_30  and  C_31
REMARK                            x       y       z     vdW  Elec       q    Type
REMARK                         _______ _______ _______ _____ _____    ______ ____
ROOT
ATOM      1  C   UNL     1      -1.638  -2.225   1.309  0.00  0.00    +0.257 C 
ATOM      2  O   UNL     1      -1.904  -3.095   0.507  0.00  0.00    -0.272 OA
ATOM      3  N   UNL     1      -1.056  -2.544   2.482  0.00  0.00    -0.297 N 
ATOM      4  C   UNL     1      -0.767  -1.647   3.626  0.00  0.00    +0.121 C 
ATOM      5  C   UNL     1      -1.083  -2.497   4.877  0.00  0.00    +0.100 C 
ATOM      6  C   UNL     1      -0.943  -3.954   4.407  0.00  0.00    -0.004 C 
ATOM      7  C   UNL     1      -0.564  -3.872   2.921  0.00  0.00    +0.115 C 
ATOM      8  C   UNL     1       0.156  -4.660   5.195  0.00  0.00    -0.010 C 
ATOM      9  C   UNL     1       0.237  -6.123   4.750  0.00  0.00    -0.082 C 
ATOM     10  N   UNL     1      -1.055  -6.779   4.981  0.00  0.00    +0.379 N 
ATOM     11  C   UNL     1      -2.090  -6.153   4.149  0.00  0.00    -0.082 C 
ATOM     12  C   UNL     1      -2.269  -4.691   4.568  0.00  0.00    -0.010 C 
ATOM     13  H   UNL     1      -0.982  -7.757   4.744  0.00  0.00    -0.086 HD
ATOM     14  H   UNL     1      -1.308  -6.689   5.954  0.00  0.00    -0.086 HD
ENDROOT
BRANCH   5  15
ATOM     15  C   UNL     1      -2.488  -2.229   5.352  0.00  0.00    +0.218 C 
ATOM     16  O   UNL     1      -3.359  -1.963   4.551  0.00  0.00    -0.275 OA
ATOM     17  N   UNL     1      -2.777  -2.285   6.667  0.00  0.00    -0.312 N 
ATOM     18  H   UNL     1      -2.081  -2.498   7.308  0.00  0.00    +0.149 HD
BRANCH  17  19
ATOM     19  C   UNL     1      -4.143  -2.025   7.129  0.00  0.00    +0.073 C 
ATOM     20  C   UNL     1      -4.345  -0.518   7.299  0.00  0.00    +0.022 C 
ATOM     21  C   UNL     1      -5.842  -0.212   7.388  0.00  0.00    +0.002 C 
ATOM     22  C   UNL     1      -6.592  -1.012   6.322  0.00  0.00    +0.000 C 
ATOM     23  C   UNL     1      -7.481  -2.057   7.000  0.00  0.00    +0.000 C 
ATOM     24  C   UNL     1      -6.616  -3.218   7.493  0.00  0.00    +0.000 C 
ATOM     25  C   UNL     1      -5.870  -2.796   8.761  0.00  0.00    +0.002 C 
ATOM     26  C   UNL     1      -4.370  -2.725   8.470  0.00  0.00    +0.022 C 
ENDBRANCH  17  19
ENDBRANCH   5  15
BRANCH   1  27
ATOM     27  C   UNL     1      -1.959  -0.787   0.993  0.00  0.00    +0.261 C 
BRANCH  27  29
ATOM     28  C   UNL     1      -1.021   1.379   0.173  0.00  0.00    +0.011 C 
ATOM     29  C   UNL     1      -0.712  -0.095   0.440  0.00  0.00    +0.033 C 
ATOM     30  C   UNL     1       0.425  -0.202   1.458  0.00  0.00    +0.011 C 
ENDBRANCH  27  29
BRANCH  27  31
ATOM     31  O   UNL     1      -3.004  -0.734   0.020  0.00  0.00    -0.479 OA
BRANCH  31  32
ATOM     32  C   UNL     1      -3.973   0.200   0.205  0.00  0.00    +0.122 A 
ATOM     33  C   UNL     1      -5.083   0.225  -0.627  0.00  0.00    +0.045 A 
ATOM     34  C   UNL     1      -6.067   1.175  -0.437  0.00  0.00    +0.004 A 
ATOM     35  C   UNL     1      -5.947   2.102   0.583  0.00  0.00    +0.000 A 
ATOM     36  C   UNL     1      -4.842   2.080   1.413  0.00  0.00    +0.004 A 
ATOM     37  C   UNL     1      -3.858   1.127   1.231  0.00  0.00    +0.045 A 
ENDBRANCH  31  32
ENDBRANCH  27  31
ENDBRANCH   1  27
TORSDOF 6
