REMARK  Name = ZINC35465940
REMARK  17 active torsions:
REMARK  status: ('A' for Active; 'I' for Inactive)
REMARK    1  A    between atoms: C_1  and  C_2
REMARK    2  A    between atoms: C_3  and  C_10
REMARK    3  A    between atoms: C_4  and  C_8
REMARK    4  A    between atoms: C_4  and  C_9
REMARK    5  A    between atoms: C_10  and  O_12
REMARK    6  A    between atoms: O_12  and  C_13
REMARK    7  A    between atoms: C_15  and  O_44
REMARK    8  A    between atoms: C_17  and  O_43
REMARK    9  A    between atoms: C_19  and  O_42
REMARK   10  A    between atoms: C_21  and  C_24
REMARK   11  A    between atoms: C_24  and  O_25
REMARK   12  A    between atoms: O_25  and  C_26
REMARK   13  A    between atoms: C_28  and  O_41
REMARK   14  A    between atoms: C_30  and  O_40
REMARK   15  A    between atoms: C_32  and  O_39
REMARK   16  A    between atoms: C_34  and  C_37
REMARK   17  A    between atoms: C_37  and  O_38
REMARK                            x       y       z     vdW  Elec       q    Type
REMARK                         _______ _______ _______ _____ _____    ______ ____
ROOT
ATOM      1  C   UNL     1      -4.251   0.840  -0.803  0.00  0.00    +0.343 C 
ATOM      2  C   UNL     1      -5.613   0.167  -0.989  0.00  0.00    +0.214 C 
ATOM      3  C   UNL     1      -5.989  -0.573   0.299  0.00  0.00    +0.180 C 
ATOM      4  C   UNL     1      -5.986   0.421   1.464  0.00  0.00    +0.177 C 
ATOM      5  C   UNL     1      -4.609   1.085   1.556  0.00  0.00    +0.179 C 
ATOM      6  O   UNL     1      -4.309   1.728   0.315  0.00  0.00    -0.331 OA
ENDROOT
BRANCH   4   7
ATOM      7  O   UNL     1      -6.985   1.419   1.243  0.00  0.00    -0.386 OA
ATOM      8  H   UNL     1      -7.883   1.067   1.171  0.00  0.00    +0.210 HD
ENDBRANCH   4   7
BRANCH   3   9
ATOM      9  O   UNL     1      -7.291  -1.145   0.159  0.00  0.00    -0.386 OA
ATOM     10  H   UNL     1      -7.365  -1.780  -0.566  0.00  0.00    +0.210 HD
ENDBRANCH   3   9
BRANCH   2  11
ATOM     11  O   UNL     1      -5.542  -0.763  -2.072  0.00  0.00    -0.383 OA
ATOM     12  H   UNL     1      -5.304  -0.363  -2.919  0.00  0.00    +0.210 HD
ENDBRANCH   2  11
BRANCH   1  13
ATOM     13  O   UNL     1      -3.255  -0.157  -0.569  0.00  0.00    -0.429 OA
BRANCH  13  14
ATOM     14  C   UNL     1      -1.976   0.263  -0.487  0.00  0.00    +0.338 C 
ATOM     15  O   UNL     1      -1.715   1.444  -0.610  0.00  0.00    -0.245 OA
BRANCH  14  18
ATOM     16  C   UNL     1       0.523   1.248  -0.064  0.00  0.00    +0.039 C 
ATOM     17  C   UNL     1       0.318  -0.245  -0.045  0.00  0.00    -0.062 C 
ATOM     18  C   UNL     1      -0.898  -0.707  -0.247  0.00  0.00    +0.041 C 
ATOM     19  C   UNL     1      -1.248  -2.167  -0.247  0.00  0.00    -0.003 C 
ATOM     20  C   UNL     1       0.018  -3.011  -0.411  0.00  0.00    +0.011 C 
ATOM     21  C   UNL     1       1.062  -2.526   0.603  0.00  0.00    +0.005 C 
ATOM     22  C   UNL     1       1.513  -1.120   0.196  0.00  0.00    +0.031 C 
ATOM     23  C   UNL     1      -1.929  -2.525   1.075  0.00  0.00    +0.016 C 
ATOM     24  C   UNL     1      -2.205  -2.459  -1.404  0.00  0.00    +0.016 C 
ENDBRANCH  14  18
ENDBRANCH  13  14
ENDBRANCH   1  13
BRANCH   5  25
ATOM     25  C   UNL     1      -4.617   2.122   2.680  0.00  0.00    +0.197 C 
BRANCH  25  26
ATOM     26  O   UNL     1      -3.302   2.658   2.842  0.00  0.00    -0.346 OA
BRANCH  26  27
ATOM     27  C   UNL     1      -3.199   3.642   3.873  0.00  0.00    +0.282 C 
ATOM     28  C   UNL     1      -1.829   4.321   3.796  0.00  0.00    +0.201 C 
ATOM     29  C   UNL     1      -1.702   5.331   4.940  0.00  0.00    +0.179 C 
ATOM     30  C   UNL     1      -1.918   4.606   6.273  0.00  0.00    +0.177 C 
ATOM     31  C   UNL     1      -3.284   3.916   6.254  0.00  0.00    +0.178 C 
ATOM     32  O   UNL     1      -3.346   3.014   5.148  0.00  0.00    -0.341 OA
BRANCH  30  33
ATOM     33  O   UNL     1      -0.891   3.629   6.456  0.00  0.00    -0.386 OA
ATOM     34  H   UNL     1       0.003   3.997   6.473  0.00  0.00    +0.210 HD
ENDBRANCH  30  33
BRANCH  29  35
ATOM     35  O   UNL     1      -0.400   5.918   4.919  0.00  0.00    -0.386 OA
ATOM     36  H   UNL     1      -0.194   6.389   4.099  0.00  0.00    +0.210 HD
ENDBRANCH  29  35
BRANCH  28  37
ATOM     37  O   UNL     1      -0.800   3.335   3.912  0.00  0.00    -0.384 OA
ATOM     38  H   UNL     1      -0.823   2.660   3.220  0.00  0.00    +0.210 HD
ENDBRANCH  28  37
BRANCH  31  39
ATOM     39  C   UNL     1      -3.482   3.140   7.558  0.00  0.00    +0.190 C 
BRANCH  39  40
ATOM     40  O   UNL     1      -4.801   2.593   7.592  0.00  0.00    -0.392 OA
ATOM     41  H   UNL     1      -4.997   2.087   8.392  0.00  0.00    +0.210 HD
ENDBRANCH  39  40
ENDBRANCH  31  39
ENDBRANCH  26  27
ENDBRANCH  25  26
ENDBRANCH   5  25
TORSDOF 14
