REMARK  Name = ZINC09860263
REMARK  9 active torsions:
REMARK  status: ('A' for Active; 'I' for Inactive)
REMARK    1  A    between atoms: C_1  and  C_2
REMARK    2  A    between atoms: C_8  and  C_9
REMARK    3  A    between atoms: C_8  and  N_69
REMARK    4  A    between atoms: C_9  and  N_10
REMARK    5  A    between atoms: C_11  and  C_13
REMARK    6  A    between atoms: C_13  and  C_14
REMARK    7  A    between atoms: C_14  and  C_15
REMARK    8  A    between atoms: C_15  and  C_16
REMARK    9  A    between atoms: C_30  and  C_32
REMARK                            x       y       z     vdW  Elec       q    Type
REMARK                         _______ _______ _______ _____ _____    ______ ____
ROOT
ATOM      1  C   UNL     1       5.240  10.230  -3.342  0.00  0.00    +0.139 A 
ATOM      2  N   UNL     1       5.252  11.172  -2.439  0.00  0.00    -0.132 NA
ATOM      3  N   UNL     1       4.849  12.280  -2.951  0.00  0.00    -0.108 NA
ATOM      4  C   UNL     1       4.547  12.102  -4.219  0.00  0.00    +0.259 A 
ATOM      5  N   UNL     1       4.789  10.789  -4.501  0.00  0.00    -0.263 N 
ATOM      6  C   UNL     1       4.567  10.274  -5.774  0.00  0.00    +0.062 A 
ATOM      7  C   UNL     1       4.813   8.940  -6.061  0.00  0.00    +0.027 A 
ATOM      8  C   UNL     1       4.585   8.456  -7.333  0.00  0.00    +0.002 A 
ATOM      9  C   UNL     1       4.111   9.293  -8.331  0.00  0.00    +0.001 A 
ATOM     10  C   UNL     1       3.860  10.622  -8.064  0.00  0.00    +0.013 A 
ATOM     11  C   UNL     1       4.087  11.123  -6.784  0.00  0.00    +0.043 A 
ATOM     12  C   UNL     1       3.833  12.537  -6.456  0.00  0.00    +0.169 A 
ATOM     13  N   UNL     1       4.074  12.970  -5.186  0.00  0.00    -0.177 N 
ATOM     14  N   UNL     1       3.749  14.335  -5.167  0.00  0.00    -0.142 NA
ATOM     15  C   UNL     1       3.343  14.649  -6.380  0.00  0.00    +0.182 A 
ATOM     16  N   UNL     1       3.395  13.561  -7.157  0.00  0.00    -0.206 NA
ENDROOT
BRANCH  15  17
ATOM     17  C   UNL     1       2.898  15.996  -6.816  0.00  0.00    +0.021 A 
ATOM     18  C   UNL     1       2.495  16.207  -8.133  0.00  0.00    +0.011 A 
ATOM     19  C   UNL     1       2.078  17.461  -8.531  0.00  0.00    +0.001 A 
ATOM     20  C   UNL     1       2.069  18.509  -7.629  0.00  0.00    +0.000 A 
ATOM     21  C   UNL     1       2.474  18.306  -6.322  0.00  0.00    +0.001 A 
ATOM     22  C   UNL     1       2.888  17.056  -5.911  0.00  0.00    +0.011 A 
ENDBRANCH  15  17
BRANCH   1  23
ATOM     23  C   UNL     1       5.643   8.792  -3.140  0.00  0.00    +0.077 C 
BRANCH  23  24
ATOM     24  C   UNL     1       4.396   7.946  -2.873  0.00  0.00    +0.017 C 
BRANCH  24  25
ATOM     25  C   UNL     1       4.805   6.486  -2.667  0.00  0.00    +0.096 C 
BRANCH  25  27
ATOM     26  N   UNL     1       3.695   4.327  -2.192  0.00  0.00    -0.317 N 
ATOM     27  C   UNL     1       3.577   5.653  -2.404  0.00  0.00    +0.213 C 
ATOM     28  O   UNL     1       2.483   6.175  -2.383  0.00  0.00    -0.276 OA
ATOM     29  H   UNL     1       4.570   3.909  -2.209  0.00  0.00    +0.149 HD
BRANCH  26  30
ATOM     30  C   UNL     1       2.502   3.517  -1.937  0.00  0.00    +0.085 C 
BRANCH  30  31
ATOM     31  C   UNL     1       2.910   2.057  -1.731  0.00  0.00    -0.059 C 
BRANCH  31  38
ATOM     32  C   UNL     1       2.637  -0.448  -2.984  0.00  0.00    -0.013 C 
ATOM     33  C   UNL     1       2.010  -0.187  -1.613  0.00  0.00    -0.072 C 
ATOM     34  C   UNL     1       0.715  -0.992  -1.484  0.00  0.00    -0.016 C 
ATOM     35  C   UNL     1       0.080  -0.712  -0.118  0.00  0.00    -0.003 C 
ATOM     36  C   UNL     1      -0.174   0.791   0.019  0.00  0.00    -0.019 C 
ATOM     37  C   UNL     1       1.147   1.545  -0.154  0.00  0.00    -0.078 C 
ATOM     38  N   UNL     1       1.694   1.253  -1.496  0.00  0.00    +0.382 N 
ATOM     39  H   UNL     1       0.990   1.498  -2.202  0.00  0.00    -0.081 HD
ENDBRANCH  31  38
ENDBRANCH  30  31
ENDBRANCH  26  30
ENDBRANCH  25  27
ENDBRANCH  24  25
ENDBRANCH  23  24
ENDBRANCH   1  23
TORSDOF 8
