REMARK  Name = ZINC50056732
REMARK  8 active torsions:
REMARK  status: ('A' for Active; 'I' for Inactive)
REMARK    1  A    between atoms: C_1  and  C_2
REMARK    2  A    between atoms: C_2  and  C_3
REMARK    3  A    between atoms: C_2  and  C_4
REMARK    4  A    between atoms: C_4  and  N_5
REMARK    5  A    between atoms: C_6  and  C_8
REMARK    6  A    between atoms: C_8  and  N_9
REMARK    7  A    between atoms: N_12  and  C_13
REMARK    8  A    between atoms: C_18  and  N_19
REMARK                            x       y       z     vdW  Elec       q    Type
REMARK                         _______ _______ _______ _____ _____    ______ ____
ROOT
ATOM      1  N   UNL     1       5.217  -1.034  -3.241  0.00  0.00    -0.291 N 
ATOM      2  C   UNL     1       6.530  -0.788  -3.416  0.00  0.00    +0.304 C 
ATOM      3  O   UNL     1       7.265  -0.692  -2.451  0.00  0.00    -0.252 OA
ATOM      4  N   UNL     1       7.030  -0.648  -4.660  0.00  0.00    -0.268 N 
ATOM      5  H   UNL     1       4.631  -1.111  -4.010  0.00  0.00    +0.151 HD
ATOM      6  H   UNL     1       6.463  -0.805  -5.431  0.00  0.00    +0.156 HD
ENDROOT
BRANCH   4   7
ATOM      7  C   UNL     1       8.369  -0.275  -4.839  0.00  0.00    +0.056 A 
ATOM      8  C   UNL     1       9.034   0.430  -3.848  0.00  0.00    +0.025 A 
ATOM      9  C   UNL     1      10.355   0.797  -4.027  0.00  0.00    +0.002 A 
ATOM     10  C   UNL     1      11.017   0.463  -5.193  0.00  0.00    +0.002 A 
ATOM     11  C   UNL     1      10.362  -0.240  -6.188  0.00  0.00    +0.025 A 
ATOM     12  C   UNL     1       9.039  -0.618  -6.013  0.00  0.00    +0.052 A 
BRANCH  12  13
ATOM     13  N   UNL     1       8.376  -1.335  -7.016  0.00  0.00    -0.324 N 
ATOM     14  C   UNL     1       7.654  -0.628  -8.084  0.00  0.00    +0.110 C 
ATOM     15  C   UNL     1       8.352  -0.930  -9.419  0.00  0.00    +0.061 C 
ATOM     16  C   UNL     1       8.688  -2.385  -9.466  0.00  0.00    -0.004 A 
ATOM     17  C   UNL     1       8.729  -3.268  -8.431  0.00  0.00    -0.020 A 
ATOM     18  C   UNL     1       9.082  -4.580  -8.741  0.00  0.00    +0.013 A 
ATOM     19  C   UNL     1       9.357  -4.922 -10.021  0.00  0.00    +0.046 A 
ATOM     20  S   UNL     1       9.127  -3.370 -10.874  0.00  0.00    -0.101 S 
ATOM     21  C   UNL     1       8.398  -2.804  -7.019  0.00  0.00    +0.141 C 
ENDBRANCH  12  13
ENDBRANCH   4   7
BRANCH   1  22
ATOM     22  C   UNL     1       4.674  -1.187  -1.889  0.00  0.00    +0.201 C 
BRANCH  22  24
ATOM     23  N   UNL     1       2.477  -1.629  -0.841  0.00  0.00    -0.314 N 
ATOM     24  C   UNL     1       3.193  -1.454  -1.969  0.00  0.00    +0.230 C 
ATOM     25  O   UNL     1       2.645  -1.511  -3.050  0.00  0.00    -0.274 OA
ATOM     26  H   UNL     1       2.916  -1.583   0.023  0.00  0.00    +0.149 HD
BRANCH  23  27
ATOM     27  C   UNL     1       1.038  -1.889  -0.919  0.00  0.00    +0.107 C 
BRANCH  27  29
ATOM     28  C   UNL     1       0.603  -0.724   1.248  0.00  0.00    +0.009 C 
ATOM     29  C   UNL     1       0.471  -2.048   0.493  0.00  0.00    -0.000 C 
ATOM     30  C   UNL     1      -1.006  -2.442   0.408  0.00  0.00    +0.009 C 
ENDBRANCH  27  29
ENDBRANCH  23  27
ENDBRANCH  22  24
ENDBRANCH   1  22
TORSDOF 6
