REMARK  Name = ZINC01666878
REMARK  17 active torsions:
REMARK  status: ('A' for Active; 'I' for Inactive)
REMARK    1  A    between atoms: C_1  and  C_2
REMARK    2  A    between atoms: C_2  and  C_3
REMARK    3  A    between atoms: C_2  and  C_4
REMARK    4  A    between atoms: C_4  and  C_5
REMARK    5  A    between atoms: C_5  and  N_73
REMARK    6  A    between atoms: C_6  and  C_7
REMARK    7  A    between atoms: C_6  and  N_73
REMARK    8  A    between atoms: C_7  and  C_8
REMARK    9  A    between atoms: C_8  and  N_9
REMARK   10  A    between atoms: N_9  and  C_10
REMARK   11  A    between atoms: C_15  and  O_23
REMARK   12  A    between atoms: O_23  and  C_24
REMARK   13  A    between atoms: C_25  and  C_26
REMARK   14  A    between atoms: C_25  and  N_73
REMARK   15  A    between atoms: C_26  and  C_27
REMARK   16  A    between atoms: C_27  and  C_28
REMARK   17  A    between atoms: C_27  and  C_29
REMARK                            x       y       z     vdW  Elec       q    Type
REMARK                         _______ _______ _______ _____ _____    ______ ____
ROOT
ATOM      1  N   UNL     1      -2.925   0.179   1.996  0.00  0.00    -0.343 N 
ATOM      2  H   UNL     1      -2.655   1.148   2.087  0.00  0.00    +0.146 HD
ENDROOT
BRANCH   1   3
ATOM      3  C   UNL     1      -1.812  -0.648   1.992  0.00  0.00    +0.041 A 
ATOM      4  C   UNL     1      -0.643  -0.284   1.287  0.00  0.00    +0.023 A 
ATOM      5  C   UNL     1      -0.562   0.918   0.569  0.00  0.00    +0.012 A 
ATOM      6  C   UNL     1       0.585   1.230  -0.097  0.00  0.00    +0.004 A 
ATOM      7  C   UNL     1       1.681   0.372  -0.075  0.00  0.00    +0.048 A 
ATOM      8  C   UNL     1       1.637  -0.806   0.614  0.00  0.00    +0.144 A 
ATOM      9  C   UNL     1       0.465  -1.162   1.315  0.00  0.00    +0.091 A 
ATOM     10  C   UNL     1      -0.698  -2.666   2.659  0.00  0.00    +0.021 A 
ATOM     11  C   UNL     1      -1.820  -1.856   2.681  0.00  0.00    -0.007 A 
ATOM     12  C   UNL     1      -3.075  -2.222   3.429  0.00  0.00    +0.039 C 
ATOM     13  C   UNL     1      -3.091  -3.715   3.754  0.00  0.00    +0.005 C 
ATOM     14  C   UNL     1      -1.760  -4.077   4.423  0.00  0.00    +0.006 C 
ATOM     15  C   UNL     1      -0.653  -3.994   3.374  0.00  0.00    +0.053 C 
ATOM     16  N   UNL     1       0.455  -2.358   1.997  0.00  0.00    -0.355 N 
ATOM     17  H   UNL     1       1.270  -2.983   2.008  0.00  0.00    +0.166 HD
BRANCH   8  18
ATOM     18  O   UNL     1       2.716  -1.631   0.625  0.00  0.00    -0.493 OA
ATOM     19  C   UNL     1       3.867  -1.204  -0.107  0.00  0.00    +0.277 C 
ENDBRANCH   8  18
ENDBRANCH   1   3
BRANCH   1  20
ATOM     20  C   UNL     1      -3.740  -0.029   0.792  0.00  0.00    +0.100 C 
BRANCH  20  21
ATOM     21  C   UNL     1      -4.929   0.934   0.809  0.00  0.00    +0.000 C 
BRANCH  21  22
ATOM     22  C   UNL     1      -5.779   0.717  -0.445  0.00  0.00    -0.077 C 
BRANCH  22  23
ATOM     23  N   UNL     1      -6.978   1.577  -0.359  0.00  0.00    +0.380 N 
ATOM     24  H   UNL     1      -7.353   1.532   0.596  0.00  0.00    -0.082 HD
BRANCH  23  25
ATOM     25  C   UNL     1      -6.620   2.977  -0.670  0.00  0.00    -0.079 C 
BRANCH  25  26
ATOM     26  C   UNL     1      -7.819   3.874  -0.358  0.00  0.00    -0.016 C 
BRANCH  26  28
ATOM     27  C   UNL     1      -8.692   6.213  -0.461  0.00  0.00    +0.007 C 
ATOM     28  C   UNL     1      -7.457   5.331  -0.653  0.00  0.00    -0.019 C 
ATOM     29  C   UNL     1      -6.352   5.785   0.302  0.00  0.00    +0.007 C 
ENDBRANCH  26  28
ENDBRANCH  25  26
ENDBRANCH  23  25
BRANCH  23  30
ATOM     30  C   UNL     1      -8.011   1.099  -1.302  0.00  0.00    -0.079 C 
BRANCH  30  31
ATOM     31  C   UNL     1      -8.692  -0.132  -0.701  0.00  0.00    -0.016 C 
BRANCH  31  32
ATOM     32  C   UNL     1      -9.867  -0.549  -1.587  0.00  0.00    -0.019 C 
ATOM     33  C   UNL     1      -9.342  -1.003  -2.950  0.00  0.00    +0.007 C 
ATOM     34  C   UNL     1     -10.624  -1.701  -0.923  0.00  0.00    +0.007 C 
ENDBRANCH  31  32
ENDBRANCH  30  31
ENDBRANCH  23  30
ENDBRANCH  22  23
ENDBRANCH  21  22
ENDBRANCH  20  21
ENDBRANCH   1  20
TORSDOF 12
