REMARK  Name = ZINC09485447
REMARK  8 active torsions:
REMARK  status: ('A' for Active; 'I' for Inactive)
REMARK    1  A    between atoms: C_1  and  C_2
REMARK    2  A    between atoms: C_2  and  N_3
REMARK    3  A    between atoms: C_4  and  C_23
REMARK    4  A    between atoms: C_7  and  S_8
REMARK    5  A    between atoms: S_8  and  C_9
REMARK    6  A    between atoms: C_9  and  C_10
REMARK    7  A    between atoms: N_12  and  C_13
REMARK    8  A    between atoms: C_15  and  N_20
REMARK                            x       y       z     vdW  Elec       q    Type
REMARK                         _______ _______ _______ _____ _____    ______ ____
ROOT
ATOM      1  C   UNL     1       2.031   5.850  -0.223  0.00  0.00    +0.173 C 
ENDROOT
BRANCH   1   2
ATOM      2  C   UNL     1       1.928   4.367  -0.473  0.00  0.00    +0.228 C 
ATOM      3  O   UNL     1       2.919   3.671  -0.407  0.00  0.00    -0.275 OA
ATOM      4  N   UNL     1       0.735   3.815  -0.771  0.00  0.00    -0.284 N 
ATOM      5  H   UNL     1      -0.041   4.381  -0.906  0.00  0.00    +0.155 HD
BRANCH   4   6
ATOM      6  C   UNL     1       0.616   2.425  -0.885  0.00  0.00    +0.054 A 
ATOM      7  C   UNL     1       1.569   1.596  -0.310  0.00  0.00    +0.057 A 
ATOM      8  C   UNL     1       1.450   0.225  -0.424  0.00  0.00    +0.128 A 
ATOM      9  C   UNL     1       0.382  -0.323  -1.112  0.00  0.00    +0.034 A 
ATOM     10  C   UNL     1      -0.569   0.499  -1.687  0.00  0.00    +0.024 A 
ATOM     11  C   UNL     1      -0.455   1.872  -1.576  0.00  0.00    +0.062 A 
ATOM     12 CL   UNL     1      -1.646   2.905  -2.304  0.00  0.00    -0.082 Cl
BRANCH   8  13
ATOM     13  N   UNL     1       2.466  -0.660   0.189  0.00  0.00    +0.056 N 
ATOM     14  O   UNL     1       2.361  -1.869   0.088  0.00  0.00    -0.126 OA
ATOM     15  O   UNL     1       3.406  -0.178   0.795  0.00  0.00    -0.126 OA
ENDBRANCH   8  13
ENDBRANCH   4   6
ENDBRANCH   1   2
BRANCH   1  16
ATOM     16  S   UNL     1       3.748   6.282   0.149  0.00  0.00    -0.077 S 
BRANCH  16  21
ATOM     17  N   UNL     1       4.583   8.893   0.705  0.00  0.00    -0.302 N 
ATOM     18  C   UNL     1       3.985  10.128   0.792  0.00  0.00    +0.165 A 
ATOM     19  N   UNL     1       2.708   9.956   0.539  0.00  0.00    -0.128 NA
ATOM     20  N   UNL     1       2.472   8.716   0.297  0.00  0.00    -0.122 NA
ATOM     21  C   UNL     1       3.582   8.019   0.391  0.00  0.00    +0.192 A 
BRANCH  18  22
ATOM     22  C   UNL     1       4.652  11.408   1.110  0.00  0.00    +0.019 A 
ATOM     23  C   UNL     1       6.041  11.515   1.019  0.00  0.00    +0.011 A 
ATOM     24  C   UNL     1       6.658  12.714   1.313  0.00  0.00    +0.001 A 
ATOM     25  C   UNL     1       5.904  13.805   1.707  0.00  0.00    +0.000 A 
ATOM     26  C   UNL     1       4.527  13.704   1.803  0.00  0.00    +0.001 A 
ATOM     27  C   UNL     1       3.898  12.513   1.507  0.00  0.00    +0.011 A 
ENDBRANCH  18  22
BRANCH  17  29
ATOM     28  C   UNL     1       6.732   8.636  -0.435  0.00  0.00    +0.027 C 
ATOM     29  C   UNL     1       6.000   8.579   0.908  0.00  0.00    +0.122 C 
ENDBRANCH  17  29
ENDBRANCH  16  21
ENDBRANCH   1  16
TORSDOF 7
