REMARK  Name = ZINC00041946
REMARK  7 active torsions:
REMARK  status: ('A' for Active; 'I' for Inactive)
REMARK    1  A    between atoms: C_1  and  C_2
REMARK    2  A    between atoms: C_3  and  C_18
REMARK    3  A    between atoms: C_4  and  C_10
REMARK    4  A    between atoms: C_18  and  O_20
REMARK    5  A    between atoms: O_20  and  C_21
REMARK    6  A    between atoms: C_21  and  C_22
REMARK    7  A    between atoms: C_21  and  C_23
REMARK                            x       y       z     vdW  Elec       q    Type
REMARK                         _______ _______ _______ _____ _____    ______ ____
ROOT
ATOM      1  C   UNL     1       4.794   1.656   3.016  0.00  0.00    +0.061 C 
ATOM      2  C   UNL     1       4.234   1.611   1.618  0.00  0.00    +0.021 C 
ATOM      3  C   UNL     1       3.145   0.854   1.362  0.00  0.00    +0.078 C 
ATOM      4  C   UNL     1       2.616   0.837  -0.058  0.00  0.00    +0.144 C 
ATOM      5  N   UNL     1       3.337   1.653  -1.049  0.00  0.00    -0.288 N 
ATOM      6  C   UNL     1       4.412   2.357  -0.640  0.00  0.00    +0.304 C 
ATOM      7  O   UNL     1       5.014   3.034  -1.451  0.00  0.00    -0.252 OA
ATOM      8  N   UNL     1       4.837   2.335   0.629  0.00  0.00    -0.273 N 
ATOM      9  H   UNL     1       3.046   1.683  -1.974  0.00  0.00    +0.151 HD
ATOM     10  H   UNL     1       5.617   2.864   0.860  0.00  0.00    +0.156 HD
ENDROOT
BRANCH   4  11
ATOM     11  C   UNL     1       1.184   1.305  -0.025  0.00  0.00    -0.021 A 
ATOM     12  C   UNL     1       0.900   2.656   0.049  0.00  0.00    +0.007 A 
ATOM     13  C   UNL     1      -0.413   3.087   0.080  0.00  0.00    +0.022 A 
ATOM     14  C   UNL     1      -1.444   2.165   0.036  0.00  0.00    +0.059 A 
ATOM     15  C   UNL     1      -1.160   0.813  -0.043  0.00  0.00    +0.060 A 
ATOM     16  C   UNL     1       0.155   0.383  -0.068  0.00  0.00    +0.027 A 
ATOM     17 CL   UNL     1      -2.453  -0.344  -0.105  0.00  0.00    -0.082 Cl
ATOM     18 CL   UNL     1      -3.094   2.705   0.075  0.00  0.00    -0.082 Cl
ENDBRANCH   4  11
BRANCH   3  19
ATOM     19  C   UNL     1       2.521   0.103   2.385  0.00  0.00    +0.339 C 
ATOM     20  O   UNL     1       3.027   0.040   3.490  0.00  0.00    -0.245 OA
BRANCH  19  21
ATOM     21  O   UNL     1       1.363  -0.545   2.135  0.00  0.00    -0.459 OA
BRANCH  21  22
ATOM     22  C   UNL     1       0.788  -1.284   3.214  0.00  0.00    +0.171 C 
ATOM     23  C   UNL     1      -0.159  -0.380   4.005  0.00  0.00    +0.052 C 
ATOM     24  C   UNL     1       0.007  -2.476   2.657  0.00  0.00    +0.052 C 
ENDBRANCH  21  22
ENDBRANCH  19  21
ENDBRANCH   3  19
TORSDOF 4
