REMARK  Name = ZINC58085648
REMARK  11 active torsions:
REMARK  status: ('A' for Active; 'I' for Inactive)
REMARK    1  A    between atoms: C_1  and  C_2
REMARK    2  A    between atoms: C_2  and  N_3
REMARK    3  A    between atoms: N_3  and  S_4
REMARK    4  A    between atoms: S_4  and  C_7
REMARK    5  A    between atoms: C_10  and  C_31
REMARK    6  A    between atoms: C_11  and  C_13
REMARK    7  A    between atoms: N_15  and  C_16
REMARK    8  A    between atoms: C_16  and  C_17
REMARK    9  A    between atoms: C_17  and  C_19
REMARK   10  A    between atoms: C_17  and  N_26
REMARK   11  A    between atoms: C_22  and  C_25
REMARK                            x       y       z     vdW  Elec       q    Type
REMARK                         _______ _______ _______ _____ _____    ______ ____
ROOT
ATOM      1  C   UNL     1      -3.214  -3.964  -3.191  0.00  0.00    +0.244 C 
ATOM      2  O   UNL     1      -4.213  -4.651  -3.103  0.00  0.00    -0.270 OA
ATOM      3  N   UNL     1      -2.829  -3.485  -4.391  0.00  0.00    -0.313 N 
ATOM      4  H   UNL     1      -2.032  -2.937  -4.461  0.00  0.00    +0.149 HD
ENDROOT
BRANCH   1   9
ATOM      5  C   UNL     1      -0.595  -2.501  -0.932  0.00  0.00    +0.106 A 
ATOM      6  C   UNL     1      -0.936  -3.073   0.281  0.00  0.00    +0.029 A 
ATOM      7  C   UNL     1      -2.015  -3.934   0.368  0.00  0.00    +0.006 A 
ATOM      8  C   UNL     1      -2.759  -4.228  -0.756  0.00  0.00    -0.038 A 
ATOM      9  C   UNL     1      -2.421  -3.654  -1.983  0.00  0.00    +0.041 A 
ATOM     10  C   UNL     1      -1.334  -2.781  -2.062  0.00  0.00    +0.041 A 
ATOM     11  C   UNL     1      -3.934  -5.167  -0.660  0.00  0.00    +0.044 C 
BRANCH   5  12
ATOM     12  S   UNL     1       0.781  -1.405  -1.031  0.00  0.00    +0.058 S 
ATOM     13  O   UNL     1       1.219  -1.425  -2.382  0.00  0.00    -0.153 OA
ATOM     14  O   UNL     1       1.639  -1.732   0.053  0.00  0.00    -0.153 OA
BRANCH  12  15
ATOM     15  N   UNL     1       0.212   0.123  -0.740  0.00  0.00    -0.190 NA
ATOM     16  H   UNL     1       0.245   0.794  -1.440  0.00  0.00    +0.148 HD
BRANCH  15  18
ATOM     17  C   UNL     1      -0.443   1.982   0.708  0.00  0.00    +0.022 C 
ATOM     18  C   UNL     1      -0.341   0.461   0.574  0.00  0.00    +0.102 C 
ENDBRANCH  15  18
ENDBRANCH  12  15
ENDBRANCH   5  12
ENDBRANCH   1   9
BRANCH   3  19
ATOM     19  C   UNL     1      -3.614  -3.793  -5.589  0.00  0.00    +0.094 C 
BRANCH  19  20
ATOM     20  C   UNL     1      -2.902  -3.235  -6.823  0.00  0.00    -0.020 C 
BRANCH  20  21
ATOM     21  C   UNL     1      -2.817  -1.734  -6.718  0.00  0.00    -0.059 A 
ATOM     22  C   UNL     1      -3.915  -0.956  -7.036  0.00  0.00    +0.002 A 
ATOM     23  C   UNL     1      -3.837   0.421  -6.940  0.00  0.00    +0.003 A 
ATOM     24  C   UNL     1      -2.662   1.020  -6.526  0.00  0.00    -0.050 A 
ATOM     25  C   UNL     1      -1.564   0.241  -6.207  0.00  0.00    +0.003 A 
ATOM     26  C   UNL     1      -1.644  -1.136  -6.299  0.00  0.00    +0.002 A 
ATOM     27  C   UNL     1      -2.576   2.521  -6.422  0.00  0.00    +0.044 C 
ENDBRANCH  20  21
BRANCH  20  28
ATOM     28  N   UNL     1      -3.656  -3.600  -8.030  0.00  0.00    +0.385 N 
ATOM     29  C   UNL     1      -2.903  -3.197  -9.245  0.00  0.00    -0.078 C 
ATOM     30  C   UNL     1      -3.496  -4.109 -10.348  0.00  0.00    -0.020 C 
ATOM     31  C   UNL     1      -3.725  -5.445  -9.606  0.00  0.00    -0.020 C 
ATOM     32  C   UNL     1      -3.802  -5.069  -8.115  0.00  0.00    -0.078 C 
ATOM     33  H   UNL     1      -4.564  -3.160  -8.020  0.00  0.00    -0.081 HD
ENDBRANCH  20  28
ENDBRANCH  19  20
ENDBRANCH   3  19
TORSDOF 8
