REMARK  Name = ZINC40814763
REMARK  7 active torsions:
REMARK  status: ('A' for Active; 'I' for Inactive)
REMARK    1  A    between atoms: C_1  and  C_2
REMARK    2  A    between atoms: C_5  and  N_8
REMARK    3  A    between atoms: C_9  and  C_11
REMARK    4  A    between atoms: C_12  and  C_31
REMARK    5  A    between atoms: N_20  and  N_21
REMARK    6  A    between atoms: N_21  and  C_22
REMARK    7  A    between atoms: C_25  and  N_28
REMARK                            x       y       z     vdW  Elec       q    Type
REMARK                         _______ _______ _______ _____ _____    ______ ____
ROOT
ATOM      1  C   UNL     1       0.304  -6.309   1.122  0.00  0.00    +0.193 A 
ATOM      2  C   UNL     1       0.423  -7.112   2.222  0.00  0.00    +0.009 A 
ATOM      3  C   UNL     1       0.520  -8.423   1.741  0.00  0.00    +0.042 A 
ATOM      4  C   UNL     1       0.457  -8.365   0.369  0.00  0.00    +0.115 A 
ATOM      5  O   UNL     1       0.320  -7.088   0.017  0.00  0.00    -0.454 OA
ATOM      6  C   UNL     1       0.534  -9.589  -0.508  0.00  0.00    +0.075 C 
ATOM      7  C   UNL     1       1.185 -10.734   0.272  0.00  0.00    +0.014 C 
ATOM      8  C   UNL     1       0.469 -10.953   1.609  0.00  0.00    +0.058 C 
ATOM      9  C   UNL     1       0.662  -9.708   2.463  0.00  0.00    +0.070 C 
ATOM     10  N   UNL     1       0.933  -9.768   3.730  0.00  0.00    -0.186 NA
ATOM     11  C   UNL     1       0.447  -6.673   3.664  0.00  0.00    +0.048 C 
ENDROOT
BRANCH   1  13
ATOM     12  N   UNL     1       0.058  -4.169  -0.021  0.00  0.00    -0.279 N 
ATOM     13  C   UNL     1       0.174  -4.848   1.138  0.00  0.00    +0.284 C 
ATOM     14  O   UNL     1       0.172  -4.248   2.197  0.00  0.00    -0.266 OA
ATOM     15  H   UNL     1      -0.017  -4.650  -0.860  0.00  0.00    +0.155 HD
BRANCH  12  20
ATOM     16  C   UNL     1       0.005   1.503   0.009  0.00  0.00    +0.044 C 
ATOM     17  C   UNL     1       0.020  -0.004   0.001  0.00  0.00    -0.050 A 
ATOM     18  C   UNL     1      -0.724  -0.696  -0.937  0.00  0.00    +0.005 A 
ATOM     19  C   UNL     1      -0.713  -2.077  -0.948  0.00  0.00    +0.023 A 
ATOM     20  C   UNL     1       0.045  -2.771  -0.014  0.00  0.00    +0.034 A 
ATOM     21  C   UNL     1       0.791  -2.073   0.927  0.00  0.00    +0.023 A 
ATOM     22  C   UNL     1       0.781  -0.692   0.928  0.00  0.00    +0.005 A 
ENDBRANCH  12  20
ENDBRANCH   1  13
BRANCH  10  23
ATOM     23  N   UNL     1       1.056 -11.012   4.362  0.00  0.00    -0.238 N 
ATOM     24  H   UNL     1       0.940 -11.829   3.852  0.00  0.00    +0.174 HD
BRANCH  23  25
ATOM     25  C   UNL     1       1.347 -11.077   5.725  0.00  0.00    +0.048 A 
ATOM     26  C   UNL     1       1.509  -9.908   6.459  0.00  0.00    +0.027 A 
ATOM     27  C   UNL     1       1.797  -9.976   7.808  0.00  0.00    +0.034 A 
ATOM     28  C   UNL     1       1.924 -11.205   8.428  0.00  0.00    +0.126 A 
ATOM     29  C   UNL     1       1.764 -12.371   7.701  0.00  0.00    +0.034 A 
ATOM     30  C   UNL     1       1.470 -12.311   6.353  0.00  0.00    +0.027 A 
BRANCH  28  31
ATOM     31  N   UNL     1       2.234 -11.274   9.880  0.00  0.00    +0.056 N 
ATOM     32  O   UNL     1       2.374 -10.256  10.517  0.00  0.00    -0.126 OA
ATOM     33  O   UNL     1       2.345 -12.348  10.424  0.00  0.00    -0.126 OA
ENDBRANCH  28  31
ENDBRANCH  23  25
ENDBRANCH  10  23
TORSDOF 5
