REMARK  Name = ZINC14543951
REMARK  6 active torsions:
REMARK  status: ('A' for Active; 'I' for Inactive)
REMARK    1  A    between atoms: C_1  and  O_2
REMARK    2  A    between atoms: O_2  and  C_3
REMARK    3  A    between atoms: C_12  and  C_13
REMARK    4  A    between atoms: C_24  and  S_29
REMARK    5  A    between atoms: S_29  and  N_32
REMARK    6  A    between atoms: N_32  and  C_33
REMARK                            x       y       z     vdW  Elec       q    Type
REMARK                         _______ _______ _______ _____ _____    ______ ____
ROOT
ATOM      1  C   UNL     1      -0.336  -2.962  -0.016  0.00  0.00    +0.109 C 
ATOM      2  C   UNL     1      -1.841  -2.931   0.179  0.00  0.00    +0.029 C 
ATOM      3  C   UNL     1      -2.381  -3.399   1.537  0.00  0.00    +0.033 C 
ATOM      4  C   UNL     1      -3.666  -2.576   1.658  0.00  0.00    -0.030 C 
ATOM      5  C   UNL     1      -3.560  -1.462   0.943  0.00  0.00    -0.023 C 
ATOM      6  C   UNL     1      -2.215  -1.423   0.290  0.00  0.00    +0.049 C 
ATOM      7  C   UNL     1      -1.978  -0.799  -1.030  0.00  0.00    -0.018 A 
ATOM      8  C   UNL     1      -2.775   0.211  -1.525  0.00  0.00    +0.034 A 
ATOM      9  C   UNL     1      -2.504   0.771  -2.759  0.00  0.00    +0.109 A 
ATOM     10  C   UNL     1      -1.429   0.319  -3.502  0.00  0.00    +0.030 A 
ATOM     11  C   UNL     1      -0.628  -0.695  -3.018  0.00  0.00    +0.025 A 
ATOM     12  C   UNL     1      -0.896  -1.270  -1.782  0.00  0.00    +0.031 A 
ATOM     13  N   UNL     1      -0.088  -2.323  -1.327  0.00  0.00    -0.336 N 
ATOM     14  H   UNL     1       0.643  -2.639  -1.880  0.00  0.00    +0.147 HD
ENDROOT
BRANCH   1  24
ATOM     15  C   UNL     1       0.721  -0.887   0.870  0.00  0.00    +0.126 A 
ATOM     16  C   UNL     1       1.351  -0.151   1.878  0.00  0.00    +0.046 A 
ATOM     17  C   UNL     1       1.612  -0.707   3.091  0.00  0.00    +0.012 A 
ATOM     18  C   UNL     1       1.245  -2.041   3.340  0.00  0.00    -0.017 A 
ATOM     19  C   UNL     1       1.499  -2.647   4.582  0.00  0.00    +0.008 A 
ATOM     20  C   UNL     1       1.130  -3.941   4.789  0.00  0.00    +0.001 A 
ATOM     21  C   UNL     1       0.502  -4.677   3.785  0.00  0.00    +0.001 A 
ATOM     22  C   UNL     1       0.240  -4.124   2.570  0.00  0.00    +0.009 A 
ATOM     23  C   UNL     1       0.606  -2.790   2.320  0.00  0.00    -0.009 A 
ATOM     24  C   UNL     1       0.347  -2.184   1.079  0.00  0.00    +0.022 A 
BRANCH  15  26
ATOM     25  C   UNL     1       0.888   1.054  -0.491  0.00  0.00    +0.277 C 
ATOM     26  O   UNL     1       0.474  -0.304  -0.332  0.00  0.00    -0.495 OA
ENDBRANCH  15  26
ENDBRANCH   1  24
BRANCH   9  27
ATOM     27  S   UNL     1      -3.529   2.060  -3.386  0.00  0.00    +0.072 S 
ATOM     28  O   UNL     1      -3.484   1.963  -4.803  0.00  0.00    -0.150 OA
ATOM     29  O   UNL     1      -4.747   2.001  -2.657  0.00  0.00    -0.150 OA
BRANCH  27  30
ATOM     30  N   UNL     1      -2.808   3.497  -2.987  0.00  0.00    -0.216 N 
ATOM     31  H   UNL     1      -2.523   4.107  -3.685  0.00  0.00    +0.174 HD
BRANCH  30  32
ATOM     32  C   UNL     1      -2.610   3.830  -1.645  0.00  0.00    +0.048 A 
ATOM     33  C   UNL     1      -3.636   3.653  -0.725  0.00  0.00    +0.024 A 
ATOM     34  C   UNL     1      -3.437   3.983   0.601  0.00  0.00    +0.002 A 
ATOM     35  C   UNL     1      -2.218   4.489   1.014  0.00  0.00    +0.000 A 
ATOM     36  C   UNL     1      -1.194   4.665   0.101  0.00  0.00    +0.002 A 
ATOM     37  C   UNL     1      -1.385   4.332  -1.226  0.00  0.00    +0.024 A 
ENDBRANCH  30  32
ENDBRANCH  27  30
ENDBRANCH   9  27
TORSDOF 5
