REMARK  Name = ZINC09478157
REMARK  7 active torsions:
REMARK  status: ('A' for Active; 'I' for Inactive)
REMARK    1  A    between atoms: C_1  and  C_2
REMARK    2  A    between atoms: C_6  and  N_9
REMARK    3  A    between atoms: C_7  and  C_8
REMARK    4  A    between atoms: C_13  and  C_15
REMARK    5  A    between atoms: C_15  and  N_16
REMARK    6  A    between atoms: C_19  and  C_23
REMARK    7  A    between atoms: C_19  and  C_24
REMARK                            x       y       z     vdW  Elec       q    Type
REMARK                         _______ _______ _______ _____ _____    ______ ____
ROOT
ATOM      1  N   UNL     1       6.155   2.484   5.871  0.00  0.00    -0.215 N 
ATOM      2  C   UNL     1       6.496   3.737   6.232  0.00  0.00    +0.251 C 
ATOM      3  O   UNL     1       6.383   4.747   5.570  0.00  0.00    -0.272 OA
ATOM      4  C   UNL     1       7.049   3.623   7.639  0.00  0.00    +0.136 C 
ATOM      5  N   UNL     1       6.953   2.182   7.932  0.00  0.00    -0.281 N 
ATOM      6  C   UNL     1       6.420   1.602   6.841  0.00  0.00    +0.310 C 
ATOM      7  O   UNL     1       6.203   0.410   6.748  0.00  0.00    -0.252 OA
ATOM      8  C   UNL     1       6.202   4.430   8.625  0.00  0.00    +0.047 C 
ATOM      9  H   UNL     1       7.221   1.738   8.752  0.00  0.00    +0.152 HD
ENDROOT
BRANCH   4  10
ATOM     10  C   UNL     1       8.485   4.077   7.679  0.00  0.00    -0.008 A 
ATOM     11  C   UNL     1       9.472   3.199   8.008  0.00  0.00    +0.007 A 
ATOM     12  C   UNL     1      10.806   3.600   8.044  0.00  0.00    +0.001 A 
ATOM     13  C   UNL     1      11.160   4.884   7.763  0.00  0.00    +0.008 A 
ATOM     14  C   UNL     1      10.168   5.820   7.425  0.00  0.00    -0.018 A 
ATOM     15  C   UNL     1       8.812   5.411   7.382  0.00  0.00    -0.012 A 
ATOM     16  C   UNL     1       7.820   6.348   7.045  0.00  0.00    +0.009 A 
ATOM     17  C   UNL     1       8.174   7.632   6.764  0.00  0.00    +0.001 A 
ATOM     18  C   UNL     1       9.508   8.034   6.806  0.00  0.00    +0.001 A 
ATOM     19  C   UNL     1      10.495   7.155   7.129  0.00  0.00    +0.008 A 
ENDBRANCH   4  10
BRANCH   1  20
ATOM     20  C   UNL     1       5.573   2.131   4.574  0.00  0.00    +0.214 C 
BRANCH  20  25
ATOM     21  N   UNL     1       1.221   1.700   2.578  0.00  0.00    -0.269 N 
ATOM     22  C   UNL     1       1.974   1.985   3.659  0.00  0.00    +0.310 C 
ATOM     23  O   UNL     1       1.440   2.302   4.704  0.00  0.00    -0.252 OA
ATOM     24  N   UNL     1       3.318   1.919   3.580  0.00  0.00    -0.239 N 
ATOM     25  C   UNL     1       4.070   2.205   4.661  0.00  0.00    +0.238 C 
ATOM     26  O   UNL     1       3.538   2.521   5.704  0.00  0.00    -0.274 OA
ATOM     27  H   UNL     1       1.643   1.391   1.760  0.00  0.00    +0.156 HD
ATOM     28  H   UNL     1       3.743   1.666   2.746  0.00  0.00    +0.159 HD
BRANCH  21  34
ATOM     29  C   UNL     1      -3.009   2.829   0.341  0.00  0.00    +0.044 C 
ATOM     30  C   UNL     1      -2.245   2.394   1.565  0.00  0.00    -0.046 A 
ATOM     31  C   UNL     1      -2.918   2.141   2.746  0.00  0.00    +0.004 A 
ATOM     32  C   UNL     1      -2.220   1.747   3.873  0.00  0.00    +0.002 A 
ATOM     33  C   UNL     1      -0.848   1.600   3.820  0.00  0.00    +0.023 A 
ATOM     34  C   UNL     1      -0.169   1.848   2.634  0.00  0.00    +0.038 A 
ATOM     35  C   UNL     1      -0.874   2.243   1.504  0.00  0.00    -0.026 A 
ATOM     36  C   UNL     1      -0.141   2.514   0.215  0.00  0.00    +0.046 C 
ENDBRANCH  21  34
ENDBRANCH  20  25
ENDBRANCH   1  20
TORSDOF 4
