REMARK  Name = ZINC12469139
REMARK  5 active torsions:
REMARK  status: ('A' for Active; 'I' for Inactive)
REMARK    1  A    between atoms: C_4  and  C_30
REMARK    2  A    between atoms: C_6  and  N_7
REMARK    3  A    between atoms: C_11  and  N_15
REMARK    4  A    between atoms: C_18  and  C_21
REMARK    5  A    between atoms: C_18  and  N_24
REMARK                            x       y       z     vdW  Elec       q    Type
REMARK                         _______ _______ _______ _____ _____    ______ ____
ROOT
ATOM      1  N   UNL     1      -1.643  -2.230  -0.517  0.00  0.00    -0.209 N 
ATOM      2  C   UNL     1      -1.892  -3.532  -0.330  0.00  0.00    +0.228 C 
ATOM      3  O   UNL     1      -1.066  -4.419  -0.378  0.00  0.00    -0.275 OA
ATOM      4  C   UNL     1      -3.367  -3.722  -0.051  0.00  0.00    +0.125 C 
ATOM      5  C   UNL     1      -3.933  -2.289  -0.109  0.00  0.00    +0.153 C 
ATOM      6  C   UNL     1      -2.718  -1.439  -0.409  0.00  0.00    +0.244 C 
ATOM      7  O   UNL     1      -2.718  -0.233  -0.535  0.00  0.00    -0.273 OA
ENDROOT
BRANCH   1  13
ATOM      8  C   UNL     1       0.251  -0.855   0.086  0.00  0.00    +0.025 A 
ATOM      9  C   UNL     1       1.514  -0.368  -0.191  0.00  0.00    +0.022 A 
ATOM     10  C   UNL     1       2.169  -0.758  -1.347  0.00  0.00    +0.053 A 
ATOM     11  C   UNL     1       1.560  -1.635  -2.227  0.00  0.00    +0.075 A 
ATOM     12  C   UNL     1       0.298  -2.124  -1.955  0.00  0.00    +0.037 A 
ATOM     13  C   UNL     1      -0.361  -1.735  -0.796  0.00  0.00    +0.045 A 
ATOM     14 CL   UNL     1       3.756  -0.145  -1.692  0.00  0.00    -0.083 Cl
BRANCH  11  15
ATOM     15  C   UNL     1       2.275  -2.056  -3.485  0.00  0.00    +0.419 C 
ATOM     16  F   UNL     1       1.466  -2.939  -4.208  0.00  0.00    -0.166 F 
ATOM     17  F   UNL     1       2.549  -0.928  -4.266  0.00  0.00    -0.166 F 
ATOM     18  F   UNL     1       3.474  -2.692  -3.149  0.00  0.00    -0.166 F 
ENDBRANCH  11  15
ENDBRANCH   1  13
BRANCH   5  19
ATOM     19  N   UNL     1      -4.519  -1.912   1.185  0.00  0.00    -0.291 NA
ATOM     20  C   UNL     1      -5.545  -2.877   1.599  0.00  0.00    +0.084 C 
ATOM     21  C   UNL     1      -6.028  -2.536   3.011  0.00  0.00    +0.013 C 
ATOM     22  C   UNL     1      -6.603  -1.117   3.018  0.00  0.00    +0.015 C 
ATOM     23  C   UNL     1      -5.530  -0.137   2.537  0.00  0.00    +0.013 C 
ATOM     24  C   UNL     1      -5.061  -0.548   1.139  0.00  0.00    +0.084 C 
BRANCH  22  25
ATOM     25  N   UNL     1      -7.015  -0.762   4.383  0.00  0.00    +0.389 N 
ATOM     26  C   UNL     1      -8.010  -1.730   4.860  0.00  0.00    -0.077 C 
ATOM     27  C   UNL     1      -8.382  -1.413   6.310  0.00  0.00    -0.019 C 
ATOM     28  C   UNL     1      -8.967   0.001   6.383  0.00  0.00    -0.004 C 
ATOM     29  C   UNL     1      -7.950   0.994   5.814  0.00  0.00    -0.019 C 
ATOM     30  C   UNL     1      -7.593   0.587   4.383  0.00  0.00    -0.077 C 
ATOM     31  H   UNL     1      -6.211  -0.781   4.992  0.00  0.00    -0.080 HD
ENDBRANCH  22  25
BRANCH  22  32
ATOM     32  C   UNL     1      -7.795  -1.051   2.098  0.00  0.00    +0.200 C 
ATOM     33  O   UNL     1      -8.327  -2.074   1.721  0.00  0.00    -0.278 OA
ATOM     34  N   UNL     1      -8.269   0.144   1.694  0.00  0.00    -0.330 N 
ATOM     35  H   UNL     1      -7.889   0.962   2.050  0.00  0.00    +0.145 HD
ATOM     36  H   UNL     1      -8.991   0.185   1.048  0.00  0.00    +0.145 HD
ENDBRANCH  22  32
ENDBRANCH   5  19
TORSDOF 5
