REMARK  Name = ZINC39687088
REMARK  8 active torsions:
REMARK  status: ('A' for Active; 'I' for Inactive)
REMARK    1  A    between atoms: C_1  and  C_2
REMARK    2  A    between atoms: C_2  and  C_4
REMARK    3  A    between atoms: C_2  and  N_12
REMARK    4  A    between atoms: C_4  and  C_5
REMARK    5  A    between atoms: C_13  and  C_15
REMARK    6  A    between atoms: C_26  and  C_28
REMARK    7  A    between atoms: C_33  and  O_34
REMARK    8  A    between atoms: O_34  and  C_35
REMARK                            x       y       z     vdW  Elec       q    Type
REMARK                         _______ _______ _______ _____ _____    ______ ____
ROOT
ATOM      1  C   UNL     1      -3.034  -0.871  -1.361  0.00  0.00    +0.100 C 
ATOM      2  C   UNL     1      -4.014  -0.157  -0.403  0.00  0.00    +0.121 C 
ATOM      3  N   UNL     1      -4.803   0.743  -1.277  0.00  0.00    -0.296 N 
ATOM      4  C   UNL     1      -5.035  -0.050  -2.508  0.00  0.00    +0.115 C 
ATOM      5  C   UNL     1      -3.710  -0.801  -2.741  0.00  0.00    -0.004 C 
ATOM      6  C   UNL     1      -2.832  -0.029  -3.721  0.00  0.00    -0.010 C 
ATOM      7  C   UNL     1      -3.498  -0.022  -5.100  0.00  0.00    -0.082 C 
ATOM      8  N   UNL     1      -3.685  -1.403  -5.562  0.00  0.00    +0.379 N 
ATOM      9  C   UNL     1      -4.604  -2.112  -4.664  0.00  0.00    -0.082 C 
ATOM     10  C   UNL     1      -3.985  -2.207  -3.267  0.00  0.00    -0.010 C 
ATOM     11  C   UNL     1      -5.216   1.998  -1.012  0.00  0.00    +0.252 C 
ATOM     12  O   UNL     1      -5.941   2.578  -1.797  0.00  0.00    -0.270 OA
ATOM     13  H   UNL     1      -4.068  -1.395  -6.495  0.00  0.00    -0.086 HD
ATOM     14  H   UNL     1      -2.794  -1.877  -5.571  0.00  0.00    -0.086 HD
ENDROOT
BRANCH  11  15
ATOM     15  C   UNL     1      -4.790   2.668   0.231  0.00  0.00    +0.099 A 
ATOM     16  C   UNL     1      -4.619   1.937   1.412  0.00  0.00    +0.020 A 
ATOM     17  C   UNL     1      -4.217   2.612   2.551  0.00  0.00    +0.021 A 
ATOM     18  C   UNL     1      -3.997   3.977   2.490  0.00  0.00    +0.114 A 
ATOM     19  N   UNL     1      -4.164   4.647   1.366  0.00  0.00    -0.220 NA
ATOM     20  C   UNL     1      -4.542   4.049   0.248  0.00  0.00    +0.233 A 
BRANCH  20  21
ATOM     21  O   UNL     1      -4.695   4.775  -0.884  0.00  0.00    -0.437 OA
BRANCH  21  22
ATOM     22  C   UNL     1      -4.542   6.123  -0.804  0.00  0.00    +0.130 A 
ATOM     23  C   UNL     1      -5.657   6.949  -0.789  0.00  0.00    +0.046 A 
ATOM     24  C   UNL     1      -5.498   8.319  -0.707  0.00  0.00    +0.004 A 
ATOM     25  C   UNL     1      -4.231   8.867  -0.639  0.00  0.00    +0.000 A 
ATOM     26  C   UNL     1      -3.118   8.045  -0.654  0.00  0.00    +0.004 A 
ATOM     27  C   UNL     1      -3.271   6.675  -0.731  0.00  0.00    +0.046 A 
ENDBRANCH  21  22
ENDBRANCH  20  21
ENDBRANCH  11  15
BRANCH   1  29
ATOM     28  N   UNL     1      -0.573  -0.842  -1.610  0.00  0.00    -0.312 N 
ATOM     29  C   UNL     1      -1.710  -0.152  -1.389  0.00  0.00    +0.218 C 
ATOM     30  O   UNL     1      -1.667   1.047  -1.213  0.00  0.00    -0.275 OA
ATOM     31  H   UNL     1      -0.607  -1.801  -1.751  0.00  0.00    +0.149 HD
BRANCH  28  33
ATOM     32  C   UNL     1       1.249  -0.005  -0.210  0.00  0.00    +0.028 C 
ATOM     33  C   UNL     1       0.714  -0.143  -1.637  0.00  0.00    +0.074 C 
BRANCH  33  34
ATOM     34  C   UNL     1       1.711  -0.942  -2.479  0.00  0.00    +0.060 C 
BRANCH  34  35
ATOM     35  C   UNL     1       1.245  -0.975  -3.912  0.00  0.00    -0.010 A 
ATOM     36  C   UNL     1       0.497  -2.042  -4.372  0.00  0.00    +0.006 A 
ATOM     37  C   UNL     1       0.069  -2.072  -5.686  0.00  0.00    +0.000 A 
ATOM     38  C   UNL     1       0.389  -1.034  -6.542  0.00  0.00    +0.003 A 
ATOM     39  C   UNL     1       1.136   0.034  -6.084  0.00  0.00    +0.038 A 
ATOM     40  C   UNL     1       1.561   0.068  -4.767  0.00  0.00    +0.127 A 
ATOM     41  F   UNL     1       2.288   1.114  -4.317  0.00  0.00    -0.205 F 
ENDBRANCH  34  35
ENDBRANCH  33  34
ENDBRANCH  28  33
ENDBRANCH   1  29
TORSDOF 7
