REMARK  Name = ZINC39698048
REMARK  6 active torsions:
REMARK  status: ('A' for Active; 'I' for Inactive)
REMARK    1  A    between atoms: C_1  and  C_2
REMARK    2  A    between atoms: C_2  and  O_3
REMARK    3  A    between atoms: O_3  and  C_4
REMARK    4  A    between atoms: C_8  and  C_11
REMARK    5  A    between atoms: C_9  and  O_10
REMARK    6  A    between atoms: N_12  and  N_13
REMARK                            x       y       z     vdW  Elec       q    Type
REMARK                         _______ _______ _______ _____ _____    ______ ____
ROOT
ATOM      1  N   UNL     1       3.426  -4.071   5.736  0.00  0.00    -0.206 N 
ATOM      2  C   UNL     1       3.970  -3.236   6.691  0.00  0.00    +0.227 C 
ATOM      3  N   UNL     1       3.845  -1.941   6.524  0.00  0.00    -0.220 NA
ATOM      4  C   UNL     1       4.491  -1.065   7.498  0.00  0.00    +0.253 C 
ATOM      5  C   UNL     1       4.542  -1.841   8.806  0.00  0.00    +0.115 C 
ATOM      6  C   UNL     1       4.060  -0.992   9.755  0.00  0.00    +0.025 A 
ATOM      7  C   UNL     1       3.961  -1.096  11.165  0.00  0.00    +0.012 A 
ATOM      8  C   UNL     1       3.403  -0.051  11.832  0.00  0.00    +0.001 A 
ATOM      9  C   UNL     1       2.925   1.110  11.216  0.00  0.00    +0.002 A 
ATOM     10  C   UNL     1       2.975   1.321   9.874  0.00  0.00    +0.026 A 
ATOM     11  C   UNL     1       3.572   0.244   9.068  0.00  0.00    +0.046 A 
ATOM     12  N   UNL     1       3.771   0.167   7.787  0.00  0.00    -0.358 N 
ATOM     13  N   UNL     1       4.870  -3.137   8.830  0.00  0.00    -0.171 NA
ATOM     14  N   UNL     1       4.598  -3.802   7.750  0.00  0.00    -0.247 N 
ATOM     15  H   UNL     1       3.500  -5.033   5.834  0.00  0.00    +0.177 HD
ATOM     16  H   UNL     1       4.856  -4.736   7.699  0.00  0.00    +0.192 HD
ATOM     17  H   UNL     1       3.487   0.823   7.131  0.00  0.00    +0.162 HD
ENDROOT
BRANCH   1  19
ATOM     18  C   UNL     1       2.257  -4.313   3.725  0.00  0.00    +0.142 C 
ATOM     19  N   UNL     1       2.768  -3.528   4.624  0.00  0.00    -0.187 NA
BRANCH  18  24
ATOM     20  C   UNL     1       0.802  -1.825   1.306  0.00  0.00    +0.163 A 
ATOM     21  C   UNL     1       0.260  -2.672   0.351  0.00  0.00    +0.064 A 
ATOM     22  C   UNL     1       0.366  -4.045   0.493  0.00  0.00    +0.022 A 
ATOM     23  C   UNL     1       1.013  -4.584   1.587  0.00  0.00    +0.028 A 
ATOM     24  C   UNL     1       1.565  -3.742   2.556  0.00  0.00    +0.041 A 
ATOM     25  C   UNL     1       1.462  -2.353   2.409  0.00  0.00    +0.167 A 
ATOM     26 BR   UNL     1      -0.379  -5.188  -0.816  0.00  0.00    -0.050 Br
BRANCH  25  27
ATOM     27  O   UNL     1       1.999  -1.526   3.343  0.00  0.00    -0.503 OA
ATOM     28  H   UNL     1       1.394  -1.299   4.063  0.00  0.00    +0.292 HD
ENDBRANCH  25  27
BRANCH  20  29
ATOM     29  O   UNL     1       0.693  -0.477   1.160  0.00  0.00    -0.489 OA
BRANCH  29  31
ATOM     30  C   UNL     1      -0.019   1.526   0.010  0.00  0.00    +0.048 C 
ATOM     31  C   UNL     1       0.002  -0.004   0.002  0.00  0.00    +0.226 C 
ENDBRANCH  29  31
ENDBRANCH  20  29
ENDBRANCH  18  24
ENDBRANCH   1  19
TORSDOF 5
