REMARK  Name = ZINC34785431
REMARK  4 active torsions:
REMARK  status: ('A' for Active; 'I' for Inactive)
REMARK    1  A    between atoms: C_2  and  C_3
REMARK    2  A    between atoms: C_3  and  N_4
REMARK    3  A    between atoms: N_12  and  C_13
REMARK    4  A    between atoms: C_14  and  C_22
REMARK                            x       y       z     vdW  Elec       q    Type
REMARK                         _______ _______ _______ _____ _____    ______ ____
ROOT
ATOM      1  N   UNL     1       1.367  -1.681   1.106  0.00  0.00    +0.384 N 
ATOM      2  C   UNL     1       0.332  -2.710   0.936  0.00  0.00    -0.059 C 
ATOM      3  C   UNL     1       0.309  -3.618   2.170  0.00  0.00    +0.091 C 
ATOM      4  N   UNL     1       1.664  -4.150   2.383  0.00  0.00    -0.289 N 
ATOM      5  C   UNL     1       2.786  -3.199   2.404  0.00  0.00    +0.091 C 
ATOM      6  C   UNL     1       2.693  -2.310   1.159  0.00  0.00    -0.059 C 
ATOM      7  C   UNL     1       1.871  -5.470   2.556  0.00  0.00    +0.307 C 
ATOM      8  O   UNL     1       0.925  -6.230   2.627  0.00  0.00    -0.252 OA
ATOM      9  N   UNL     1       3.128  -5.948   2.650  0.00  0.00    -0.263 N 
ATOM     10  H   UNL     1       3.880  -5.336   2.668  0.00  0.00    +0.157 HD
ATOM     11  H   UNL     1       1.200  -1.179   1.965  0.00  0.00    -0.081 HD
ENDROOT
BRANCH   9  12
ATOM     12  C   UNL     1       3.345  -7.316   2.720  0.00  0.00    +0.086 A 
ATOM     13  C   UNL     1       4.557  -7.982   2.824  0.00  0.00    +0.068 A 
ATOM     14  C   UNL     1       4.514  -9.433   2.881  0.00  0.00    -0.023 A 
ATOM     15  C   UNL     1       3.269  -9.951   2.823  0.00  0.00    -0.004 A 
ATOM     16  S   UNL     1       2.202  -8.546   2.704  0.00  0.00    -0.077 S 
ATOM     17  C   UNL     1       2.896 -11.401   2.858  0.00  0.00    +0.043 C 
ATOM     18  C   UNL     1       4.160 -12.231   2.590  0.00  0.00    +0.005 C 
ATOM     19  C   UNL     1       5.293 -11.710   3.479  0.00  0.00    +0.005 C 
ATOM     20  C   UNL     1       5.739 -10.328   2.998  0.00  0.00    +0.037 C 
BRANCH  13  21
ATOM     21  C   UNL     1       5.827  -7.252   2.875  0.00  0.00    +0.244 C 
ATOM     22  O   UNL     1       6.288  -6.906   3.947  0.00  0.00    -0.270 OA
ATOM     23  N   UNL     1       6.485  -6.965   1.734  0.00  0.00    -0.325 N 
ATOM     24  H   UNL     1       6.118  -7.241   0.880  0.00  0.00    +0.145 HD
ATOM     25  H   UNL     1       7.326  -6.482   1.767  0.00  0.00    +0.145 HD
ENDBRANCH  13  21
ENDBRANCH   9  12
BRANCH   1  26
ATOM     26  C   UNL     1       1.315  -0.746  -0.025  0.00  0.00    -0.052 C 
BRANCH  26  28
ATOM     27  C   UNL     1      -0.017   1.300  -0.005  0.00  0.00    +0.002 C 
ATOM     28  C   UNL     1       0.000  -0.010  -0.009  0.00  0.00    -0.053 C 
ENDBRANCH  26  28
ENDBRANCH   1  26
TORSDOF 4
