REMARK  Name = ZINC12641855
REMARK  8 active torsions:
REMARK  status: ('A' for Active; 'I' for Inactive)
REMARK    1  A    between atoms: C_1  and  C_2
REMARK    2  A    between atoms: C_2  and  C_4
REMARK    3  A    between atoms: C_2  and  S_17
REMARK    4  A    between atoms: N_6  and  C_7
REMARK    5  A    between atoms: C_10  and  N_14
REMARK    6  A    between atoms: S_17  and  C_18
REMARK    7  A    between atoms: C_21  and  C_24
REMARK    8  A    between atoms: N_22  and  C_23
REMARK                            x       y       z     vdW  Elec       q    Type
REMARK                         _______ _______ _______ _____ _____    ______ ____
ROOT
ATOM      1  C   UNL     1      -5.034   1.356   1.977  0.00  0.00    +0.029 C 
ATOM      2  C   UNL     1      -4.681   2.514   1.041  0.00  0.00    +0.137 C 
ENDROOT
BRANCH   2   3
ATOM      3  C   UNL     1      -5.808   2.731   0.064  0.00  0.00    +0.230 C 
ATOM      4  O   UNL     1      -5.768   2.214  -1.033  0.00  0.00    -0.274 OA
ATOM      5  N   UNL     1      -6.860   3.500   0.408  0.00  0.00    -0.283 N 
ATOM      6  H   UNL     1      -6.856   3.977   1.253  0.00  0.00    +0.155 HD
BRANCH   5   7
ATOM      7  C   UNL     1      -7.958   3.610  -0.453  0.00  0.00    +0.052 A 
ATOM      8  C   UNL     1      -8.227   2.602  -1.370  0.00  0.00    +0.027 A 
ATOM      9  C   UNL     1      -9.311   2.714  -2.218  0.00  0.00    +0.034 A 
ATOM     10  C   UNL     1     -10.129   3.828  -2.156  0.00  0.00    +0.128 A 
ATOM     11  C   UNL     1      -9.865   4.833  -1.244  0.00  0.00    +0.054 A 
ATOM     12  C   UNL     1      -8.785   4.725  -0.389  0.00  0.00    +0.064 A 
ATOM     13 CL   UNL     1      -8.457   5.984   0.761  0.00  0.00    -0.082 Cl
BRANCH  10  14
ATOM     14  N   UNL     1     -11.290   3.943  -3.067  0.00  0.00    +0.056 N 
ATOM     15  O   UNL     1     -11.524   3.058  -3.870  0.00  0.00    -0.126 OA
ATOM     16  O   UNL     1     -12.011   4.923  -3.013  0.00  0.00    -0.126 OA
ENDBRANCH  10  14
ENDBRANCH   5   7
ENDBRANCH   2   3
BRANCH   2  17
ATOM     17  S   UNL     1      -3.165   2.118   0.135  0.00  0.00    -0.074 S 
BRANCH  17  18
ATOM     18  C   UNL     1      -2.016   2.068   1.470  0.00  0.00    +0.192 A 
ATOM     19  N   UNL     1      -2.286   2.273   2.740  0.00  0.00    -0.122 NA
ATOM     20  N   UNL     1      -1.215   2.167   3.442  0.00  0.00    -0.128 NA
ATOM     21  C   UNL     1      -0.196   1.881   2.664  0.00  0.00    +0.165 A 
ATOM     22  N   UNL     1      -0.678   1.806   1.378  0.00  0.00    -0.305 N 
ATOM     23  C   UNL     1       0.085   1.512   0.163  0.00  0.00    +0.153 C 
BRANCH  21  24
ATOM     24  C   UNL     1       1.205   1.680   3.091  0.00  0.00    +0.019 A 
ATOM     25  C   UNL     1       2.107   1.029   2.248  0.00  0.00    +0.014 A 
ATOM     26  C   UNL     1       3.414   0.847   2.649  0.00  0.00    +0.039 A 
ATOM     27  C   UNL     1       3.830   1.302   3.891  0.00  0.00    +0.123 A 
ATOM     28  C   UNL     1       2.937   1.944   4.734  0.00  0.00    +0.039 A 
ATOM     29  C   UNL     1       1.629   2.135   4.340  0.00  0.00    +0.014 A 
ATOM     30  F   UNL     1       5.110   1.117   4.280  0.00  0.00    -0.205 F 
ENDBRANCH  21  24
ENDBRANCH  17  18
ENDBRANCH   2  17
TORSDOF 6
