REMARK  Name = ZINC43575699
REMARK  5 active torsions:
REMARK  status: ('A' for Active; 'I' for Inactive)
REMARK    1  A    between atoms: C_1  and  C_2
REMARK    2  A    between atoms: C_7  and  N_12
REMARK    3  A    between atoms: C_9  and  C_11
REMARK    4  A    between atoms: C_13  and  C_17
REMARK    5  A    between atoms: C_20  and  N_24
REMARK                            x       y       z     vdW  Elec       q    Type
REMARK                         _______ _______ _______ _____ _____    ______ ____
ROOT
ATOM      1  N   UNL     1       1.482  -2.567   2.398  0.00  0.00    -0.222 N 
ATOM      2  C   UNL     1       0.959  -3.248   3.448  0.00  0.00    +0.185 A 
ATOM      3  N   UNL     1       1.933  -3.426   4.316  0.00  0.00    -0.108 NA
ATOM      4  N   UNL     1       3.023  -2.906   3.881  0.00  0.00    -0.023 NA
ATOM      5  N   UNL     1       2.836  -2.371   2.724  0.00  0.00    -0.043 NA
ENDROOT
BRANCH   1  11
ATOM      6  C   UNL     1       0.461   1.327  -0.472  0.00  0.00    +0.008 C 
ATOM      7  C   UNL     1       0.262  -0.178  -0.280  0.00  0.00    -0.009 C 
ATOM      8  C   UNL     1       0.832  -0.927  -1.486  0.00  0.00    +0.004 C 
ATOM      9  C   UNL     1       0.633  -2.431  -1.293  0.00  0.00    +0.002 C 
ATOM     10  C   UNL     1       1.358  -2.883  -0.024  0.00  0.00    +0.027 C 
ATOM     11  C   UNL     1       0.788  -2.134   1.183  0.00  0.00    +0.114 C 
ATOM     12  C   UNL     1       0.987  -0.630   0.990  0.00  0.00    +0.013 C 
ATOM     13  C   UNL     1       0.417   0.119   2.196  0.00  0.00    +0.010 C 
ENDBRANCH   1  11
BRANCH   2  14
ATOM     14  C   UNL     1      -0.441  -3.702   3.591  0.00  0.00    +0.056 A 
ATOM     15  C   UNL     1      -1.071  -4.369   2.539  0.00  0.00    +0.016 A 
ATOM     16  C   UNL     1      -2.374  -4.792   2.675  0.00  0.00    +0.023 A 
ATOM     17  C   UNL     1      -3.065  -4.556   3.860  0.00  0.00    +0.027 A 
ATOM     18  C   UNL     1      -2.443  -3.893   4.910  0.00  0.00    +0.061 A 
ATOM     19  C   UNL     1      -1.134  -3.470   4.783  0.00  0.00    +0.136 A 
ATOM     20  F   UNL     1      -0.527  -2.830   5.806  0.00  0.00    -0.205 F 
BRANCH  17  21
ATOM     21  N   UNL     1      -4.385  -4.986   3.993  0.00  0.00    -0.358 N 
ATOM     22  H   UNL     1      -4.820  -5.449   3.260  0.00  0.00    +0.142 HD
ATOM     23  H   UNL     1      -4.867  -4.822   4.818  0.00  0.00    +0.142 HD
ENDBRANCH  17  21
ENDBRANCH   2  14
TORSDOF 3
