REMARK  Name = ZINC32828550
REMARK  12 active torsions:
REMARK  status: ('A' for Active; 'I' for Inactive)
REMARK    1  A    between atoms: C_1  and  C_2
REMARK    2  A    between atoms: C_2  and  C_3
REMARK    3  A    between atoms: C_2  and  C_4
REMARK    4  A    between atoms: C_2  and  C_5
REMARK    5  A    between atoms: N_13  and  C_17
REMARK    6  A    between atoms: C_17  and  C_18
REMARK    7  A    between atoms: C_18  and  O_20
REMARK    8  A    between atoms: O_20  and  C_21
REMARK    9  A    between atoms: C_21  and  C_22
REMARK   10  A    between atoms: N_24  and  C_25
REMARK   11  A    between atoms: N_24  and  C_26
REMARK   12  A    between atoms: C_26  and  C_27
REMARK                            x       y       z     vdW  Elec       q    Type
REMARK                         _______ _______ _______ _____ _____    ______ ____
ROOT
ATOM      1  C   UNL     1      -1.329   1.940   0.019  0.00  0.00    +0.238 C 
ENDROOT
BRANCH   1  10
ATOM      2  C   UNL     1      -5.221  -1.510   3.126  0.00  0.00    -0.005 C 
ATOM      3  C   UNL     1      -3.837  -1.953   2.648  0.00  0.00    +0.006 C 
ATOM      4  C   UNL     1      -3.784  -1.898   1.119  0.00  0.00    +0.035 C 
ATOM      5  C   UNL     1      -4.072  -0.476   0.650  0.00  0.00    +0.113 C 
ATOM      6  C   UNL     1      -5.441  -0.014   1.137  0.00  0.00    +0.035 C 
ATOM      7  C   UNL     1      -5.487  -0.075   2.666  0.00  0.00    +0.006 C 
ATOM      8  C   UNL     1      -2.994   0.466   1.135  0.00  0.00    +0.247 C 
ATOM      9  O   UNL     1      -2.699   0.714   2.284  0.00  0.00    -0.273 OA
ATOM     10  N   UNL     1      -2.430   0.973   0.019  0.00  0.00    -0.213 N 
ATOM     11  C   UNL     1      -3.004   0.486  -1.088  0.00  0.00    +0.310 C 
ATOM     12  O   UNL     1      -2.672   0.798  -2.215  0.00  0.00    -0.252 OA
ATOM     13  N   UNL     1      -3.990  -0.390  -0.814  0.00  0.00    -0.285 N 
ATOM     14  H   UNL     1      -4.670  -0.987  -1.439  0.00  0.00    +0.151 HD
BRANCH   2  16
ATOM     15  C   UNL     1      -4.213  -0.646   5.243  0.00  0.00    +0.011 C 
ATOM     16  C   UNL     1      -5.277  -1.575   4.653  0.00  0.00    -0.035 C 
ATOM     17  C   UNL     1      -6.662  -1.132   5.131  0.00  0.00    +0.011 C 
ATOM     18  C   UNL     1      -5.014  -3.010   5.113  0.00  0.00    +0.011 C 
ENDBRANCH   2  16
ENDBRANCH   1  10
BRANCH   1  19
ATOM     19  C   UNL     1      -0.014   1.204   0.009  0.00  0.00    +0.326 C 
ATOM     20  O   UNL     1       0.002  -0.004   0.002  0.00  0.00    -0.249 OA
BRANCH  19  21
ATOM     21  O   UNL     1       1.139   1.891   0.001  0.00  0.00    -0.454 OA
BRANCH  21  22
ATOM     22  C   UNL     1       2.367   1.117  -0.015  0.00  0.00    +0.327 C 
BRANCH  22  23
ATOM     23  C   UNL     1       3.550   2.051  -0.021  0.00  0.00    +0.253 C 
ATOM     24  O   UNL     1       3.374   3.251  -0.013  0.00  0.00    -0.272 OA
ATOM     25  N   UNL     1       4.802   1.553  -0.035  0.00  0.00    -0.297 N 
ATOM     26  C   UNL     1       5.014   0.103  -0.045  0.00  0.00    +0.132 C 
BRANCH  25  27
ATOM     27  C   UNL     1       5.952   2.461  -0.042  0.00  0.00    +0.147 C 
BRANCH  27  28
ATOM     28  C   UNL     1       6.359   2.765   1.377  0.00  0.00    +0.023 A 
ATOM     29  C   UNL     1       5.808   3.848   2.039  0.00  0.00    +0.129 A 
ATOM     30  C   UNL     1       6.179   4.123   3.345  0.00  0.00    +0.039 A 
ATOM     31  C   UNL     1       7.108   3.322   3.982  0.00  0.00    +0.004 A 
ATOM     32  C   UNL     1       7.663   2.244   3.319  0.00  0.00    +0.020 A 
ATOM     33  C   UNL     1       7.289   1.965   2.016  0.00  0.00    +0.048 A 
ATOM     34 CL   UNL     1       7.986   0.610   1.185  0.00  0.00    -0.083 Cl
ATOM     35  F   UNL     1       4.904   4.634   1.414  0.00  0.00    -0.205 F 
ENDBRANCH  27  28
ENDBRANCH  25  27
ENDBRANCH  22  23
ENDBRANCH  21  22
ENDBRANCH  19  21
ENDBRANCH   1  19
TORSDOF 8
