REMARK  Name = ZINC31823551
REMARK  8 active torsions:
REMARK  status: ('A' for Active; 'I' for Inactive)
REMARK    1  A    between atoms: C_1  and  C_2
REMARK    2  A    between atoms: C_3  and  C_28
REMARK    3  A    between atoms: C_7  and  N_27
REMARK    4  A    between atoms: C_9  and  S_11
REMARK    5  A    between atoms: S_11  and  C_12
REMARK    6  A    between atoms: C_12  and  C_14
REMARK    7  A    between atoms: C_12  and  C_15
REMARK    8  A    between atoms: C_21  and  C_24
REMARK                            x       y       z     vdW  Elec       q    Type
REMARK                         _______ _______ _______ _____ _____    ______ ____
ROOT
ATOM      1  S   UNL     1       1.002   3.852   0.711  0.00  0.00    -0.073 S 
ENDROOT
BRANCH   1  10
ATOM      2  C   UNL     1       0.391  -3.050   0.893  0.00  0.00    +0.045 C 
ATOM      3  C   UNL     1       1.521  -2.057   0.800  0.00  0.00    -0.028 A 
ATOM      4  C   UNL     1       2.791  -2.480   0.729  0.00  0.00    -0.008 A 
ATOM      5  S   UNL     1       3.730  -0.966   0.639  0.00  0.00    -0.073 S 
ATOM      6  C   UNL     1       2.390   0.194   0.699  0.00  0.00    +0.115 A 
ATOM      7  C   UNL     1       1.246  -0.630   0.788  0.00  0.00    +0.050 A 
ATOM      8  C   UNL     1       0.001   0.056   0.853  0.00  0.00    +0.129 A 
ATOM      9  N   UNL     1      -0.012   1.377   0.826  0.00  0.00    -0.207 NA
ATOM     10  C   UNL     1       1.103   2.093   0.741  0.00  0.00    +0.192 A 
ATOM     11  N   UNL     1       2.292   1.508   0.677  0.00  0.00    -0.214 NA
ATOM     12  C   UNL     1       3.304  -3.897   0.727  0.00  0.00    +0.052 C 
BRANCH   8  13
ATOM     13  N   UNL     1      -1.183  -0.653   0.942  0.00  0.00    -0.343 N 
ATOM     14  H   UNL     1      -2.142  -0.118   0.992  0.00  0.00    +0.144 HD
ATOM     15  H   UNL     1      -1.165  -1.753   0.964  0.00  0.00    +0.144 HD
ENDBRANCH   8  13
ENDBRANCH   1  10
BRANCH   1  16
ATOM     16  C   UNL     1      -0.792   4.065   0.819  0.00  0.00    +0.137 C 
ATOM     17  C   UNL     1      -1.286   3.547   2.171  0.00  0.00    +0.029 C 
BRANCH  16  18
ATOM     18  C   UNL     1      -1.133   5.527   0.686  0.00  0.00    +0.229 C 
ATOM     19  O   UNL     1      -0.285   6.369   0.895  0.00  0.00    -0.274 OA
ATOM     20  N   UNL     1      -2.380   5.899   0.335  0.00  0.00    -0.300 N 
ATOM     21  C   UNL     1      -3.417   4.891   0.078  0.00  0.00    +0.108 C 
ATOM     22  C   UNL     1      -4.023   5.148  -1.305  0.00  0.00    +0.020 C 
ATOM     23  C   UNL     1      -4.520   6.594  -1.380  0.00  0.00    +0.016 C 
ATOM     24  C   UNL     1      -3.341   7.550  -1.183  0.00  0.00    +0.092 C 
ATOM     25  C   UNL     1      -2.729   7.320   0.207  0.00  0.00    +0.120 C 
BRANCH  24  26
ATOM     26  C   UNL     1      -3.825   8.973  -1.290  0.00  0.00    +0.215 C 
ATOM     27  O   UNL     1      -3.691   9.731  -0.353  0.00  0.00    -0.276 OA
ATOM     28  N   UNL     1      -4.407   9.404  -2.427  0.00  0.00    -0.329 N 
ATOM     29  H   UNL     1      -4.761  10.442  -2.505  0.00  0.00    +0.145 HD
ATOM     30  H   UNL     1      -4.529   8.716  -3.277  0.00  0.00    +0.145 HD
ENDBRANCH  24  26
ENDBRANCH  16  18
ENDBRANCH   1  16
TORSDOF 5
