REMARK  Name = ZINC05345520
REMARK  8 active torsions:
REMARK  status: ('A' for Active; 'I' for Inactive)
REMARK    1  A    between atoms: C_1  and  C_2
REMARK    2  A    between atoms: C_6  and  O_26
REMARK    3  A    between atoms: C_7  and  O_25
REMARK    4  A    between atoms: C_12  and  C_13
REMARK    5  A    between atoms: C_13  and  C_14
REMARK    6  A    between atoms: N_16  and  C_17
REMARK    7  A    between atoms: C_17  and  C_18
REMARK    8  A    between atoms: C_18  and  C_19
REMARK                            x       y       z     vdW  Elec       q    Type
REMARK                         _______ _______ _______ _____ _____    ______ ____
ROOT
ATOM      1  C   UNL     1       3.663   2.248  -0.020  0.00  0.00    +0.045 C 
ATOM      2  C   UNL     1       2.376   1.463  -0.012  0.00  0.00    -0.029 A 
ATOM      3  C   UNL     1       2.389  -0.002  -0.021  0.00  0.00    +0.025 A 
ATOM      4  C   UNL     1       3.595  -0.712  -0.037  0.00  0.00    +0.015 A 
ATOM      5  C   UNL     1       3.580  -2.077  -0.044  0.00  0.00    +0.050 A 
ATOM      6  C   UNL     1       2.373  -2.770  -0.036  0.00  0.00    +0.162 A 
ATOM      7  C   UNL     1       1.166  -2.084  -0.021  0.00  0.00    +0.202 A 
ATOM      8  C   UNL     1       1.164  -0.693  -0.013  0.00  0.00    +0.184 A 
ATOM      9  O   UNL     1       0.002  -0.004   0.002  0.00  0.00    -0.418 OA
ATOM     10  C   UNL     1      -0.016   1.338   0.009  0.00  0.00    +0.341 A 
ATOM     11  O   UNL     1      -1.088   1.917   0.018  0.00  0.00    -0.245 OA
ATOM     12  C   UNL     1       1.174   2.095   0.002  0.00  0.00    +0.049 A 
ENDROOT
BRANCH   7  13
ATOM     13  O   UNL     1      -0.010  -2.769  -0.013  0.00  0.00    -0.501 OA
ATOM     14  H   UNL     1      -0.359  -2.962  -0.894  0.00  0.00    +0.292 HD
ENDBRANCH   7  13
BRANCH   6  15
ATOM     15  O   UNL     1       2.375  -4.129  -0.044  0.00  0.00    -0.503 OA
ATOM     16  H   UNL     1       2.367  -4.517  -0.929  0.00  0.00    +0.292 HD
ENDBRANCH   6  15
BRANCH  12  17
ATOM     17  C   UNL     1       1.111   3.600   0.011  0.00  0.00    +0.138 C 
BRANCH  17  18
ATOM     18  C   UNL     1       1.104   4.095   1.434  0.00  0.00    +0.218 C 
ATOM     19  O   UNL     1       1.146   3.302   2.352  0.00  0.00    -0.275 OA
ATOM     20  N   UNL     1       1.052   5.417   1.688  0.00  0.00    -0.315 N 
ATOM     21  H   UNL     1       1.019   6.051   0.955  0.00  0.00    +0.149 HD
BRANCH  20  22
ATOM     22  C   UNL     1       1.045   5.898   3.072  0.00  0.00    +0.108 C 
BRANCH  22  23
ATOM     23  C   UNL     1       0.982   7.426   3.081  0.00  0.00    +0.049 C 
BRANCH  23  24
ATOM     24  C   UNL     1       0.974   7.921   4.504  0.00  0.00    -0.072 C 
ATOM     25  C   UNL     1       2.105   8.261   5.034  0.00  0.00    -0.028 C 
ATOM     26  C   UNL     1       2.258   8.761   6.441  0.00  0.00    +0.027 C 
ATOM     27  C   UNL     1       0.901   9.208   6.992  0.00  0.00    +0.004 C 
ATOM     28  C   UNL     1      -0.119   8.093   6.729  0.00  0.00    +0.005 C 
ATOM     29  C   UNL     1      -0.344   7.994   5.217  0.00  0.00    +0.030 C 
ENDBRANCH  23  24
ENDBRANCH  22  23
ENDBRANCH  20  22
ENDBRANCH  17  18
ENDBRANCH  12  17
TORSDOF 7
