REMARK  Name = ZINC09088237
REMARK  8 active torsions:
REMARK  status: ('A' for Active; 'I' for Inactive)
REMARK    1  A    between atoms: C_1  and  C_2
REMARK    2  A    between atoms: C_2  and  C_3
REMARK    3  A    between atoms: C_6  and  C_9
REMARK    4  A    between atoms: N_10  and  N_11
REMARK    5  A    between atoms: C_12  and  C_14
REMARK    6  A    between atoms: C_15  and  C_25
REMARK    7  A    between atoms: C_25  and  S_26
REMARK    8  A    between atoms: S_26  and  C_27
REMARK                            x       y       z     vdW  Elec       q    Type
REMARK                         _______ _______ _______ _____ _____    ______ ____
ROOT
ATOM      1  C   UNL     1       2.042   0.677  -0.014  0.00  0.00    +0.173 A 
ATOM      2  C   UNL     1       1.272   1.805  -0.000  0.00  0.00    +0.089 A 
ATOM      3  N   UNL     1      -0.017   1.398   0.010  0.00  0.00    -0.191 N 
ATOM      4  N   UNL     1       0.002  -0.004   0.002  0.00  0.00    -0.058 NA
ATOM      5  N   UNL     1       1.229  -0.394  -0.012  0.00  0.00    -0.124 NA
ATOM      6  C   UNL     1      -1.151   2.217   0.020  0.00  0.00    +0.240 A 
ATOM      7  C   UNL     1      -2.543   1.756   0.025  0.00  0.00    +0.206 A 
ATOM      8  N   UNL     1      -3.322   2.803   0.034  0.00  0.00    -0.032 NA
ATOM      9  O   UNL     1      -2.499   3.956   0.036  0.00  0.00    -0.239 OA
ATOM     10  N   UNL     1      -1.151   3.520   0.032  0.00  0.00    -0.027 NA
ATOM     11  N   UNL     1      -2.961   0.430   0.020  0.00  0.00    -0.337 N 
ATOM     12  H   UNL     1      -2.305  -0.285   0.012  0.00  0.00    +0.144 HD
ATOM     13  H   UNL     1      -3.908   0.220   0.024  0.00  0.00    +0.144 HD
ENDROOT
BRANCH   1  15
ATOM     14  N   UNL     1       4.161  -0.543  -0.040  0.00  0.00    -0.202 N 
ATOM     15  C   UNL     1       3.516   0.640  -0.028  0.00  0.00    +0.285 C 
ATOM     16  O   UNL     1       4.151   1.678  -0.028  0.00  0.00    -0.267 OA
ATOM     17  H   UNL     1       3.655  -1.371  -0.040  0.00  0.00    +0.178 HD
BRANCH  14  19
ATOM     18  C   UNL     1       6.181  -1.718  -0.065  0.00  0.00    +0.138 C 
ATOM     19  N   UNL     1       5.561  -0.579  -0.053  0.00  0.00    -0.187 NA
BRANCH  18  23
ATOM     20  C   UNL     1      10.424  -1.825  -0.106  0.00  0.00    -0.048 A 
ATOM     21  C   UNL     1       9.706  -3.007  -0.105  0.00  0.00    +0.004 A 
ATOM     22  C   UNL     1       8.327  -2.980  -0.092  0.00  0.00    +0.010 A 
ATOM     23  C   UNL     1       7.656  -1.755  -0.079  0.00  0.00    -0.005 A 
ATOM     24  C   UNL     1       8.387  -0.566  -0.085  0.00  0.00    +0.010 A 
ATOM     25  C   UNL     1       9.766  -0.608  -0.093  0.00  0.00    +0.004 A 
BRANCH  20  27
ATOM     26  C   UNL     1      12.426  -1.867  -1.568  0.00  0.00    +0.009 C 
ATOM     27  C   UNL     1      11.931  -1.863  -0.121  0.00  0.00    +0.032 C 
ENDBRANCH  20  27
ENDBRANCH  18  23
ENDBRANCH  14  19
ENDBRANCH   1  15
BRANCH   2  28
ATOM     28  C   UNL     1       1.764   3.230   0.002  0.00  0.00    +0.132 C 
BRANCH  28  29
ATOM     29  S   UNL     1       1.978   3.793   1.713  0.00  0.00    -0.119 S 
BRANCH  29  30
ATOM     30  C   UNL     1       2.549   5.451   1.548  0.00  0.00    +0.008 A 
ATOM     31  C   UNL     1       2.732   6.003   0.286  0.00  0.00    +0.015 A 
ATOM     32  C   UNL     1       3.173   7.305   0.160  0.00  0.00    +0.001 A 
ATOM     33  C   UNL     1       3.446   8.056   1.289  0.00  0.00    +0.000 A 
ATOM     34  C   UNL     1       3.271   7.509   2.547  0.00  0.00    +0.001 A 
ATOM     35  C   UNL     1       2.824   6.209   2.680  0.00  0.00    +0.015 A 
ENDBRANCH  29  30
ENDBRANCH  28  29
ENDBRANCH   2  28
TORSDOF 7
