REMARK  Name = ZINC01865633
REMARK  6 active torsions:
REMARK  status: ('A' for Active; 'I' for Inactive)
REMARK    1  A    between atoms: C_4  and  C_7
REMARK    2  A    between atoms: C_14  and  S_28
REMARK    3  A    between atoms: C_19  and  C_22
REMARK    4  A    between atoms: S_28  and  C_29
REMARK    5  A    between atoms: C_29  and  C_30
REMARK    6  A    between atoms: C_33  and  N_36
REMARK                            x       y       z     vdW  Elec       q    Type
REMARK                         _______ _______ _______ _____ _____    ______ ____
ROOT
ATOM      1  C   UNL     1       3.895  -0.464   0.044  0.00  0.00    +0.082 C 
ATOM      2  C   UNL     1       3.938  -1.427   1.223  0.00  0.00    +0.055 C 
ATOM      3  C   UNL     1       5.173  -2.319   1.191  0.00  0.00    -0.022 A 
ATOM      4  C   UNL     1       5.641  -2.935   2.435  0.00  0.00    +0.051 A 
ATOM      5  C   UNL     1       5.053  -2.785   3.725  0.00  0.00    +0.129 A 
ATOM      6  N   UNL     1       5.651  -3.443   4.715  0.00  0.00    -0.207 NA
ATOM      7  C   UNL     1       6.728  -4.199   4.555  0.00  0.00    +0.191 A 
ATOM      8  N   UNL     1       7.323  -4.378   3.374  0.00  0.00    -0.215 NA
ATOM      9  C   UNL     1       6.786  -3.757   2.341  0.00  0.00    +0.115 A 
ATOM     10  S   UNL     1       7.196  -3.684   0.629  0.00  0.00    -0.072 S 
ATOM     11  C   UNL     1       5.889  -2.599   0.087  0.00  0.00    +0.013 A 
ATOM     12  C   UNL     1       5.708  -2.134  -1.332  0.00  0.00    +0.114 C 
ATOM     13  S   UNL     1       4.043  -1.419  -1.499  0.00  0.00    -0.139 S 
ATOM     14  N   UNL     1       3.930  -2.005   3.934  0.00  0.00    -0.343 N 
ATOM     15  H   UNL     1       3.280  -1.889   3.224  0.00  0.00    +0.144 HD
ATOM     16  H   UNL     1       3.793  -1.573   4.792  0.00  0.00    +0.144 HD
ENDROOT
BRANCH   1  20
ATOM     17  C   UNL     1       0.190   1.661   0.062  0.00  0.00    +0.000 A 
ATOM     18  C   UNL     1       1.384   2.353   0.148  0.00  0.00    +0.000 A 
ATOM     19  C   UNL     1       2.583   1.665   0.142  0.00  0.00    +0.005 A 
ATOM     20  C   UNL     1       2.588   0.285   0.051  0.00  0.00    -0.034 A 
ATOM     21  C   UNL     1       1.394  -0.406  -0.034  0.00  0.00    +0.005 A 
ATOM     22  C   UNL     1       0.195   0.282  -0.030  0.00  0.00    +0.000 A 
ENDBRANCH   1  20
BRANCH  12  23
ATOM     23  C   UNL     1       5.861  -3.303  -2.271  0.00  0.00    -0.030 A 
ATOM     24  C   UNL     1       5.008  -4.386  -2.171  0.00  0.00    +0.005 A 
ATOM     25  C   UNL     1       5.148  -5.458  -3.033  0.00  0.00    +0.000 A 
ATOM     26  C   UNL     1       6.140  -5.446  -3.994  0.00  0.00    +0.000 A 
ATOM     27  C   UNL     1       6.993  -4.363  -4.095  0.00  0.00    +0.000 A 
ATOM     28  C   UNL     1       6.850  -3.289  -3.237  0.00  0.00    +0.005 A 
ENDBRANCH  12  23
BRANCH   7  29
ATOM     29  S   UNL     1       7.404  -5.006   5.967  0.00  0.00    -0.081 S 
BRANCH  29  30
ATOM     30  C   UNL     1       6.313  -4.502   7.326  0.00  0.00    +0.112 C 
BRANCH  30  31
ATOM     31  C   UNL     1       6.786  -5.132   8.611  0.00  0.00    -0.037 A 
ATOM     32  C   UNL     1       6.309  -6.373   8.989  0.00  0.00    +0.007 A 
ATOM     33  C   UNL     1       6.743  -6.950  10.167  0.00  0.00    +0.033 A 
ATOM     34  C   UNL     1       7.655  -6.287  10.967  0.00  0.00    +0.126 A 
ATOM     35  C   UNL     1       8.133  -5.046  10.589  0.00  0.00    +0.033 A 
ATOM     36  C   UNL     1       7.702  -4.471   9.408  0.00  0.00    +0.007 A 
BRANCH  34  37
ATOM     37  N   UNL     1       8.119  -6.905  12.230  0.00  0.00    +0.056 N 
ATOM     38  O   UNL     1       7.701  -7.990  12.561  0.00  0.00    -0.126 OA
ATOM     39  O   UNL     1       8.916  -6.325  12.929  0.00  0.00    -0.126 OA
ENDBRANCH  34  37
ENDBRANCH  30  31
ENDBRANCH  29  30
ENDBRANCH   7  29
TORSDOF 6
