REMARK  Name = ZINC38985779
REMARK  4 active torsions:
REMARK  status: ('A' for Active; 'I' for Inactive)
REMARK    1  A    between atoms: N_10  and  C_11
REMARK    2  A    between atoms: C_11  and  C_13
REMARK    3  A    between atoms: C_15  and  N_29
REMARK    4  A    between atoms: C_20  and  C_24
REMARK                            x       y       z     vdW  Elec       q    Type
REMARK                         _______ _______ _______ _____ _____    ______ ____
ROOT
ATOM      1  C   UNL     1       2.671  -6.220   0.156  0.00  0.00    +0.162 C 
ATOM      2  C   UNL     1       1.644  -7.184  -0.478  0.00  0.00    +0.106 C 
ATOM      3  C   UNL     1       1.554  -8.484   0.281  0.00  0.00    +0.003 A 
ATOM      4  C   UNL     1       1.060  -9.702  -0.200  0.00  0.00    +0.010 A 
ATOM      5  C   UNL     1       1.031 -10.803   0.631  0.00  0.00    +0.029 A 
ATOM      6  C   UNL     1       1.494 -10.692   1.943  0.00  0.00    +0.079 A 
ATOM      7  N   UNL     1       1.967  -9.528   2.378  0.00  0.00    -0.240 NA
ATOM      8  C   UNL     1       2.012  -8.466   1.599  0.00  0.00    +0.103 A 
ATOM      9  S   UNL     1       2.622  -6.818   1.896  0.00  0.00    -0.091 S 
ENDROOT
BRANCH   6  10
ATOM     10  C   UNL     1       1.458 -11.862   2.843  0.00  0.00    +0.038 A 
ATOM     11  C   UNL     1       1.855 -11.958   4.151  0.00  0.00    +0.017 A 
ATOM     12  C   UNL     1       1.726 -13.167   4.795  0.00  0.00    +0.008 A 
ATOM     13  C   UNL     1       1.209 -14.226   4.118  0.00  0.00    +0.046 A 
ATOM     14  S   UNL     1       0.880 -13.519   2.513  0.00  0.00    -0.095 S 
ENDBRANCH   6  10
BRANCH   2  15
ATOM     15  N   UNL     1       0.322  -6.542  -0.481  0.00  0.00    -0.322 NA
ATOM     16  H   UNL     1      -0.373  -7.148  -0.890  0.00  0.00    +0.119 HD
ATOM     17  H   UNL     1       0.055  -6.261   0.450  0.00  0.00    +0.119 HD
ENDBRANCH   2  15
BRANCH   1  18
ATOM     18  C   UNL     1       2.215  -4.787   0.055  0.00  0.00    +0.254 C 
ATOM     19  O   UNL     1       1.028  -4.524   0.068  0.00  0.00    -0.272 OA
BRANCH  18  29
ATOM     20  C   UNL     1      -0.015   1.372   0.021  0.00  0.00    +0.002 A 
ATOM     21  C   UNL     1       1.161   2.105   0.025  0.00  0.00    +0.001 A 
ATOM     22  C   UNL     1       2.374   1.440   0.013  0.00  0.00    +0.017 A 
ATOM     23  C   UNL     1       2.394   0.066  -0.002  0.00  0.00    +0.039 A 
ATOM     24  C   UNL     1       1.219  -0.701  -0.007  0.00  0.00    +0.055 A 
ATOM     25  C   UNL     1       0.003  -0.003   0.005  0.00  0.00    +0.027 A 
ATOM     26  N   UNL     1       1.443  -2.064  -0.022  0.00  0.00    -0.335 N 
ATOM     27  H   UNL     1       0.694  -2.680  -0.027  0.00  0.00    +0.168 HD
ATOM     28  C   UNL     1       2.714  -2.540  -0.032  0.00  0.00    +0.164 A 
ATOM     29  N   UNL     1       3.110  -3.811  -0.048  0.00  0.00    -0.156 NA
ATOM     30  S   UNL     1       3.675  -1.161  -0.021  0.00  0.00    -0.052 S 
ENDBRANCH  18  29
ENDBRANCH   1  18
TORSDOF 4
