REMARK  Name = ZINC04905345
REMARK  7 active torsions:
REMARK  status: ('A' for Active; 'I' for Inactive)
REMARK    1  A    between atoms: C_1  and  C_2
REMARK    2  A    between atoms: C_10  and  O_27
REMARK    3  A    between atoms: C_13  and  C_26
REMARK    4  A    between atoms: N_14  and  C_18
REMARK    5  A    between atoms: C_22  and  S_24
REMARK    6  A    between atoms: S_24  and  C_25
REMARK    7  A    between atoms: O_27  and  C_28
REMARK                            x       y       z     vdW  Elec       q    Type
REMARK                         _______ _______ _______ _____ _____    ______ ____
ROOT
ATOM      1  C   UNL     1      -0.635   7.304  -2.039  0.00  0.00    +0.015 C 
ATOM      2  C   UNL     1      -1.165   7.356  -0.605  0.00  0.00    +0.074 C 
ATOM      3  C   UNL     1      -0.137   8.041   0.310  0.00  0.00    +0.114 C 
ATOM      4  C   UNL     1      -0.623   7.926   1.738  0.00  0.00    +0.019 A 
ATOM      5  C   UNL     1      -0.174   8.843   2.674  0.00  0.00    +0.009 A 
ATOM      6  C   UNL     1      -0.595   8.760   3.987  0.00  0.00    +0.004 A 
ATOM      7  C   UNL     1      -1.468   7.758   4.371  0.00  0.00    +0.049 A 
ATOM      8  C   UNL     1      -1.935   6.841   3.432  0.00  0.00    +0.162 A 
ATOM      9  C   UNL     1      -1.507   6.925   2.105  0.00  0.00    +0.170 A 
ATOM     10  O   UNL     1      -1.974   6.012   1.214  0.00  0.00    -0.464 OA
ATOM     11  C   UNL     1      -1.361   5.932  -0.070  0.00  0.00    +0.186 C 
ATOM     12  N   UNL     1      -0.067   5.261   0.011  0.00  0.00    -0.244 N 
ATOM     13  C   UNL     1       1.084   5.943   0.103  0.00  0.00    +0.141 C 
ATOM     14  S   UNL     1       2.561   5.077   0.081  0.00  0.00    -0.018 S 
ATOM     15  N   UNL     1       1.121   7.282   0.212  0.00  0.00    -0.319 N 
ATOM     16  C   UNL     1      -2.279   5.154  -1.016  0.00  0.00    +0.079 C 
ATOM     17  H   UNL     1       1.972   7.746   0.226  0.00  0.00    +0.148 HD
ENDROOT
BRANCH  12  18
ATOM     18  C   UNL     1      -0.026   3.862  -0.013  0.00  0.00    +0.040 A 
ATOM     19  C   UNL     1       0.188   3.194  -1.213  0.00  0.00    +0.024 A 
ATOM     20  C   UNL     1       0.234   1.813  -1.237  0.00  0.00    +0.003 A 
ATOM     21  C   UNL     1       0.056   1.092  -0.072  0.00  0.00    +0.015 A 
ATOM     22  C   UNL     1      -0.158   1.754   1.131  0.00  0.00    +0.009 A 
ATOM     23  C   UNL     1      -0.199   3.142   1.159  0.00  0.00    +0.038 A 
BRANCH  22  24
ATOM     24  S   UNL     1      -0.379   0.834   2.617  0.00  0.00    -0.129 S 
ATOM     25  C   UNL     1      -0.247  -0.895   2.086  0.00  0.00    +0.090 C 
ENDBRANCH  22  24
ENDBRANCH  12  18
BRANCH   8  26
ATOM     26  O   UNL     1      -2.795   5.857   3.807  0.00  0.00    -0.491 OA
ATOM     27  C   UNL     1      -3.191   5.830   5.179  0.00  0.00    +0.277 C 
ENDBRANCH   8  26
TORSDOF 3
