REMARK  Name = ZINC39710876
REMARK  12 active torsions:
REMARK  status: ('A' for Active; 'I' for Inactive)
REMARK    1  A    between atoms: C_1  and  C_2
REMARK    2  A    between atoms: C_8  and  C_14
REMARK    3  A    between atoms: C_14  and  C_16
REMARK    4  A    between atoms: C_14  and  N_26
REMARK    5  A    between atoms: N_21  and  C_22
REMARK    6  A    between atoms: C_22  and  C_23
REMARK    7  A    between atoms: C_22  and  C_24
REMARK    8  A    between atoms: C_22  and  C_25
REMARK    9  A    between atoms: N_26  and  C_27
REMARK   10  A    between atoms: N_26  and  C_34
REMARK   11  A    between atoms: C_27  and  C_28
REMARK   12  A    between atoms: C_34  and  C_35
REMARK                            x       y       z     vdW  Elec       q    Type
REMARK                         _______ _______ _______ _____ _____    ______ ____
ROOT
ATOM      1  C   UNL     1       1.568  -2.661   4.519  0.00  0.00    -0.009 C 
ENDROOT
BRANCH   1   9
ATOM      2  C   UNL     1      -0.577  -0.383  -0.761  0.00  0.00    +0.045 C 
ATOM      3  C   UNL     1      -0.168  -1.780  -0.371  0.00  0.00    -0.029 A 
ATOM      4  C   UNL     1       0.055  -2.711  -1.335  0.00  0.00    +0.005 A 
ATOM      5  C   UNL     1       0.436  -4.021  -1.042  0.00  0.00    +0.001 A 
ATOM      6  C   UNL     1       0.607  -4.438   0.239  0.00  0.00    +0.009 A 
ATOM      7  C   UNL     1       0.383  -3.485   1.327  0.00  0.00    -0.007 A 
ATOM      8  C   UNL     1       0.543  -3.860   2.628  0.00  0.00    -0.006 C 
ATOM      9  C   UNL     1       0.290  -2.808   3.690  0.00  0.00    +0.088 C 
ATOM     10  C   UNL     1      -0.118  -1.430   3.220  0.00  0.00    +0.223 C 
ATOM     11  O   UNL     1      -0.333  -0.547   4.029  0.00  0.00    -0.275 OA
ATOM     12  N   UNL     1      -0.240  -1.187   1.926  0.00  0.00    -0.284 N 
ATOM     13  C   UNL     1      -0.013  -2.108   0.988  0.00  0.00    +0.043 A 
ATOM     14  H   UNL     1      -0.502  -0.297   1.645  0.00  0.00    +0.155 HD
ENDBRANCH   1   9
BRANCH   1  15
ATOM     15  C   UNL     1       2.678  -2.072   3.645  0.00  0.00    +0.205 C 
ATOM     16  N   UNL     1       2.254  -0.785   3.077  0.00  0.00    -0.152 NA
ATOM     17  N   UNL     1       2.251  -0.874   1.847  0.00  0.00    -0.070 NA
ATOM     18  N   UNL     1       2.639  -2.134   1.393  0.00  0.00    -0.179 N 
ATOM     19  N   UNL     1       2.923  -2.936   2.471  0.00  0.00    -0.183 NA
ATOM     20  H   UNL     1       2.699  -2.402   0.463  0.00  0.00    +0.191 HD
BRANCH  19  21
ATOM     21  C   UNL     1       4.318  -3.393   2.437  0.00  0.00    +0.035 C 
ATOM     22  C   UNL     1       4.625  -4.191   3.705  0.00  0.00    +0.029 C 
ATOM     23  C   UNL     1       4.533  -4.283   1.210  0.00  0.00    +0.029 C 
ATOM     24  C   UNL     1       5.250  -2.183   2.358  0.00  0.00    +0.029 C 
ENDBRANCH  19  21
ENDBRANCH   1  15
BRANCH   1  25
ATOM     25  N   UNL     1       1.314  -1.767   5.656  0.00  0.00    +0.390 N 
ATOM     26  H   UNL     1       1.023  -0.863   5.315  0.00  0.00    -0.080 HD
BRANCH  25  27
ATOM     27  C   UNL     1       0.254  -2.336   6.500  0.00  0.00    -0.042 C 
BRANCH  27  28
ATOM     28  C   UNL     1       0.620  -3.747   6.882  0.00  0.00    -0.064 A 
ATOM     29  C   UNL     1       0.313  -4.795   6.034  0.00  0.00    +0.002 A 
ATOM     30  C   UNL     1       0.649  -6.089   6.384  0.00  0.00    +0.000 A 
ATOM     31  C   UNL     1       1.292  -6.336   7.582  0.00  0.00    +0.000 A 
ATOM     32  C   UNL     1       1.601  -5.288   8.430  0.00  0.00    +0.000 A 
ATOM     33  C   UNL     1       1.269  -3.993   8.078  0.00  0.00    +0.002 A 
ENDBRANCH  27  28
ENDBRANCH  25  27
BRANCH  25  34
ATOM     34  C   UNL     1       2.543  -1.619   6.447  0.00  0.00    -0.042 C 
BRANCH  34  35
ATOM     35  C   UNL     1       2.408  -0.433   7.368  0.00  0.00    -0.064 A 
ATOM     36  C   UNL     1       2.678   0.839   6.900  0.00  0.00    +0.003 A 
ATOM     37  C   UNL     1       2.555   1.927   7.744  0.00  0.00    +0.020 A 
ATOM     38  C   UNL     1       2.161   1.742   9.057  0.00  0.00    +0.041 A 
ATOM     39  C   UNL     1       1.891   0.468   9.525  0.00  0.00    +0.020 A 
ATOM     40  C   UNL     1       2.010  -0.618   8.679  0.00  0.00    +0.003 A 
ATOM     41 CL   UNL     1       2.007   3.107  10.118  0.00  0.00    -0.084 Cl
ENDBRANCH  34  35
ENDBRANCH  25  34
ENDBRANCH   1  25
TORSDOF 8
