REMARK  Name = ZINC62977211
REMARK  11 active torsions:
REMARK  status: ('A' for Active; 'I' for Inactive)
REMARK    1  A    between atoms: C_1  and  C_2
REMARK    2  A    between atoms: C_2  and  N_3
REMARK    3  A    between atoms: N_3  and  C_4
REMARK    4  A    between atoms: N_3  and  C_6
REMARK    5  A    between atoms: C_4  and  C_5
REMARK    6  A    between atoms: C_9  and  C_12
REMARK    7  A    between atoms: C_17  and  C_38
REMARK    8  A    between atoms: C_19  and  O_37
REMARK    9  A    between atoms: C_20  and  C_23
REMARK   10  A    between atoms: C_23  and  N_24
REMARK   11  A    between atoms: C_29  and  C_31
REMARK                            x       y       z     vdW  Elec       q    Type
REMARK                         _______ _______ _______ _____ _____    ______ ____
ROOT
ATOM      1  C   UNL     1       0.180  -5.800  -0.687  0.00  0.00    +0.058 C 
ATOM      2  C   UNL     1      -0.425  -6.333  -1.777  0.00  0.00    +0.176 C 
ATOM      3  C   UNL     1      -0.855  -7.731  -1.938  0.00  0.00    +0.232 C 
ATOM      4  O   UNL     1      -0.745  -8.642  -1.136  0.00  0.00    -0.283 OA
ATOM      5  C   UNL     1      -1.448  -7.783  -3.286  0.00  0.00    +0.071 A 
ATOM      6  C   UNL     1      -2.033  -8.807  -4.033  0.00  0.00    -0.033 A 
ATOM      7  C   UNL     1      -2.506  -8.549  -5.288  0.00  0.00    +0.050 A 
ATOM      8  C   UNL     1      -2.406  -7.267  -5.824  0.00  0.00    +0.122 A 
ATOM      9  C   UNL     1      -1.828  -6.242  -5.094  0.00  0.00    +0.020 A 
ATOM     10  C   UNL     1      -1.342  -6.487  -3.816  0.00  0.00    +0.145 A 
ATOM     11  O   UNL     1      -0.750  -5.673  -2.914  0.00  0.00    -0.451 OA
ATOM     12  C   UNL     1      -2.141 -10.195  -3.456  0.00  0.00    +0.045 C 
ENDROOT
BRANCH   1  16
ATOM     13  C   UNL     1       0.852  -1.619  -0.465  0.00  0.00    +0.013 A 
ATOM     14  C   UNL     1       0.113  -2.143  -1.511  0.00  0.00    +0.022 A 
ATOM     15  C   UNL     1      -0.110  -3.501  -1.591  0.00  0.00    +0.010 A 
ATOM     16  C   UNL     1       0.413  -4.351  -0.610  0.00  0.00    -0.021 A 
ATOM     17  C   UNL     1       1.160  -3.813   0.444  0.00  0.00    +0.010 A 
ATOM     18  C   UNL     1       1.379  -2.454   0.506  0.00  0.00    +0.022 A 
BRANCH  13  19
ATOM     19  N   UNL     1       1.074  -0.241  -0.392  0.00  0.00    -0.394 NA
ATOM     20  H   UNL     1       1.631  -0.033   0.424  0.00  0.00    +0.126 HD
BRANCH  19  22
ATOM     21  C   UNL     1       3.193  -0.395  -1.611  0.00  0.00    +0.022 C 
ATOM     22  C   UNL     1       1.785   0.205  -1.597  0.00  0.00    +0.081 C 
ENDBRANCH  19  22
BRANCH  19  23
ATOM     23  C   UNL     1      -0.215   0.458  -0.297  0.00  0.00    +0.081 C 
ATOM     24  C   UNL     1      -0.891   0.102   1.029  0.00  0.00    +0.022 C 
ENDBRANCH  19  23
ENDBRANCH  13  19
ENDBRANCH   1  16
BRANCH   8  25
ATOM     25  O   UNL     1      -2.879  -7.021  -7.072  0.00  0.00    -0.506 OA
ATOM     26  H   UNL     1      -3.806  -6.747  -7.095  0.00  0.00    +0.292 HD
ENDBRANCH   8  25
BRANCH   9  27
ATOM     27  C   UNL     1      -1.726  -4.860  -5.686  0.00  0.00    -0.035 C 
BRANCH  27  28
ATOM     28  N   UNL     1      -0.536  -4.780  -6.543  0.00  0.00    +0.387 N 
ATOM     29  C   UNL     1       0.669  -4.923  -5.717  0.00  0.00    -0.078 C 
ATOM     30  C   UNL     1       1.909  -4.923  -6.614  0.00  0.00    -0.019 C 
ATOM     31  C   UNL     1       1.972  -3.603  -7.388  0.00  0.00    -0.003 C 
ATOM     32  C   UNL     1       0.678  -3.429  -8.188  0.00  0.00    -0.011 C 
ATOM     33  C   UNL     1      -0.516  -3.485  -7.233  0.00  0.00    -0.036 C 
ATOM     34  H   UNL     1      -0.564  -5.523  -7.225  0.00  0.00    -0.080 HD
BRANCH  33  35
ATOM     35  C   UNL     1      -1.793  -3.314  -8.015  0.00  0.00    -0.043 A 
ATOM     36  C   UNL     1      -2.440  -2.088  -8.045  0.00  0.00    +0.005 A 
ATOM     37  C   UNL     1      -3.611  -1.978  -8.778  0.00  0.00    +0.020 A 
ATOM     38  C   UNL     1      -4.092  -3.086  -9.450  0.00  0.00    +0.111 A 
ATOM     39  N   UNL     1      -3.451  -4.237  -9.399  0.00  0.00    -0.263 NA
ATOM     40  C   UNL     1      -2.331  -4.377  -8.717  0.00  0.00    +0.112 A 
ENDBRANCH  33  35
ENDBRANCH  27  28
ENDBRANCH   9  27
TORSDOF 8
