REMARK  Name = ZINC10262760
REMARK  6 active torsions:
REMARK  status: ('A' for Active; 'I' for Inactive)
REMARK    1  A    between atoms: C_7  and  C_11
REMARK    2  A    between atoms: C_11  and  C_13
REMARK    3  A    between atoms: C_11  and  C_30
REMARK    4  A    between atoms: C_13  and  N_14
REMARK    5  A    between atoms: N_20  and  C_23
REMARK    6  A    between atoms: C_28  and  O_29
REMARK                            x       y       z     vdW  Elec       q    Type
REMARK                         _______ _______ _______ _____ _____    ______ ____
ROOT
ATOM      1  N   UNL     1      -1.043   5.244   2.480  0.00  0.00    -0.298 N 
ATOM      2  C   UNL     1      -1.572   5.404   3.709  0.00  0.00    +0.302 C 
ATOM      3  O   UNL     1      -2.740   5.720   3.832  0.00  0.00    -0.253 OA
ATOM      4  N   UNL     1      -0.807   5.214   4.803  0.00  0.00    -0.283 N 
ATOM      5  C   UNL     1       0.632   4.937   4.678  0.00  0.00    +0.128 C 
ATOM      6  C   UNL     1       1.392   5.915   5.588  0.00  0.00    +0.124 C 
ATOM      7  N   UNL     1       0.858   5.820   6.954  0.00  0.00    -0.324 N 
ATOM      8  C   UNL     1      -0.552   6.230   7.004  0.00  0.00    +0.124 C 
ATOM      9  C   UNL     1      -1.390   5.271   6.152  0.00  0.00    +0.128 C 
ATOM     10  H   UNL     1      -0.095   5.063   2.380  0.00  0.00    +0.150 HD
ENDROOT
BRANCH   7  11
ATOM     11  C   UNL     1       1.630   6.570   7.848  0.00  0.00    +0.072 A 
ATOM     12  C   UNL     1       1.707   7.949   7.714  0.00  0.00    +0.027 A 
ATOM     13  C   UNL     1       2.467   8.688   8.601  0.00  0.00    +0.002 A 
ATOM     14  C   UNL     1       3.160   8.055   9.617  0.00  0.00    +0.004 A 
ATOM     15  C   UNL     1       3.092   6.681   9.753  0.00  0.00    +0.047 A 
ATOM     16  C   UNL     1       2.329   5.933   8.871  0.00  0.00    +0.138 A 
BRANCH  16  17
ATOM     17  O   UNL     1       2.262   4.581   9.004  0.00  0.00    -0.505 OA
ATOM     18  H   UNL     1       2.943   4.104   8.510  0.00  0.00    +0.292 HD
ENDBRANCH  16  17
ENDBRANCH   7  11
BRANCH   1  19
ATOM     19  C   UNL     1      -1.899   5.344   1.296  0.00  0.00    +0.119 C 
BRANCH  19  20
ATOM     20  C   UNL     1      -1.056   5.124   0.038  0.00  0.00    +0.075 C 
BRANCH  20  27
ATOM     21  C   UNL     1      -0.783   8.114  -3.562  0.00  0.00    +0.001 A 
ATOM     22  C   UNL     1      -1.815   7.954  -4.478  0.00  0.00    +0.002 A 
ATOM     23  C   UNL     1      -2.784   6.995  -4.284  0.00  0.00    +0.026 A 
ATOM     24  C   UNL     1      -2.731   6.177  -3.159  0.00  0.00    +0.047 A 
ATOM     25  C   UNL     1      -1.684   6.343  -2.235  0.00  0.00    +0.003 A 
ATOM     26  C   UNL     1      -0.712   7.322  -2.451  0.00  0.00    +0.010 A 
ATOM     27  C   UNL     1      -1.910   5.348  -1.184  0.00  0.00    -0.013 A 
ATOM     28  C   UNL     1      -3.018   4.668  -1.519  0.00  0.00    +0.088 A 
ATOM     29  N   UNL     1      -3.526   5.154  -2.693  0.00  0.00    -0.360 N 
ATOM     30  H   UNL     1      -4.325   4.824  -3.134  0.00  0.00    +0.165 HD
ENDBRANCH  20  27
BRANCH  20  31
ATOM     31  C   UNL     1      -0.525   3.714   0.028  0.00  0.00    -0.001 A 
ATOM     32  C   UNL     1       0.761   3.286   0.015  0.00  0.00    +0.012 A 
ATOM     33  C   UNL     1       1.015   1.927   0.008  0.00  0.00    +0.008 A 
ATOM     34  C   UNL     1      -0.029   1.063   0.016  0.00  0.00    +0.045 A 
ATOM     35  S   UNL     1      -1.427   2.173   0.026  0.00  0.00    -0.101 S 
ENDBRANCH  20  31
ENDBRANCH  19  20
ENDBRANCH   1  19
TORSDOF 6
