REMARK  Name = ZINC02895919
REMARK  10 active torsions:
REMARK  status: ('A' for Active; 'I' for Inactive)
REMARK    1  A    between atoms: C_1  and  C_2
REMARK    2  A    between atoms: C_2  and  C_3
REMARK    3  A    between atoms: C_3  and  C_4
REMARK    4  A    between atoms: C_4  and  N_57
REMARK    5  A    between atoms: C_5  and  C_6
REMARK    6  A    between atoms: C_5  and  N_57
REMARK    7  A    between atoms: C_6  and  C_8
REMARK    8  A    between atoms: C_6  and  O_30
REMARK    9  A    between atoms: C_8  and  O_9
REMARK   10  A    between atoms: O_9  and  C_10
REMARK                            x       y       z     vdW  Elec       q    Type
REMARK                         _______ _______ _______ _____ _____    ______ ____
ROOT
ATOM      1  C   UNL     1      -0.138   1.328  -4.855  0.00  0.00    +0.149 A 
ATOM      2  C   UNL     1      -0.619   0.218  -5.534  0.00  0.00    +0.061 A 
ATOM      3  C   UNL     1      -0.078  -0.112  -6.768  0.00  0.00    +0.019 A 
ATOM      4  C   UNL     1       0.923   0.639  -7.330  0.00  0.00    +0.011 A 
ATOM      5  C   UNL     1       1.436   1.775  -6.663  0.00  0.00    +0.007 A 
ATOM      6  C   UNL     1       0.869   2.090  -5.419  0.00  0.00    +0.065 A 
ATOM      7  S   UNL     1       1.743   3.540  -4.888  0.00  0.00    -0.065 S 
ATOM      8  C   UNL     1       2.835   3.736  -6.272  0.00  0.00    +0.117 A 
ATOM      9  C   UNL     1       2.506   2.679  -7.127  0.00  0.00    +0.080 A 
ATOM     10  C   UNL     1       3.250   2.607  -8.345  0.00  0.00    +0.263 A 
ATOM     11  O   UNL     1       3.019   1.729  -9.160  0.00  0.00    -0.267 OA
ATOM     12  N   UNL     1       4.206   3.520  -8.580  0.00  0.00    -0.296 N 
ATOM     13  C   UNL     1       4.463   4.517  -7.686  0.00  0.00    +0.114 A 
ATOM     14  N   UNL     1       3.789   4.615  -6.575  0.00  0.00    -0.226 NA
ATOM     15  C   UNL     1       5.559   5.503  -8.015  0.00  0.00    +0.074 C 
ATOM     16  C   UNL     1       6.913   4.817  -7.844  0.00  0.00    +0.008 C 
ATOM     17  C   UNL     1       7.334   4.113  -9.121  0.00  0.00    +0.002 C 
ATOM     18  C   UNL     1       6.407   2.962  -9.476  0.00  0.00    +0.022 C 
ATOM     19  C   UNL     1       5.006   3.467  -9.811  0.00  0.00    +0.126 C 
ATOM     20 BR   UNL     1      -1.999  -0.836  -4.785  0.00  0.00    -0.046 Br
ENDROOT
BRANCH   1  21
ATOM     21  O   UNL     1      -0.658   1.667  -3.645  0.00  0.00    -0.487 OA
BRANCH  21  22
ATOM     22  C   UNL     1      -0.037   1.099  -2.490  0.00  0.00    +0.258 C 
BRANCH  22  23
ATOM     23  C   UNL     1      -0.753   1.593  -1.232  0.00  0.00    +0.135 C 
BRANCH  23  24
ATOM     24  O   UNL     1      -2.093   1.098  -1.221  0.00  0.00    -0.390 OA
ATOM     25  H   UNL     1      -2.157   0.133  -1.226  0.00  0.00    +0.210 HD
ENDBRANCH  23  24
BRANCH  23  26
ATOM     26  C   UNL     1      -0.013   1.086   0.008  0.00  0.00    -0.048 C 
BRANCH  26  27
ATOM     27  N   UNL     1      -0.709   1.566   1.217  0.00  0.00    +0.381 N 
ATOM     28  H   UNL     1      -0.723   2.592   1.214  0.00  0.00    -0.086 HD
ATOM     29  H   UNL     1      -1.672   1.210   1.216  0.00  0.00    -0.086 HD
BRANCH  27  30
ATOM     30  C   UNL     1      -0.016   1.091   2.429  0.00  0.00    -0.083 C 
BRANCH  30  31
ATOM     31  C   UNL     1      -0.760   1.603   3.664  0.00  0.00    -0.019 C 
BRANCH  31  33
ATOM     32  C   UNL     1      -0.791   1.628   6.163  0.00  0.00    +0.004 C 
ATOM     33  C   UNL     1      -0.047   1.115   4.928  0.00  0.00    -0.005 C 
ENDBRANCH  31  33
ENDBRANCH  30  31
ENDBRANCH  27  30
ENDBRANCH  26  27
ENDBRANCH  23  26
ENDBRANCH  22  23
ENDBRANCH  21  22
ENDBRANCH   1  21
TORSDOF 9
