REMARK  Name = ZINC39232917
REMARK  6 active torsions:
REMARK  status: ('A' for Active; 'I' for Inactive)
REMARK    1  A    between atoms: C_1  and  C_2
REMARK    2  A    between atoms: C_14  and  C_19
REMARK    3  A    between atoms: C_16  and  C_18
REMARK    4  A    between atoms: C_19  and  C_20
REMARK    5  A    between atoms: C_20  and  C_21
REMARK    6  A    between atoms: C_21  and  N_23
REMARK                            x       y       z     vdW  Elec       q    Type
REMARK                         _______ _______ _______ _____ _____    ______ ____
ROOT
ATOM      1  C   UNL     1      -0.031   1.419  -0.060  0.00  0.00    +0.047 C 
ATOM      2  C   UNL     1      -0.005  -0.088  -0.054  0.00  0.00    -0.005 A 
ATOM      3  C   UNL     1       0.007  -0.896  -1.122  0.00  0.00    +0.199 A 
ATOM      4  O   UNL     1       0.031  -2.183  -0.730  0.00  0.00    -0.463 OA
ATOM      5  C   UNL     1       0.037  -2.275   0.615  0.00  0.00    +0.139 A 
ATOM      6  C   UNL     1       0.020  -0.964   1.123  0.00  0.00    +0.024 A 
ATOM      7  C   UNL     1       0.023  -0.749   2.499  0.00  0.00    +0.019 A 
ATOM      8  C   UNL     1       0.051  -1.814   3.364  0.00  0.00    -0.001 A 
ATOM      9  C   UNL     1       0.079  -3.111   2.869  0.00  0.00    +0.139 A 
ATOM     10  C   UNL     1       0.062  -3.341   1.501  0.00  0.00    +0.093 A 
ATOM     11  O   UNL     1       0.129  -4.191   3.698  0.00  0.00    -0.425 OA
ATOM     12  C   UNL     1      -0.072  -3.978   5.013  0.00  0.00    +0.316 C 
ATOM     13  O   UNL     1      -0.734  -4.735   5.683  0.00  0.00    -0.250 OA
ATOM     14  C   UNL     1       0.571  -2.743   5.613  0.00  0.00    +0.106 C 
ATOM     15  C   UNL     1       0.044  -1.527   4.845  0.00  0.00    +0.033 C 
ATOM     16  C   UNL     1      -1.385  -1.221   5.296  0.00  0.00    +0.013 C 
ENDROOT
BRANCH  14  17
ATOM     17  C   UNL     1       2.092  -2.829   5.471  0.00  0.00    +0.024 C 
BRANCH  17  18
ATOM     18  C   UNL     1       2.616  -3.999   6.305  0.00  0.00    +0.099 C 
BRANCH  18  19
ATOM     19  C   UNL     1       4.114  -4.084   6.165  0.00  0.00    +0.238 C 
ATOM     20  O   UNL     1       4.706  -3.285   5.465  0.00  0.00    -0.274 OA
BRANCH  19  21
ATOM     21  N   UNL     1       4.789  -5.032   6.807  0.00  0.00    -0.157 NA
ATOM     22  C   UNL     1       6.097  -5.173   6.603  0.00  0.00    +0.164 A 
ATOM     23  N   UNL     1       6.915  -4.377   5.869  0.00  0.00    -0.335 N 
ATOM     24  H   UNL     1       6.557  -3.597   5.417  0.00  0.00    +0.168 HD
ATOM     25  C   UNL     1       8.260  -4.680   5.768  0.00  0.00    +0.055 A 
ATOM     26  C   UNL     1       9.270  -4.002   5.071  0.00  0.00    +0.027 A 
ATOM     27  C   UNL     1      10.565  -4.465   5.090  0.00  0.00    +0.002 A 
ATOM     28  C   UNL     1      10.908  -5.608   5.794  0.00  0.00    +0.001 A 
ATOM     29  C   UNL     1       9.929  -6.295   6.490  0.00  0.00    +0.017 A 
ATOM     30  C   UNL     1       8.634  -5.833   6.472  0.00  0.00    +0.039 A 
ATOM     31  S   UNL     1       7.110  -6.373   7.200  0.00  0.00    -0.052 S 
ENDBRANCH  19  21
ENDBRANCH  18  19
ENDBRANCH  17  18
ENDBRANCH  14  17
TORSDOF 4
