REMARK  Name = ZINC36812257
REMARK  6 active torsions:
REMARK  status: ('A' for Active; 'I' for Inactive)
REMARK    1  A    between atoms: C_1  and  C_2
REMARK    2  A    between atoms: C_11  and  N_29
REMARK    3  A    between atoms: C_13  and  S_15
REMARK    4  A    between atoms: S_15  and  C_16
REMARK    5  A    between atoms: C_16  and  C_17
REMARK    6  A    between atoms: N_19  and  C_20
REMARK                            x       y       z     vdW  Elec       q    Type
REMARK                         _______ _______ _______ _____ _____    ______ ____
ROOT
ATOM      1  C   UNL     1       0.365   2.462   0.263  0.00  0.00    +0.008 C 
ATOM      2  C   UNL     1       0.350   0.933   0.221  0.00  0.00    -0.009 C 
ATOM      3  C   UNL     1      -1.097   0.432   0.234  0.00  0.00    +0.008 C 
ATOM      4  C   UNL     1      -1.129  -1.068  -0.055  0.00  0.00    +0.037 C 
ATOM      5  C   UNL     1      -0.183  -1.778   0.910  0.00  0.00    -0.025 A 
ATOM      6  C   UNL     1       0.782  -1.088   1.558  0.00  0.00    -0.004 A 
ATOM      7  S   UNL     1       1.628  -2.290   2.554  0.00  0.00    -0.073 S 
ATOM      8  C   UNL     1       0.690  -3.714   2.103  0.00  0.00    +0.115 A 
ATOM      9  C   UNL     1      -0.261  -3.205   1.183  0.00  0.00    +0.051 A 
ATOM     10  C   UNL     1      -1.185  -4.136   0.627  0.00  0.00    +0.129 A 
ATOM     11  N   UNL     1      -1.058  -5.396   1.034  0.00  0.00    -0.207 NA
ATOM     12  C   UNL     1      -0.143  -5.804   1.900  0.00  0.00    +0.191 A 
ATOM     13  N   UNL     1       0.750  -4.983   2.456  0.00  0.00    -0.214 NA
ATOM     14  C   UNL     1       1.077   0.377   1.454  0.00  0.00    +0.046 C 
ENDROOT
BRANCH  10  15
ATOM     15  N   UNL     1      -2.156  -3.752  -0.281  0.00  0.00    -0.343 N 
ATOM     16  H   UNL     1      -2.026  -2.959  -0.823  0.00  0.00    +0.144 HD
ATOM     17  H   UNL     1      -2.966  -4.277  -0.374  0.00  0.00    +0.144 HD
ENDBRANCH  10  15
BRANCH  12  18
ATOM     18  S   UNL     1      -0.103  -7.510   2.340  0.00  0.00    -0.077 S 
BRANCH  18  19
ATOM     19  C   UNL     1      -1.455  -8.243   1.377  0.00  0.00    +0.173 C 
BRANCH  19  20
ATOM     20  C   UNL     1      -1.532  -9.720   1.664  0.00  0.00    +0.227 C 
ATOM     21  O   UNL     1      -0.752 -10.229   2.441  0.00  0.00    -0.275 OA
ATOM     22  N   UNL     1      -2.468 -10.477   1.057  0.00  0.00    -0.285 N 
ATOM     23  H   UNL     1      -3.040 -10.087   0.377  0.00  0.00    +0.155 HD
BRANCH  22  24
ATOM     24  C   UNL     1      -2.615 -11.825   1.408  0.00  0.00    +0.037 A 
ATOM     25  C   UNL     1      -2.962 -12.760   0.442  0.00  0.00    +0.027 A 
ATOM     26  C   UNL     1      -3.106 -14.090   0.786  0.00  0.00    +0.051 A 
ATOM     27  C   UNL     1      -2.907 -14.495   2.096  0.00  0.00    +0.166 A 
ATOM     28  C   UNL     1      -2.559 -13.559   3.068  0.00  0.00    +0.168 A 
ATOM     29  C   UNL     1      -2.409 -12.227   2.720  0.00  0.00    +0.072 A 
ATOM     30  O   UNL     1      -2.422 -14.202   4.264  0.00  0.00    -0.453 OA
ATOM     31  C   UNL     1      -3.087 -15.469   4.098  0.00  0.00    +0.466 C 
ATOM     32  O   UNL     1      -2.987 -15.725   2.685  0.00  0.00    -0.453 OA
ENDBRANCH  22  24
ENDBRANCH  19  20
ENDBRANCH  18  19
ENDBRANCH  12  18
TORSDOF 5
