REMARK  Name = ZINC22844130
REMARK  6 active torsions:
REMARK  status: ('A' for Active; 'I' for Inactive)
REMARK    1  A    between atoms: C_10  and  C_11
REMARK    2  A    between atoms: N_16  and  C_17
REMARK    3  A    between atoms: C_17  and  N_19
REMARK    4  A    between atoms: C_20  and  C_22
REMARK    5  A    between atoms: C_24  and  N_34
REMARK    6  A    between atoms: C_27  and  N_28
REMARK                            x       y       z     vdW  Elec       q    Type
REMARK                         _______ _______ _______ _____ _____    ______ ____
ROOT
ATOM      1  C   UNL     1       9.499   0.676   0.158  0.00  0.00    +0.163 C 
ATOM      2  S   UNL     1       9.128   2.342   0.294  0.00  0.00    -0.016 S 
ENDROOT
BRANCH   1   8
ATOM      3  C   UNL     1       4.937   0.045  -0.075  0.00  0.00    +0.055 A 
ATOM      4  C   UNL     1       4.987   1.506  -0.207  0.00  0.00    +0.074 A 
ATOM      5  S   UNL     1       6.636   1.833  -0.175  0.00  0.00    -0.060 S 
ATOM      6  C   UNL     1       7.255   0.172   0.001  0.00  0.00    +0.162 A 
ATOM      7  N   UNL     1       6.117  -0.590   0.033  0.00  0.00    -0.335 N 
ATOM      8  N   UNL     1       8.509  -0.228   0.085  0.00  0.00    -0.169 NA
ATOM      9  H   UNL     1       6.160  -1.554   0.127  0.00  0.00    +0.168 HD
BRANCH   3  19
ATOM     10  C   UNL     1       2.825  -3.489   2.982  0.00  0.00    +0.001 A 
ATOM     11  C   UNL     1       4.041  -2.819   2.996  0.00  0.00    +0.001 A 
ATOM     12  C   UNL     1       4.347  -1.894   2.016  0.00  0.00    +0.009 A 
ATOM     13  C   UNL     1       3.427  -1.631   1.003  0.00  0.00    -0.009 A 
ATOM     14  C   UNL     1       2.186  -2.312   0.985  0.00  0.00    -0.017 A 
ATOM     15  C   UNL     1       1.899  -3.248   1.993  0.00  0.00    +0.008 A 
ATOM     16  C   UNL     1       1.262  -2.042  -0.041  0.00  0.00    +0.008 A 
ATOM     17  C   UNL     1       1.550  -1.121  -1.031  0.00  0.00    +0.001 A 
ATOM     18  C   UNL     1       2.743  -0.433  -1.056  0.00  0.00    +0.010 A 
ATOM     19  C   UNL     1       3.716  -0.654  -0.056  0.00  0.00    +0.007 A 
ENDBRANCH   3  19
ENDBRANCH   1   8
BRANCH   1  20
ATOM     20  N   UNL     1      10.784   0.273   0.124  0.00  0.00    -0.262 N 
ATOM     21  C   UNL     1      11.778   1.180   0.197  0.00  0.00    +0.251 C 
ATOM     22  O   UNL     1      11.515   2.363   0.294  0.00  0.00    -0.270 OA
ATOM     23  H   UNL     1      10.994  -0.671   0.047  0.00  0.00    +0.157 HD
BRANCH  21  24
ATOM     24  C   UNL     1      13.183   0.739   0.160  0.00  0.00    +0.060 A 
ATOM     25  C   UNL     1      13.491  -0.620   0.043  0.00  0.00    +0.047 A 
ATOM     26  C   UNL     1      14.806  -1.026   0.009  0.00  0.00    +0.127 A 
ATOM     27  C   UNL     1      15.830  -0.094   0.090  0.00  0.00    +0.034 A 
ATOM     28  C   UNL     1      15.543   1.250   0.206  0.00  0.00    +0.026 A 
ATOM     29  C   UNL     1      14.222   1.680   0.236  0.00  0.00    +0.042 A 
BRANCH  29  30
ATOM     30  N   UNL     1      13.930   3.033   0.347  0.00  0.00    -0.325 N 
ATOM     31  C   UNL     1      13.778   3.670   1.665  0.00  0.00    +0.133 C 
ATOM     32  C   UNL     1      14.658   4.925   1.699  0.00  0.00    +0.178 C 
ATOM     33  O   UNL     1      14.361   5.740   0.562  0.00  0.00    -0.377 OA
ATOM     34  C   UNL     1      14.645   5.118  -0.693  0.00  0.00    +0.178 C 
ATOM     35  C   UNL     1      13.770   3.874  -0.850  0.00  0.00    +0.133 C 
ENDBRANCH  29  30
BRANCH  26  36
ATOM     36  N   UNL     1      15.130  -2.465  -0.114  0.00  0.00    +0.056 N 
ATOM     37  O   UNL     1      14.160  -3.353  -0.191  0.00  0.00    -0.126 OA
ATOM     38  O   UNL     1      16.386  -2.857  -0.147  0.00  0.00    -0.126 OA
ENDBRANCH  26  36
ENDBRANCH  21  24
ENDBRANCH   1  20
TORSDOF 6
