REMARK  Name = ZINC10002258
REMARK  8 active torsions:
REMARK  status: ('A' for Active; 'I' for Inactive)
REMARK    1  A    between atoms: C_1  and  C_2
REMARK    2  A    between atoms: C_2  and  C_3
REMARK    3  A    between atoms: C_2  and  C_4
REMARK    4  A    between atoms: C_4  and  C_6
REMARK    5  A    between atoms: C_4  and  N_25
REMARK    6  A    between atoms: N_8  and  N_9
REMARK    7  A    between atoms: C_10  and  C_11
REMARK    8  A    between atoms: C_26  and  C_28
REMARK                            x       y       z     vdW  Elec       q    Type
REMARK                         _______ _______ _______ _____ _____    ______ ____
ROOT
ATOM      1  C   UNL     1      -2.158   1.522   1.295  0.00  0.00    +0.253 C 
ATOM      2  O   UNL     1      -2.540   0.825   2.212  0.00  0.00    -0.272 OA
ATOM      3  N   UNL     1      -2.997   1.829   0.286  0.00  0.00    -0.205 N 
ATOM      4  H   UNL     1      -2.691   2.386  -0.447  0.00  0.00    +0.177 HD
ENDROOT
BRANCH   3   5
ATOM      5  N   UNL     1      -4.311   1.344   0.296  0.00  0.00    -0.188 NA
ATOM      6  C   UNL     1      -5.122   1.641  -0.678  0.00  0.00    +0.139 C 
BRANCH   6   7
ATOM      7  C   UNL     1      -6.497   1.134  -0.668  0.00  0.00    +0.010 A 
ATOM      8  C   UNL     1      -7.419   1.551  -1.650  0.00  0.00    -0.009 A 
ATOM      9  C   UNL     1      -7.042   2.450  -2.663  0.00  0.00    +0.009 A 
ATOM     10  C   UNL     1      -7.954   2.827  -3.599  0.00  0.00    +0.001 A 
ATOM     11  C   UNL     1      -9.261   2.343  -3.585  0.00  0.00    +0.001 A 
ATOM     12  C   UNL     1      -9.686   1.469  -2.636  0.00  0.00    +0.008 A 
ATOM     13  C   UNL     1      -8.789   1.036  -1.635  0.00  0.00    -0.017 A 
ATOM     14  C   UNL     1      -9.195   0.139  -0.647  0.00  0.00    +0.017 A 
ATOM     15  C   UNL     1      -8.291  -0.275   0.332  0.00  0.00    -0.017 A 
ATOM     16  C   UNL     1      -6.915   0.227   0.328  0.00  0.00    -0.009 A 
ATOM     17  C   UNL     1      -6.030  -0.212   1.328  0.00  0.00    +0.009 A 
ATOM     18  C   UNL     1      -6.465  -1.087   2.274  0.00  0.00    +0.001 A 
ATOM     19  C   UNL     1      -7.774  -1.566   2.280  0.00  0.00    +0.001 A 
ATOM     20  C   UNL     1      -8.678  -1.182   1.342  0.00  0.00    +0.008 A 
ENDBRANCH   6   7
ENDBRANCH   3   5
BRANCH   1  21
ATOM     21  C   UNL     1      -0.744   2.043   1.284  0.00  0.00    +0.163 C 
BRANCH  21  22
ATOM     22  N   UNL     1      -0.040   1.573   2.480  0.00  0.00    -0.300 N 
ATOM     23  C   UNL     1       1.010   2.267   2.962  0.00  0.00    +0.245 C 
ATOM     24  O   UNL     1       1.373   3.284   2.404  0.00  0.00    -0.270 OA
ATOM     25  H   UNL     1      -0.330   0.761   2.925  0.00  0.00    +0.150 HD
BRANCH  23  26
ATOM     26  C   UNL     1       1.719   1.793   4.167  0.00  0.00    +0.037 A 
ATOM     27  C   UNL     1       1.300   0.628   4.814  0.00  0.00    +0.016 A 
ATOM     28  C   UNL     1       1.969   0.186   5.935  0.00  0.00    +0.039 A 
ATOM     29  C   UNL     1       3.049   0.902   6.428  0.00  0.00    +0.123 A 
ATOM     30  C   UNL     1       3.465   2.063   5.794  0.00  0.00    +0.039 A 
ATOM     31  C   UNL     1       2.807   2.510   4.668  0.00  0.00    +0.016 A 
ATOM     32  F   UNL     1       3.697   0.468   7.531  0.00  0.00    -0.205 F 
ENDBRANCH  23  26
ENDBRANCH  21  22
BRANCH  21  34
ATOM     33  C   UNL     1      -0.001   0.005   0.045  0.00  0.00    +0.009 C 
ATOM     34  C   UNL     1      -0.022   1.535   0.035  0.00  0.00    +0.012 C 
ATOM     35  C   UNL     1       1.414   2.064   0.024  0.00  0.00    +0.009 C 
ENDBRANCH  21  34
ENDBRANCH   1  21
TORSDOF 6
