REMARK  Name = ZINC58055095
REMARK  5 active torsions:
REMARK  status: ('A' for Active; 'I' for Inactive)
REMARK    1  A    between atoms: C_4  and  C_7
REMARK    2  A    between atoms: N_19  and  C_20
REMARK    3  A    between atoms: C_20  and  C_21
REMARK    4  A    between atoms: C_21  and  C_23
REMARK    5  A    between atoms: C_21  and  N_28
REMARK                            x       y       z     vdW  Elec       q    Type
REMARK                         _______ _______ _______ _____ _____    ______ ____
ROOT
ATOM      1  C   UNL     1       2.588  -2.935  -0.612  0.00  0.00    +0.139 C 
ATOM      2  C   UNL     1       1.192  -2.463  -0.208  0.00  0.00    -0.012 A 
ATOM      3  C   UNL     1       0.098  -3.321  -0.098  0.00  0.00    +0.013 A 
ATOM      4  C   UNL     1      -1.109  -2.834   0.269  0.00  0.00    +0.046 A 
ATOM      5  S   UNL     1      -0.755  -1.096   0.483  0.00  0.00    -0.101 S 
ATOM      6  C   UNL     1       0.968  -1.150   0.066  0.00  0.00    -0.003 A 
ATOM      7  C   UNL     1       1.947  -0.022   0.019  0.00  0.00    +0.062 C 
ATOM      8  C   UNL     1       3.369  -0.605   0.004  0.00  0.00    +0.115 C 
ATOM      9  N   UNL     1       3.392  -1.746  -0.925  0.00  0.00    -0.274 N 
ATOM     10  C   UNL     1       4.138  -1.701  -2.046  0.00  0.00    +0.303 C 
ATOM     11  O   UNL     1       4.869  -0.752  -2.252  0.00  0.00    -0.253 OA
ATOM     12  N   UNL     1       4.073  -2.708  -2.939  0.00  0.00    -0.300 N 
ATOM     13  H   UNL     1       3.438  -3.430  -2.811  0.00  0.00    +0.150 HD
ENDROOT
BRANCH   1  17
ATOM     14  C   UNL     1       4.377  -5.085   2.617  0.00  0.00    +0.000 A 
ATOM     15  C   UNL     1       3.890  -3.807   2.823  0.00  0.00    +0.000 A 
ATOM     16  C   UNL     1       3.312  -3.111   1.778  0.00  0.00    +0.006 A 
ATOM     17  C   UNL     1       3.220  -3.693   0.527  0.00  0.00    -0.023 A 
ATOM     18  C   UNL     1       3.707  -4.970   0.321  0.00  0.00    +0.006 A 
ATOM     19  C   UNL     1       4.284  -5.667   1.367  0.00  0.00    +0.000 A 
ENDBRANCH   1  17
BRANCH  12  20
ATOM     20  C   UNL     1       4.962  -2.713  -4.104  0.00  0.00    +0.098 C 
BRANCH  20  21
ATOM     21  C   UNL     1       4.773  -4.015  -4.885  0.00  0.00    +0.016 C 
BRANCH  21  22
ATOM     22  N   UNL     1       5.755  -4.079  -5.975  0.00  0.00    +0.387 N 
ATOM     23  C   UNL     1       7.125  -4.229  -5.422  0.00  0.00    -0.078 C 
ATOM     24  C   UNL     1       7.921  -4.833  -6.607  0.00  0.00    -0.020 C 
ATOM     25  C   UNL     1       6.899  -5.796  -7.254  0.00  0.00    -0.020 C 
ATOM     26  C   UNL     1       5.520  -5.282  -6.803  0.00  0.00    -0.078 C 
ATOM     27  H   UNL     1       5.698  -3.248  -6.545  0.00  0.00    -0.081 HD
ENDBRANCH  21  22
BRANCH  21  28
ATOM     28  C   UNL     1       3.380  -4.058  -5.460  0.00  0.00    +0.093 A 
ATOM     29  C   UNL     1       2.336  -4.729  -4.942  0.00  0.00    +0.043 A 
ATOM     30  C   UNL     1       1.234  -4.495  -5.796  0.00  0.00    +0.041 A 
ATOM     31  C   UNL     1       1.671  -3.695  -6.785  0.00  0.00    +0.195 A 
ATOM     32  O   UNL     1       2.970  -3.429  -6.573  0.00  0.00    -0.469 OA
ENDBRANCH  21  28
ENDBRANCH  20  21
ENDBRANCH  12  20
TORSDOF 5
