REMARK  Name = ZINC41586182
REMARK  15 active torsions:
REMARK  status: ('A' for Active; 'I' for Inactive)
REMARK    1  A    between atoms: C_1  and  C_2
REMARK    2  A    between atoms: C_2  and  O_3
REMARK    3  A    between atoms: O_3  and  C_4
REMARK    4  A    between atoms: C_4  and  C_6
REMARK    5  A    between atoms: N_9  and  C_12
REMARK    6  A    between atoms: C_12  and  C_13
REMARK    7  A    between atoms: C_14  and  O_37
REMARK    8  A    between atoms: C_16  and  C_36
REMARK    9  A    between atoms: C_21  and  C_22
REMARK   10  A    between atoms: C_24  and  O_32
REMARK   11  A    between atoms: C_25  and  O_30
REMARK   12  A    between atoms: C_27  and  O_28
REMARK   13  A    between atoms: O_28  and  C_29
REMARK   14  A    between atoms: O_30  and  C_31
REMARK   15  A    between atoms: O_32  and  C_33
REMARK                            x       y       z     vdW  Elec       q    Type
REMARK                         _______ _______ _______ _____ _____    ______ ____
ROOT
ATOM      1  C   UNL     1      -6.058  -6.231  -1.552  0.00  0.00    +0.020 A 
ATOM      2  C   UNL     1      -6.247  -6.779  -2.810  0.00  0.00    +0.122 A 
ATOM      3  C   UNL     1      -6.491  -8.142  -2.959  0.00  0.00    +0.050 A 
ATOM      4  C   UNL     1      -6.548  -8.953  -1.861  0.00  0.00    -0.033 A 
ATOM      5  C   UNL     1      -6.361  -8.414  -0.588  0.00  0.00    +0.071 A 
ATOM      6  C   UNL     1      -6.108  -7.042  -0.425  0.00  0.00    +0.145 A 
ATOM      7  O   UNL     1      -5.955  -6.761   0.887  0.00  0.00    -0.451 OA
ATOM      8  C   UNL     1      -6.083  -7.867   1.657  0.00  0.00    +0.176 C 
ATOM      9  C   UNL     1      -5.984  -7.918   3.012  0.00  0.00    +0.062 C 
ATOM     10  C   UNL     1      -6.361  -8.999   0.765  0.00  0.00    +0.232 C 
ATOM     11  O   UNL     1      -6.539 -10.166   1.074  0.00  0.00    -0.283 OA
ATOM     12  C   UNL     1      -6.814 -10.427  -2.025  0.00  0.00    +0.045 C 
ENDROOT
BRANCH   9  13
ATOM     13  C   UNL     1      -5.977  -9.212   3.699  0.00  0.00    +0.024 A 
ATOM     14  C   UNL     1      -5.239 -10.283   3.174  0.00  0.00    +0.061 A 
ATOM     15  C   UNL     1      -5.236 -11.498   3.825  0.00  0.00    +0.162 A 
ATOM     16  C   UNL     1      -5.967 -11.666   5.003  0.00  0.00    +0.165 A 
ATOM     17  C   UNL     1      -6.700 -10.612   5.527  0.00  0.00    +0.095 A 
ATOM     18  C   UNL     1      -6.706  -9.384   4.888  0.00  0.00    +0.131 A 
BRANCH  18  19
ATOM     19  O   UNL     1      -7.419  -8.352   5.405  0.00  0.00    -0.494 OA
ATOM     20  C   UNL     1      -8.135  -8.600   6.617  0.00  0.00    +0.277 C 
ENDBRANCH  18  19
BRANCH  16  21
ATOM     21  O   UNL     1      -5.961 -12.866   5.637  0.00  0.00    -0.491 OA
ATOM     22  C   UNL     1      -6.729 -12.970   6.838  0.00  0.00    +0.277 C 
ENDBRANCH  16  21
BRANCH  15  23
ATOM     23  O   UNL     1      -4.520 -12.538   3.317  0.00  0.00    -0.491 OA
ATOM     24  C   UNL     1      -3.796 -12.298   2.109  0.00  0.00    +0.277 C 
ENDBRANCH  15  23
ENDBRANCH   9  13
BRANCH   2  25
ATOM     25  O   UNL     1      -6.193  -5.982  -3.907  0.00  0.00    -0.506 OA
ATOM     26  H   UNL     1      -5.309  -5.899  -4.290  0.00  0.00    +0.292 HD
ENDBRANCH   2  25
BRANCH   1  27
ATOM     27  C   UNL     1      -5.794  -4.754  -1.405  0.00  0.00    -0.036 C 
BRANCH  27  31
ATOM     28  C   UNL     1      -1.853  -3.462  -0.428  0.00  0.00    +0.094 C 
ATOM     29  C   UNL     1      -2.598  -2.796  -1.589  0.00  0.00    -0.004 C 
ATOM     30  C   UNL     1      -4.098  -3.061  -1.444  0.00  0.00    -0.078 C 
ATOM     31  N   UNL     1      -4.347  -4.507  -1.466  0.00  0.00    +0.383 N 
ATOM     32  C   UNL     1      -3.695  -5.143  -0.315  0.00  0.00    -0.078 C 
ATOM     33  C   UNL     1      -2.179  -4.958  -0.416  0.00  0.00    -0.004 C 
ATOM     34  H   UNL     1      -3.977  -4.898  -2.320  0.00  0.00    -0.081 HD
BRANCH  28  35
ATOM     35  C   UNL     1      -0.369  -3.272  -0.606  0.00  0.00    +0.310 C 
ATOM     36  O   UNL     1       0.355  -4.233  -0.713  0.00  0.00    -0.251 OA
BRANCH  35  37
ATOM     37  O   UNL     1       0.149  -2.034  -0.646  0.00  0.00    -0.465 OA
BRANCH  37  39
ATOM     38  C   UNL     1       1.966  -0.452  -0.839  0.00  0.00    +0.048 C 
ATOM     39  C   UNL     1       1.564  -1.928  -0.818  0.00  0.00    +0.229 C 
ENDBRANCH  37  39
ENDBRANCH  35  37
ENDBRANCH  28  35
ENDBRANCH  27  31
ENDBRANCH   1  27
TORSDOF 10
