REMARK  Name = ZINC37054088
REMARK  5 active torsions:
REMARK  status: ('A' for Active; 'I' for Inactive)
REMARK    1  A    between atoms: C_3  and  C_8
REMARK    2  A    between atoms: C_5  and  N_7
REMARK    3  A    between atoms: C_8  and  S_9
REMARK    4  A    between atoms: S_9  and  N_12
REMARK    5  A    between atoms: N_12  and  C_13
REMARK                            x       y       z     vdW  Elec       q    Type
REMARK                         _______ _______ _______ _____ _____    ______ ____
ROOT
ATOM      1  S   UNL     1       4.132   3.032   1.006  0.00  0.00    +0.047 S 
ATOM      2  O   UNL     1       3.346   3.842   1.870  0.00  0.00    -0.155 OA
ATOM      3  O   UNL     1       3.937   1.625   0.958  0.00  0.00    -0.155 OA
ENDROOT
BRANCH   1   4
ATOM      4  N   UNL     1       5.686   3.225   1.542  0.00  0.00    -0.220 N 
ATOM      5  H   UNL     1       5.869   3.801   2.302  0.00  0.00    +0.173 HD
BRANCH   4   6
ATOM      6  C   UNL     1       6.734   2.561   0.901  0.00  0.00    +0.048 A 
ATOM      7  C   UNL     1       6.918   1.198   1.098  0.00  0.00    +0.025 A 
ATOM      8  C   UNL     1       7.955   0.543   0.463  0.00  0.00    +0.016 A 
ATOM      9  C   UNL     1       8.811   1.244  -0.369  0.00  0.00    +0.013 A 
ATOM     10  C   UNL     1       8.630   2.601  -0.567  0.00  0.00    +0.016 A 
ATOM     11  C   UNL     1       7.591   3.260   0.060  0.00  0.00    +0.025 A 
ATOM     12  I   UNL     1      10.383   0.247  -1.329  0.00  0.00    -0.044 I 
ENDBRANCH   4   6
ENDBRANCH   1   4
BRANCH   1  13
ATOM     13  C   UNL     1       4.128   3.721  -0.672  0.00  0.00    +0.223 C 
BRANCH  13  16
ATOM     14  C   UNL     1       0.543   4.236  -1.744  0.00  0.00    +0.002 A 
ATOM     15  C   UNL     1       1.782   4.440  -1.164  0.00  0.00    +0.005 A 
ATOM     16  C   UNL     1       2.780   3.494  -1.306  0.00  0.00    -0.023 A 
ATOM     17  C   UNL     1       2.543   2.341  -2.028  0.00  0.00    +0.028 A 
ATOM     18  C   UNL     1       1.300   2.132  -2.612  0.00  0.00    +0.025 A 
ATOM     19  C   UNL     1       0.299   3.086  -2.468  0.00  0.00    +0.023 A 
BRANCH  18  20
ATOM     20  N   UNL     1       1.057   0.968  -3.343  0.00  0.00    -0.358 N 
ATOM     21  H   UNL     1       1.756   0.303  -3.443  0.00  0.00    +0.142 HD
ATOM     22  H   UNL     1       0.188   0.823  -3.751  0.00  0.00    +0.142 HD
ENDBRANCH  18  20
ENDBRANCH  13  16
ENDBRANCH   1  13
TORSDOF 5
