REMARK  Name = ZINC36562309
REMARK  11 active torsions:
REMARK  status: ('A' for Active; 'I' for Inactive)
REMARK    1  A    between atoms: C_1  and  C_2
REMARK    2  A    between atoms: C_2  and  C_3
REMARK    3  A    between atoms: C_3  and  N_4
REMARK    4  A    between atoms: N_4  and  C_5
REMARK    5  A    between atoms: C_5  and  C_7
REMARK    6  A    between atoms: C_5  and  C_16
REMARK    7  A    between atoms: N_18  and  C_19
REMARK    8  A    between atoms: C_25  and  C_27
REMARK    9  A    between atoms: C_35  and  C_37
REMARK   10  A    between atoms: C_38  and  C_39
REMARK   11  A    between atoms: C_38  and  C_40
REMARK                            x       y       z     vdW  Elec       q    Type
REMARK                         _______ _______ _______ _____ _____    ______ ____
ROOT
ATOM      1  C   UNL     1      -1.647  -2.567   0.953  0.00  0.00    +0.192 C 
ENDROOT
BRANCH   1   2
ATOM      2  C   UNL     1      -3.065  -3.076   0.971  0.00  0.00    -0.015 A 
ATOM      3  C   UNL     1      -4.087  -2.288   0.477  0.00  0.00    +0.010 A 
ATOM      4  C   UNL     1      -5.390  -2.751   0.491  0.00  0.00    +0.050 A 
ATOM      5  C   UNL     1      -5.673  -4.008   1.001  0.00  0.00    +0.166 A 
ATOM      6  C   UNL     1      -4.643  -4.802   1.498  0.00  0.00    +0.167 A 
ATOM      7  C   UNL     1      -3.339  -4.334   1.476  0.00  0.00    +0.055 A 
ATOM      8  O   UNL     1      -5.174  -5.980   1.938  0.00  0.00    -0.453 OA
ATOM      9  C   UNL     1      -6.586  -5.736   2.080  0.00  0.00    +0.466 C 
ATOM     10  O   UNL     1      -6.849  -4.688   1.128  0.00  0.00    -0.453 OA
ENDBRANCH   1   2
BRANCH   1  11
ATOM     11  C   UNL     1      -1.438  -1.621   2.108  0.00  0.00    +0.238 C 
ATOM     12  O   UNL     1      -1.213  -0.448   1.898  0.00  0.00    -0.273 OA
ATOM     13  N   UNL     1      -1.501  -2.080   3.374  0.00  0.00    -0.311 N 
ATOM     14  H   UNL     1      -1.680  -3.018   3.541  0.00  0.00    +0.149 HD
BRANCH  13  15
ATOM     15  C   UNL     1      -1.298  -1.161   4.497  0.00  0.00    +0.073 C 
ATOM     16  C   UNL     1       0.200  -1.022   4.777  0.00  0.00    +0.022 C 
ATOM     17  C   UNL     1       0.412  -0.062   5.950  0.00  0.00    +0.002 C 
ATOM     18  C   UNL     1      -0.291  -0.612   7.192  0.00  0.00    +0.000 C 
ATOM     19  C   UNL     1      -1.788  -0.752   6.912  0.00  0.00    +0.002 C 
ATOM     20  C   UNL     1      -2.000  -1.711   5.739  0.00  0.00    +0.022 C 
ENDBRANCH  13  15
ENDBRANCH   1  11
BRANCH   1  21
ATOM     21  N   UNL     1      -1.397  -1.861  -0.307  0.00  0.00    -0.286 N 
ATOM     22  C   UNL     1      -1.008  -2.549  -1.399  0.00  0.00    +0.220 C 
ATOM     23  O   UNL     1      -0.823  -3.745  -1.328  0.00  0.00    -0.275 OA
BRANCH  22  24
ATOM     24  C   UNL     1      -0.802  -1.826  -2.718  0.00  0.00    +0.079 C 
ATOM     25  C   UNL     1      -2.166  -1.451  -3.288  0.00  0.00    +0.017 C 
ATOM     26  C   UNL     1      -2.222  -1.568  -4.810  0.00  0.00    -0.004 C 
ATOM     27  C   UNL     1      -1.906  -3.007  -5.271  0.00  0.00    +0.008 C 
ATOM     28  C   UNL     1      -0.429  -2.567  -5.112  0.00  0.00    -0.001 C 
ATOM     29  C   UNL     1      -0.006  -2.728  -3.652  0.00  0.00    +0.001 C 
ATOM     30  C   UNL     1       1.497  -2.482  -3.492  0.00  0.00    +0.008 C 
ATOM     31  C   UNL     1      -0.918  -1.175  -5.516  0.00  0.00    -0.029 C 
ATOM     32  C   UNL     1      -0.179   0.020  -4.923  0.00  0.00    +0.011 C 
ATOM     33  C   UNL     1      -1.085  -1.012  -7.041  0.00  0.00    +0.011 C 
ENDBRANCH  22  24
BRANCH  21  34
ATOM     34  C   UNL     1      -1.570  -0.408  -0.379  0.00  0.00    +0.108 C 
BRANCH  34  36
ATOM     35  C   UNL     1      -0.400   1.789  -0.167  0.00  0.00    +0.005 C 
ATOM     36  C   UNL     1      -0.206   0.274  -0.266  0.00  0.00    +0.016 C 
ENDBRANCH  34  36
ENDBRANCH  21  34
ENDBRANCH   1  21
TORSDOF 7
