REMARK  Name = ZINC14549527
REMARK  4 active torsions:
REMARK  status: ('A' for Active; 'I' for Inactive)
REMARK    1  A    between atoms: C_1  and  N_2
REMARK    2  A    between atoms: N_2  and  C_3
REMARK    3  A    between atoms: C_4  and  C_6
REMARK    4  A    between atoms: C_19  and  C_22
REMARK                            x       y       z     vdW  Elec       q    Type
REMARK                         _______ _______ _______ _____ _____    ______ ____
ROOT
ATOM      1  C   UNL     1       3.412   3.948   0.296  0.00  0.00    +0.037 A 
ATOM      2  C   UNL     1       2.218   4.669   0.401  0.00  0.00    +0.015 A 
ATOM      3  C   UNL     1       1.030   4.005   0.590  0.00  0.00    +0.024 A 
ATOM      4  C   UNL     1       1.001   2.615   0.678  0.00  0.00    +0.031 A 
ATOM      5  C   UNL     1       2.200   1.894   0.583  0.00  0.00    -0.019 A 
ATOM      6  C   UNL     1       3.389   2.554   0.389  0.00  0.00    +0.019 A 
ATOM      7  C   UNL     1       2.123   0.421   0.702  0.00  0.00    +0.049 C 
ATOM      8  C   UNL     1       3.129  -0.470   0.070  0.00  0.00    -0.023 C 
ATOM      9  C   UNL     1       2.535  -1.609  -0.267  0.00  0.00    -0.030 C 
ATOM     10  C   UNL     1       1.049  -1.549   0.092  0.00  0.00    +0.033 C 
ATOM     11  C   UNL     1       0.783  -0.038   0.054  0.00  0.00    +0.029 C 
ATOM     12  C   UNL     1      -0.309   0.499   0.960  0.00  0.00    +0.106 C 
ATOM     13  N   UNL     1      -0.224   1.972   0.856  0.00  0.00    -0.336 N 
ATOM     14  H   UNL     1      -1.036   2.501   0.908  0.00  0.00    +0.147 HD
ENDROOT
BRANCH  12  15
ATOM     15  C   UNL     1      -1.659   0.021   0.489  0.00  0.00    -0.012 A 
ATOM     16  C   UNL     1      -2.215   0.534  -0.681  0.00  0.00    -0.012 A 
ATOM     17  C   UNL     1      -1.528   1.495  -1.454  0.00  0.00    +0.009 A 
ATOM     18  C   UNL     1      -2.096   1.969  -2.592  0.00  0.00    +0.001 A 
ATOM     19  C   UNL     1      -3.346   1.527  -3.028  0.00  0.00    +0.001 A 
ATOM     20  C   UNL     1      -4.056   0.601  -2.336  0.00  0.00    +0.008 A 
ATOM     21  C   UNL     1      -3.526   0.065  -1.143  0.00  0.00    -0.017 A 
ATOM     22  C   UNL     1      -4.228  -0.888  -0.407  0.00  0.00    +0.017 A 
ATOM     23  C   UNL     1      -3.675  -1.396   0.766  0.00  0.00    -0.017 A 
ATOM     24  C   UNL     1      -2.361  -0.931   1.225  0.00  0.00    -0.012 A 
ATOM     25  C   UNL     1      -1.830  -1.468   2.418  0.00  0.00    +0.009 A 
ATOM     26  C   UNL     1      -2.541  -2.395   3.110  0.00  0.00    +0.001 A 
ATOM     27  C   UNL     1      -3.790  -2.837   2.673  0.00  0.00    +0.001 A 
ATOM     28  C   UNL     1      -4.358  -2.363   1.536  0.00  0.00    +0.008 A 
ENDBRANCH  12  15
BRANCH   1  32
ATOM     29  C   UNL     1       6.029   6.361  -1.025  0.00  0.00    +0.132 C 
ATOM     30  N   UNL     1       4.742   5.723  -0.735  0.00  0.00    -0.304 N 
ATOM     31  C   UNL     1       3.513   6.245  -1.338  0.00  0.00    +0.132 C 
ATOM     32  C   UNL     1       4.689   4.656   0.087  0.00  0.00    +0.246 C 
ATOM     33  O   UNL     1       5.694   4.277   0.657  0.00  0.00    -0.270 OA
ENDBRANCH   1  32
TORSDOF 2
