REMARK  Name = ZINC35579665
REMARK  14 active torsions:
REMARK  status: ('A' for Active; 'I' for Inactive)
REMARK    1  A    between atoms: C_1  and  C_2
REMARK    2  A    between atoms: C_2  and  C_3
REMARK    3  A    between atoms: C_2  and  C_4
REMARK    4  A    between atoms: C_4  and  N_5
REMARK    5  A    between atoms: C_6  and  C_8
REMARK    6  A    between atoms: C_8  and  C_9
REMARK    7  A    between atoms: C_9  and  C_11
REMARK    8  A    between atoms: C_9  and  C_27
REMARK    9  A    between atoms: C_14  and  O_19
REMARK   10  A    between atoms: C_15  and  O_17
REMARK   11  A    between atoms: O_17  and  C_18
REMARK   12  A    between atoms: O_19  and  C_20
REMARK   13  A    between atoms: C_20  and  C_21
REMARK   14  A    between atoms: C_34  and  N_37
REMARK                            x       y       z     vdW  Elec       q    Type
REMARK                         _______ _______ _______ _____ _____    ______ ____
ROOT
ATOM      1  C   UNL     1      -5.513  -0.641  -2.712  0.00  0.00    +0.060 C 
ENDROOT
BRANCH   1   2
ATOM      2  C   UNL     1      -6.290   0.036  -1.612  0.00  0.00    -0.014 A 
ATOM      3  C   UNL     1      -6.522   1.353  -1.492  0.00  0.00    +0.087 A 
ATOM      4  N   UNL     1      -7.263   1.595  -0.368  0.00  0.00    -0.360 N 
ATOM      5  H   UNL     1      -7.555   2.472  -0.071  0.00  0.00    +0.165 HD
ATOM      6  C   UNL     1      -7.534   0.411   0.280  0.00  0.00    +0.047 A 
ATOM      7  C   UNL     1      -6.942  -0.619  -0.475  0.00  0.00    +0.006 A 
ATOM      8  C   UNL     1      -7.059  -1.945  -0.056  0.00  0.00    +0.043 A 
ATOM      9  C   UNL     1      -7.753  -2.237   1.085  0.00  0.00    +0.127 A 
ATOM     10  C   UNL     1      -8.343  -1.226   1.830  0.00  0.00    +0.035 A 
ATOM     11  C   UNL     1      -8.231   0.091   1.440  0.00  0.00    +0.028 A 
BRANCH   9  12
ATOM     12  N   UNL     1      -7.878  -3.644   1.528  0.00  0.00    +0.056 N 
ATOM     13  O   UNL     1      -7.367  -4.529   0.882  0.00  0.00    -0.126 OA
ATOM     14  O   UNL     1      -8.491  -3.908   2.536  0.00  0.00    -0.126 OA
ENDBRANCH   9  12
ENDBRANCH   1   2
BRANCH   1  15
ATOM     15  C   UNL     1      -6.166  -0.352  -4.039  0.00  0.00    -0.036 A 
ATOM     16  C   UNL     1      -6.289   0.953  -4.477  0.00  0.00    +0.008 A 
ATOM     17  C   UNL     1      -6.886   1.224  -5.694  0.00  0.00    +0.050 A 
ATOM     18  C   UNL     1      -7.363   0.185  -6.478  0.00  0.00    +0.162 A 
ATOM     19  C   UNL     1      -7.239  -1.129  -6.037  0.00  0.00    +0.162 A 
ATOM     20  C   UNL     1      -6.635  -1.393  -4.818  0.00  0.00    +0.053 A 
BRANCH  19  21
ATOM     21  O   UNL     1      -7.705  -2.151  -6.803  0.00  0.00    -0.491 OA
ATOM     22  C   UNL     1      -7.543  -3.474  -6.287  0.00  0.00    +0.277 C 
ENDBRANCH  19  21
BRANCH  18  23
ATOM     23  O   UNL     1      -7.951   0.450  -7.675  0.00  0.00    -0.484 OA
BRANCH  23  24
ATOM     24  C   UNL     1      -8.045   1.822  -8.063  0.00  0.00    +0.264 C 
BRANCH  24  25
ATOM     25  C   UNL     1      -8.720   1.919  -9.407  0.00  0.00    -0.010 A 
ATOM     26  C   UNL     1      -7.966   1.878 -10.564  0.00  0.00    +0.007 A 
ATOM     27  C   UNL     1      -8.585   1.967 -11.797  0.00  0.00    +0.000 A 
ATOM     28  C   UNL     1      -9.960   2.097 -11.872  0.00  0.00    +0.000 A 
ATOM     29  C   UNL     1     -10.714   2.138 -10.714  0.00  0.00    +0.000 A 
ATOM     30  C   UNL     1     -10.095   2.044  -9.482  0.00  0.00    +0.007 A 
ENDBRANCH  24  25
ENDBRANCH  23  24
ENDBRANCH  18  23
ENDBRANCH   1  15
BRANCH   1  31
ATOM     31  C   UNL     1      -4.078  -0.112  -2.723  0.00  0.00    +0.108 C 
BRANCH  31  33
ATOM     32  N   UNL     1      -2.105  -0.148  -1.230  0.00  0.00    -0.315 N 
ATOM     33  C   UNL     1      -3.387  -0.508  -1.443  0.00  0.00    +0.214 C 
ATOM     34  O   UNL     1      -3.983  -1.151  -0.606  0.00  0.00    -0.276 OA
ATOM     35  H   UNL     1      -1.628   0.366  -1.901  0.00  0.00    +0.149 HD
BRANCH  32  36
ATOM     36  C   UNL     1      -1.433  -0.534   0.013  0.00  0.00    +0.107 C 
BRANCH  36  38
ATOM     37  C   UNL     1      -0.019   1.526   0.010  0.00  0.00    +0.009 C 
ATOM     38  C   UNL     1       0.002  -0.004   0.002  0.00  0.00    -0.000 C 
ATOM     39  C   UNL     1       0.742  -0.511   1.242  0.00  0.00    +0.009 C 
ENDBRANCH  36  38
ENDBRANCH  32  36
ENDBRANCH  31  33
ENDBRANCH   1  31
TORSDOF 11
