REMARK  Name = ZINC22053354
REMARK  9 active torsions:
REMARK  status: ('A' for Active; 'I' for Inactive)
REMARK    1  A    between atoms: C_1  and  C_2
REMARK    2  A    between atoms: C_2  and  C_3
REMARK    3  A    between atoms: C_3  and  C_4
REMARK    4  A    between atoms: C_7  and  S_10
REMARK    5  A    between atoms: S_10  and  N_13
REMARK    6  A    between atoms: N_16  and  C_19
REMARK    7  A    between atoms: C_19  and  C_21
REMARK    8  A    between atoms: C_19  and  C_22
REMARK    9  A    between atoms: C_30  and  N_32
REMARK                            x       y       z     vdW  Elec       q    Type
REMARK                         _______ _______ _______ _____ _____    ______ ____
ROOT
ATOM      1  N   UNL     1      -1.189   8.946  -3.307  0.00  0.00    -0.180 NA
ATOM      2  C   UNL     1      -1.305   9.637  -2.014  0.00  0.00    +0.091 C 
ATOM      3  C   UNL     1      -0.111   9.239  -1.140  0.00  0.00    -0.060 C 
ATOM      4  N   UNL     1      -0.035   7.775  -1.057  0.00  0.00    +0.388 N 
ATOM      5  C   UNL     1       0.209   7.178  -2.377  0.00  0.00    -0.060 C 
ATOM      6  C   UNL     1      -0.973   7.491  -3.301  0.00  0.00    +0.091 C 
ATOM      7  H   UNL     1      -1.008   7.409  -0.699  0.00  0.00    -0.081 HD
ENDROOT
BRANCH   1   8
ATOM      8  S   UNL     1      -1.299   9.784  -4.731  0.00  0.00    +0.061 S 
ATOM      9  O   UNL     1      -1.707   8.849  -5.721  0.00  0.00    -0.153 OA
ATOM     10  O   UNL     1      -2.035  10.966  -4.451  0.00  0.00    -0.153 OA
BRANCH   8  14
ATOM     11  C   UNL     1       2.888  11.098  -5.838  0.00  0.00    -0.047 A 
ATOM     12  C   UNL     1       2.407   9.880  -6.280  0.00  0.00    +0.005 A 
ATOM     13  C   UNL     1       1.128   9.479  -5.942  0.00  0.00    +0.029 A 
ATOM     14  C   UNL     1       0.331  10.295  -5.162  0.00  0.00    +0.105 A 
ATOM     15  C   UNL     1       0.810  11.516  -4.725  0.00  0.00    +0.029 A 
ATOM     16  C   UNL     1       2.091  11.916  -5.060  0.00  0.00    +0.005 A 
BRANCH  11  17
ATOM     17  C   UNL     1       4.283  11.536  -6.206  0.00  0.00    +0.035 C 
BRANCH  17  19
ATOM     18  C   UNL     1       5.658  12.761  -7.894  0.00  0.00    +0.004 C 
ATOM     19  C   UNL     1       4.242  12.317  -7.521  0.00  0.00    +0.001 C 
ENDBRANCH  17  19
ENDBRANCH  11  17
ENDBRANCH   8  14
ENDBRANCH   1   8
BRANCH   4  20
ATOM     20  C   UNL     1       0.990   7.355  -0.092  0.00  0.00    -0.004 C 
ATOM     21  C   UNL     1       0.645   7.907   1.292  0.00  0.00    -0.005 C 
BRANCH  20  22
ATOM     22  C   UNL     1       1.039   5.850  -0.035  0.00  0.00    +0.096 A 
ATOM     23  N   UNL     1      -0.092   5.188   0.027  0.00  0.00    -0.344 N 
ATOM     24  C   UNL     1      -0.095   3.848   0.080  0.00  0.00    +0.051 A 
ATOM     25  C   UNL     1      -1.284   3.110   0.147  0.00  0.00    +0.026 A 
ATOM     26  C   UNL     1      -1.229   1.749   0.195  0.00  0.00    +0.002 A 
ATOM     27  C   UNL     1      -0.009   1.079   0.189  0.00  0.00    +0.001 A 
ATOM     28  C   UNL     1       1.167   1.767   0.124  0.00  0.00    +0.013 A 
ATOM     29  C   UNL     1       1.146   3.165   0.069  0.00  0.00    +0.038 A 
ATOM     30  C   UNL     1       2.333   3.934   0.001  0.00  0.00    +0.132 A 
ATOM     31  N   UNL     1       2.221   5.255  -0.048  0.00  0.00    -0.220 NA
ATOM     32  H   UNL     1      -1.048   5.733   0.035  0.00  0.00    +0.167 HD
BRANCH  30  33
ATOM     33  N   UNL     1       3.570   3.327  -0.014  0.00  0.00    -0.315 N 
ATOM     34  C   UNL     1       4.363   3.718   1.158  0.00  0.00    +0.106 C 
ATOM     35  C   UNL     1       5.667   2.917   1.185  0.00  0.00    +0.019 C 
ATOM     36  C   UNL     1       6.453   3.189  -0.100  0.00  0.00    +0.003 C 
ATOM     37  C   UNL     1       5.588   2.818  -1.307  0.00  0.00    +0.019 C 
ATOM     38  C   UNL     1       4.286   3.622  -1.262  0.00  0.00    +0.106 C 
ENDBRANCH  30  33
ENDBRANCH  20  22
ENDBRANCH   4  20
TORSDOF 7
