REMARK  Name = ZINC39688784
REMARK  8 active torsions:
REMARK  status: ('A' for Active; 'I' for Inactive)
REMARK    1  A    between atoms: C_1  and  C_2
REMARK    2  A    between atoms: C_7  and  C_8
REMARK    3  A    between atoms: C_8  and  C_9
REMARK    4  A    between atoms: C_13  and  C_22
REMARK    5  A    between atoms: N_24  and  C_25
REMARK    6  A    between atoms: C_25  and  C_27
REMARK    7  A    between atoms: C_25  and  C_28
REMARK    8  A    between atoms: C_28  and  C_29
REMARK                            x       y       z     vdW  Elec       q    Type
REMARK                         _______ _______ _______ _____ _____    ______ ____
ROOT
ATOM      1  C   UNL     1      -1.541   0.372   2.919  0.00  0.00    +0.220 C 
ATOM      2  O   UNL     1      -2.475   0.095   2.197  0.00  0.00    -0.275 OA
ATOM      3  N   UNL     1      -1.749   1.072   4.052  0.00  0.00    -0.300 N 
ATOM      4  C   UNL     1      -0.742   1.507   5.048  0.00  0.00    +0.121 C 
ATOM      5  C   UNL     1      -1.190   2.928   5.460  0.00  0.00    +0.100 C 
ATOM      6  C   UNL     1      -2.696   2.970   5.154  0.00  0.00    -0.004 C 
ATOM      7  C   UNL     1      -3.036   1.587   4.579  0.00  0.00    +0.115 C 
ATOM      8  C   UNL     1      -2.995   4.051   4.120  0.00  0.00    -0.010 C 
ATOM      9  C   UNL     1      -4.505   4.112   3.874  0.00  0.00    -0.082 C 
ATOM     10  N   UNL     1      -5.197   4.406   5.135  0.00  0.00    +0.379 N 
ATOM     11  C   UNL     1      -4.980   3.315   6.093  0.00  0.00    -0.082 C 
ATOM     12  C   UNL     1      -3.489   3.221   6.432  0.00  0.00    -0.010 C 
ATOM     13  H   UNL     1      -4.838   5.267   5.521  0.00  0.00    -0.086 HD
ATOM     14  H   UNL     1      -6.186   4.506   4.960  0.00  0.00    -0.086 HD
ENDROOT
BRANCH   5  15
ATOM     15  C   UNL     1      -0.945   3.149   6.931  0.00  0.00    +0.218 C 
ATOM     16  O   UNL     1      -1.008   2.216   7.703  0.00  0.00    -0.275 OA
ATOM     17  N   UNL     1      -0.656   4.384   7.387  0.00  0.00    -0.312 N 
ATOM     18  H   UNL     1      -0.605   5.130   6.770  0.00  0.00    +0.149 HD
BRANCH  17  19
ATOM     19  C   UNL     1      -0.418   4.599   8.817  0.00  0.00    +0.074 C 
ATOM     20  C   UNL     1      -1.755   4.808   9.531  0.00  0.00    +0.028 C 
BRANCH  19  21
ATOM     21  C   UNL     1       0.460   5.838   9.007  0.00  0.00    +0.057 C 
BRANCH  21  22
ATOM     22  C   UNL     1       1.821   5.585   8.410  0.00  0.00    -0.045 A 
ATOM     23  C   UNL     1       2.823   5.033   9.185  0.00  0.00    +0.006 A 
ATOM     24  C   UNL     1       4.071   4.800   8.639  0.00  0.00    +0.038 A 
ATOM     25  C   UNL     1       4.317   5.121   7.314  0.00  0.00    +0.123 A 
ATOM     26  C   UNL     1       3.312   5.674   6.539  0.00  0.00    +0.038 A 
ATOM     27  C   UNL     1       2.063   5.901   7.086  0.00  0.00    +0.006 A 
ATOM     28  F   UNL     1       5.537   4.894   6.779  0.00  0.00    -0.205 F 
ENDBRANCH  21  22
ENDBRANCH  19  21
ENDBRANCH  17  19
ENDBRANCH   5  15
BRANCH   1  29
ATOM     29  C   UNL     1      -0.148  -0.067   2.550  0.00  0.00    +0.131 C 
BRANCH  29  36
ATOM     30  C   UNL     1      -0.065   1.361   0.040  0.00  0.00    +0.044 C 
ATOM     31  C   UNL     1      -0.149  -0.144   0.048  0.00  0.00    -0.047 A 
ATOM     32  C   UNL     1      -0.181  -0.841  -1.145  0.00  0.00    +0.003 A 
ATOM     33  C   UNL     1      -0.258  -2.221  -1.137  0.00  0.00    +0.000 A 
ATOM     34  C   UNL     1      -0.302  -2.904   0.064  0.00  0.00    +0.000 A 
ATOM     35  C   UNL     1      -0.270  -2.207   1.257  0.00  0.00    +0.004 A 
ATOM     36  C   UNL     1      -0.188  -0.827   1.249  0.00  0.00    -0.036 A 
ENDBRANCH  29  36
ENDBRANCH   1  29
TORSDOF 6
