REMARK  Name = ZINC39944725
REMARK  5 active torsions:
REMARK  status: ('A' for Active; 'I' for Inactive)
REMARK    1  A    between atoms: C_4  and  O_7
REMARK    2  A    between atoms: O_7  and  C_8
REMARK    3  A    between atoms: C_11  and  N_14
REMARK    4  A    between atoms: N_14  and  C_15
REMARK    5  A    between atoms: C_25  and  C_27
REMARK                            x       y       z     vdW  Elec       q    Type
REMARK                         _______ _______ _______ _____ _____    ______ ____
ROOT
ATOM      1  N   UNL     1       3.762  -6.298   0.165  0.00  0.00    -0.239 N 
ATOM      2  C   UNL     1       2.817  -6.869  -0.608  0.00  0.00    +0.250 C 
ATOM      3  O   UNL     1       1.830  -6.237  -0.929  0.00  0.00    -0.270 OA
ENDROOT
BRANCH   2   4
ATOM      4  C   UNL     1       2.981  -8.263  -1.064  0.00  0.00    +0.033 C 
ATOM      5  C   UNL     1       2.585  -9.329  -0.282  0.00  0.00    +0.005 A 
ATOM      6  C   UNL     1       1.986  -9.116   1.035  0.00  0.00    +0.010 A 
ATOM      7  C   UNL     1       1.613 -10.195   1.766  0.00  0.00    +0.001 A 
ATOM      8  C   UNL     1       1.790 -11.499   1.288  0.00  0.00    +0.002 A 
ATOM      9  C   UNL     1       2.339 -11.766   0.078  0.00  0.00    +0.024 A 
ATOM     10  C   UNL     1       2.761 -10.715  -0.764  0.00  0.00    +0.041 A 
ATOM     11  N   UNL     1       3.297 -10.984  -1.946  0.00  0.00    -0.285 N 
ATOM     12  C   UNL     1       3.717 -10.047  -2.787  0.00  0.00    +0.222 C 
ATOM     13  O   UNL     1       4.200 -10.362  -3.857  0.00  0.00    -0.275 OA
ATOM     14  C   UNL     1       3.587  -8.587  -2.417  0.00  0.00    +0.137 C 
ATOM     15  H   UNL     1       3.388 -11.913  -2.210  0.00  0.00    +0.155 HD
ENDBRANCH   2   4
BRANCH   1  16
ATOM     16  C   UNL     1       5.029  -6.993   0.409  0.00  0.00    +0.231 C 
ATOM     17  N   UNL     1       4.800  -8.405   0.744  0.00  0.00    -0.316 N 
ATOM     18  C   UNL     1       5.332  -9.365  -0.115  0.00  0.00    +0.043 A 
ATOM     19  C   UNL     1       5.217 -10.758   0.043  0.00  0.00    +0.024 A 
ATOM     20  C   UNL     1       5.780 -11.627  -0.863  0.00  0.00    +0.002 A 
ATOM     21  C   UNL     1       6.479 -11.160  -1.961  0.00  0.00    +0.001 A 
ATOM     22  C   UNL     1       6.608  -9.793  -2.142  0.00  0.00    +0.016 A 
ATOM     23  C   UNL     1       6.045  -8.924  -1.234  0.00  0.00    +0.032 A 
ATOM     24  S   UNL     1       6.006  -7.148  -1.140  0.00  0.00    -0.081 S 
ATOM     25  H   UNL     1       4.298  -8.659   1.534  0.00  0.00    +0.149 HD
ENDBRANCH   1  16
BRANCH   1  29
ATOM     26  C   UNL     1       3.081  -2.554   1.862  0.00  0.00    +0.129 A 
ATOM     27  C   UNL     1       2.059  -3.205   1.184  0.00  0.00    +0.048 A 
ATOM     28  C   UNL     1       2.284  -4.445   0.622  0.00  0.00    +0.027 A 
ATOM     29  C   UNL     1       3.534  -5.042   0.734  0.00  0.00    +0.039 A 
ATOM     30  C   UNL     1       4.557  -4.390   1.412  0.00  0.00    +0.027 A 
ATOM     31  C   UNL     1       4.332  -3.147   1.970  0.00  0.00    +0.048 A 
BRANCH  26  32
ATOM     32  O   UNL     1       2.859  -1.333   2.416  0.00  0.00    -0.456 OA
BRANCH  32  36
ATOM     33  C   UNL     1       1.123  -1.190   6.156  0.00  0.00    +0.000 A 
ATOM     34  C   UNL     1       1.473  -2.409   5.604  0.00  0.00    +0.004 A 
ATOM     35  C   UNL     1       2.054  -2.459   4.351  0.00  0.00    +0.046 A 
ATOM     36  C   UNL     1       2.287  -1.286   3.648  0.00  0.00    +0.128 A 
ATOM     37  C   UNL     1       1.935  -0.065   4.205  0.00  0.00    +0.046 A 
ATOM     38  C   UNL     1       1.354  -0.020   5.457  0.00  0.00    +0.004 A 
ENDBRANCH  32  36
ENDBRANCH  26  32
ENDBRANCH   1  29
TORSDOF 5
