REMARK  Name = ZINC20899183
REMARK  5 active torsions:
REMARK  status: ('A' for Active; 'I' for Inactive)
REMARK    1  A    between atoms: C_1  and  C_2
REMARK    2  A    between atoms: C_5  and  C_7
REMARK    3  A    between atoms: N_24  and  C_27
REMARK    4  A    between atoms: C_29  and  C_34
REMARK    5  A    between atoms: C_31  and  C_33
REMARK                            x       y       z     vdW  Elec       q    Type
REMARK                         _______ _______ _______ _____ _____    ______ ____
ROOT
ATOM      1  C   UNL     1       0.352  -3.149   0.952  0.00  0.00    +0.094 C 
ATOM      2  C   UNL     1       1.467  -3.850   1.674  0.00  0.00    +0.071 C 
ATOM      3  C   UNL     1       1.262  -5.322   1.742  0.00  0.00    +0.027 C 
ATOM      4  N   UNL     1       0.779  -6.123   0.858  0.00  0.00    -0.316 N 
ATOM      5  C   UNL     1       0.086  -6.123  -0.321  0.00  0.00    +0.045 A 
ATOM      6  C   UNL     1      -0.402  -7.383  -0.711  0.00  0.00    +0.024 A 
ATOM      7  C   UNL     1      -1.118  -7.555  -1.870  0.00  0.00    +0.002 A 
ATOM      8  C   UNL     1      -1.375  -6.466  -2.684  0.00  0.00    +0.001 A 
ATOM      9  C   UNL     1      -0.905  -5.227  -2.320  0.00  0.00    +0.016 A 
ATOM     10  C   UNL     1      -0.170  -5.034  -1.141  0.00  0.00    +0.030 A 
ATOM     11  S   UNL     1       0.368  -3.403  -0.816  0.00  0.00    -0.114 S 
ATOM     12  C   UNL     1       1.647  -5.917   2.930  0.00  0.00    +0.117 C 
ATOM     13  C   UNL     1       2.570  -5.246   3.862  0.00  0.00    +0.258 C 
ATOM     14  N   UNL     1       2.901  -5.886   5.002  0.00  0.00    -0.235 N 
ATOM     15  C   UNL     1       2.411  -7.100   5.292  0.00  0.00    +0.320 C 
ATOM     16  O   UNL     1       2.749  -7.622   6.336  0.00  0.00    -0.251 OA
ATOM     17  N   UNL     1       1.569  -7.767   4.491  0.00  0.00    -0.190 N 
ATOM     18  C   UNL     1       1.147  -7.247   3.321  0.00  0.00    +0.265 C 
ATOM     19  O   UNL     1       0.378  -7.860   2.605  0.00  0.00    -0.269 OA
ATOM     20  O   UNL     1       3.021  -4.144   3.610  0.00  0.00    -0.270 OA
ATOM     21  H   UNL     1       3.507  -5.458   5.627  0.00  0.00    +0.159 HD
ATOM     22  H   UNL     1       0.974  -7.038   1.115  0.00  0.00    +0.152 HD
ENDROOT
BRANCH  17  23
ATOM     23  C   UNL     1       1.112  -9.033   4.881  0.00  0.00    +0.046 A 
ATOM     24  C   UNL     1       1.819 -10.171   4.518  0.00  0.00    +0.027 A 
ATOM     25  C   UNL     1       1.366 -11.418   4.904  0.00  0.00    -0.048 A 
ATOM     26  C   UNL     1       0.209 -11.533   5.652  0.00  0.00    +0.006 A 
ATOM     27  C   UNL     1      -0.498 -10.401   6.016  0.00  0.00    -0.048 A 
ATOM     28  C   UNL     1      -0.047  -9.152   5.638  0.00  0.00    +0.027 A 
ATOM     29  C   UNL     1      -1.759 -10.531   6.830  0.00  0.00    +0.044 C 
ATOM     30  C   UNL     1       2.133 -12.653   4.509  0.00  0.00    +0.044 C 
ENDBRANCH  17  23
BRANCH   1  35
ATOM     31  C   UNL     1       1.619   2.342   1.531  0.00  0.00    +0.051 C 
ATOM     32  C   UNL     1       1.059   0.943   1.502  0.00  0.00    -0.013 A 
ATOM     33  C   UNL     1      -0.121   0.486   1.990  0.00  0.00    +0.011 A 
ATOM     34  C   UNL     1      -0.430  -0.854   1.848  0.00  0.00    +0.012 A 
ATOM     35  C   UNL     1       0.455  -1.671   1.227  0.00  0.00    +0.004 A 
ATOM     36  S   UNL     1       1.773  -0.540   0.811  0.00  0.00    -0.097 S 
ENDBRANCH   1  35
TORSDOF 2
