REMARK  Name = ZINC51605093
REMARK  2 active torsions:
REMARK  status: ('A' for Active; 'I' for Inactive)
REMARK    1  A    between atoms: C_7  and  N_12
REMARK    2  A    between atoms: C_14  and  C_20
REMARK                            x       y       z     vdW  Elec       q    Type
REMARK                         _______ _______ _______ _____ _____    ______ ____
ROOT
ATOM      1  C   UNL     1      -0.019   1.533   0.011  0.00  0.00    -0.003 C 
ATOM      2  C   UNL     1       1.404   2.090  -0.000  0.00  0.00    -0.019 C 
ATOM      3  C   UNL     1       2.236   1.477   1.137  0.00  0.00    -0.078 C 
ATOM      4  N   UNL     1       2.227   0.032   0.968  0.00  0.00    +0.383 N 
ATOM      5  C   UNL     1       3.058  -0.729   1.903  0.00  0.00    -0.077 C 
ATOM      6  C   UNL     1       2.353  -2.096   2.080  0.00  0.00    +0.002 C 
ATOM      7  C   UNL     1       1.038  -1.980   1.261  0.00  0.00    +0.061 C 
ATOM      8  C   UNL     1       0.840  -0.456   1.190  0.00  0.00    -0.048 C 
ATOM      9  C   UNL     1       0.002  -0.004   0.002  0.00  0.00    -0.014 C 
ATOM     10  H   UNL     1       2.510  -0.195   0.026  0.00  0.00    -0.081 HD
ENDROOT
BRANCH   7  11
ATOM     11  N   UNL     1      -0.075  -2.622   1.964  0.00  0.00    -0.299 N 
ATOM     12  C   UNL     1      -0.775  -3.708   1.289  0.00  0.00    +0.122 C 
ATOM     13  C   UNL     1      -1.554  -4.552   2.298  0.00  0.00    +0.120 C 
ATOM     14  C   UNL     1      -2.406  -3.617   3.165  0.00  0.00    +0.025 C 
ATOM     15  C   UNL     1      -1.469  -2.773   4.032  0.00  0.00    +0.097 C 
ATOM     16  C   UNL     1      -0.382  -2.179   3.184  0.00  0.00    +0.216 C 
ATOM     17  O   UNL     1       0.248  -1.244   3.630  0.00  0.00    -0.276 OA
BRANCH  13  18
ATOM     18  C   UNL     1      -2.446  -5.520   1.565  0.00  0.00    +0.361 C 
ATOM     19  O   UNL     1      -2.575  -6.661   1.976  0.00  0.00    -0.246 OA
ATOM     20  O   UNL     1      -3.039  -5.163   0.561  0.00  0.00    -0.246 OA
ENDBRANCH  13  18
ENDBRANCH   7  11
TORSDOF 2
