REMARK  Name = ZINC65248805
REMARK  3 active torsions:
REMARK  status: ('A' for Active; 'I' for Inactive)
REMARK    1  A    between atoms: N_10  and  S_12
REMARK    2  A    between atoms: S_12  and  C_15
REMARK    3  A    between atoms: C_19  and  C_21
REMARK                            x       y       z     vdW  Elec       q    Type
REMARK                         _______ _______ _______ _____ _____    ______ ____
ROOT
ATOM      1  C   UNL     1      -0.017   1.379   0.010  0.00  0.00    +0.000 A 
ATOM      2  C   UNL     1       1.173   2.084   0.002  0.00  0.00    +0.002 A 
ATOM      3  C   UNL     1       2.379   1.414  -0.013  0.00  0.00    +0.023 A 
ATOM      4  C   UNL     1       2.407   0.021  -0.020  0.00  0.00    +0.038 A 
ATOM      5  C   UNL     1       1.203  -0.677  -0.014  0.00  0.00    -0.010 A 
ATOM      6  C   UNL     1       0.002  -0.004   0.002  0.00  0.00    +0.006 A 
ATOM      7  C   UNL     1       1.576  -2.130  -0.029  0.00  0.00    +0.089 C 
ATOM      8  C   UNL     1       1.007  -2.876   1.192  0.00  0.00    +0.039 C 
ATOM      9  C   UNL     1       0.942  -4.332   0.660  0.00  0.00    +0.111 C 
ATOM     10  N   UNL     1       0.578  -4.203  -0.764  0.00  0.00    -0.175 NA
ATOM     11  C   UNL     1       0.982  -2.866  -1.233  0.00  0.00    +0.130 C 
ATOM     12  C   UNL     1       3.078  -2.155  -0.039  0.00  0.00    +0.229 C 
ATOM     13  O   UNL     1       3.787  -3.139  -0.051  0.00  0.00    -0.274 OA
ATOM     14  N   UNL     1       3.483  -0.870  -0.034  0.00  0.00    -0.284 N 
ATOM     15  H   UNL     1       4.413  -0.595  -0.039  0.00  0.00    +0.155 HD
ENDROOT
BRANCH  10  16
ATOM     16  S   UNL     1      -0.160  -5.366  -1.682  0.00  0.00    +0.061 S 
ATOM     17  O   UNL     1       0.173  -5.088  -3.035  0.00  0.00    -0.153 OA
ATOM     18  O   UNL     1       0.130  -6.614  -1.067  0.00  0.00    -0.153 OA
BRANCH  16  19
ATOM     19  C   UNL     1      -1.899  -5.123  -1.531  0.00  0.00    +0.107 A 
ATOM     20  C   UNL     1      -2.600  -5.758  -0.521  0.00  0.00    +0.028 A 
ATOM     21  C   UNL     1      -3.965  -5.573  -0.396  0.00  0.00    +0.003 A 
ATOM     22  C   UNL     1      -4.637  -4.752  -1.278  0.00  0.00    +0.019 A 
ATOM     23  C   UNL     1      -3.936  -4.108  -2.299  0.00  0.00    +0.054 A 
ATOM     24  C   UNL     1      -2.557  -4.296  -2.417  0.00  0.00    +0.047 A 
BRANCH  23  25
ATOM     25  C   UNL     1      -4.627  -3.255  -3.219  0.00  0.00    +0.099 C 
ATOM     26  N   UNL     1      -5.175  -2.578  -3.948  0.00  0.00    -0.191 NA
ENDBRANCH  23  25
ENDBRANCH  16  19
ENDBRANCH  10  16
TORSDOF 3
