REMARK  Name = ZINC64045381
REMARK  9 active torsions:
REMARK  status: ('A' for Active; 'I' for Inactive)
REMARK    1  A    between atoms: C_1  and  C_2
REMARK    2  A    between atoms: C_2  and  C_3
REMARK    3  A    between atoms: C_3  and  C_4
REMARK    4  A    between atoms: C_4  and  N_5
REMARK    5  A    between atoms: C_6  and  C_8
REMARK    6  A    between atoms: C_10  and  C_31
REMARK    7  A    between atoms: N_19  and  C_20
REMARK    8  A    between atoms: C_20  and  C_21
REMARK    9  A    between atoms: C_21  and  C_22
REMARK                            x       y       z     vdW  Elec       q    Type
REMARK                         _______ _______ _______ _____ _____    ______ ____
ROOT
ATOM      1  C   UNL     1       1.794  -3.968  -4.038  0.00  0.00    +0.146 C 
ATOM      2  C   UNL     1       1.729  -5.316  -4.792  0.00  0.00    +0.044 C 
ATOM      3  C   UNL     1       3.083  -5.736  -5.302  0.00  0.00    +0.028 A 
ATOM      4  C   UNL     1       3.368  -6.651  -6.330  0.00  0.00    +0.126 A 
ATOM      5  N   UNL     1       4.629  -6.916  -6.643  0.00  0.00    -0.221 NA
ATOM      6  C   UNL     1       5.634  -6.343  -6.013  0.00  0.00    +0.224 A 
ATOM      7  N   UNL     1       5.420  -5.471  -5.045  0.00  0.00    -0.229 NA
ATOM      8  C   UNL     1       4.188  -5.152  -4.686  0.00  0.00    +0.106 A 
ATOM      9  S   UNL     1       3.548  -4.011  -3.479  0.00  0.00    -0.092 S 
ATOM     10  N   UNL     1       2.334  -7.274  -7.013  0.00  0.00    -0.328 N 
ATOM     11  C   UNL     1       0.772  -5.180  -5.978  0.00  0.00    +0.014 C 
ATOM     12  H   UNL     1       1.417  -7.147  -6.725  0.00  0.00    +0.147 HD
ENDROOT
BRANCH   1  14
ATOM     13  N   UNL     1       0.282  -2.787  -2.477  0.00  0.00    -0.314 N 
ATOM     14  C   UNL     1       0.845  -3.947  -2.868  0.00  0.00    +0.227 C 
ATOM     15  O   UNL     1       0.588  -4.975  -2.277  0.00  0.00    -0.275 OA
ATOM     16  H   UNL     1       0.488  -1.965  -2.950  0.00  0.00    +0.149 HD
BRANCH  13  17
ATOM     17  C   UNL     1      -0.640  -2.766  -1.339  0.00  0.00    +0.104 C 
BRANCH  17  18
ATOM     18  C   UNL     1      -1.133  -1.336  -1.108  0.00  0.00    +0.018 C 
BRANCH  18  20
ATOM     19  C   UNL     1      -2.589   0.115   0.312  0.00  0.00    +0.004 C 
ATOM     20  C   UNL     1      -2.096  -1.315   0.081  0.00  0.00    -0.002 C 
ENDBRANCH  18  20
ENDBRANCH  17  18
ENDBRANCH  13  17
ENDBRANCH   1  14
BRANCH  10  21
ATOM     21  C   UNL     1       2.629  -8.124  -8.169  0.00  0.00    +0.107 C 
BRANCH  21  22
ATOM     22  C   UNL     1       1.323  -8.685  -8.735  0.00  0.00    +0.052 C 
BRANCH  22  23
ATOM     23  C   UNL     1       1.626  -9.560  -9.924  0.00  0.00    -0.040 C 
ATOM     24  C   UNL     1       1.778 -10.904  -9.928  0.00  0.00    -0.001 A 
ATOM     25  C   UNL     1       1.710 -11.915  -8.866  0.00  0.00    +0.010 A 
ATOM     26  C   UNL     1       1.911 -13.214  -9.183  0.00  0.00    +0.001 A 
ATOM     27  C   UNL     1       2.182 -13.618 -10.498  0.00  0.00    +0.002 A 
ATOM     28  C   UNL     1       2.260 -12.748 -11.527  0.00  0.00    +0.026 A 
ATOM     29  C   UNL     1       2.065 -11.356 -11.308  0.00  0.00    +0.043 A 
ATOM     30  N   UNL     1       2.090 -10.332 -12.125  0.00  0.00    -0.380 N 
ATOM     31  C   UNL     1       1.815  -9.113 -11.357  0.00  0.00    +0.144 C 
ATOM     32  H   UNL     1       2.259 -10.373 -13.080  0.00  0.00    +0.160 HD
ENDBRANCH  22  23
ENDBRANCH  21  22
ENDBRANCH  10  21
TORSDOF 7
