REMARK  Name = ZINC33514694
REMARK  11 active torsions:
REMARK  status: ('A' for Active; 'I' for Inactive)
REMARK    1  A    between atoms: C_1  and  C_2
REMARK    2  A    between atoms: C_2  and  O_3
REMARK    3  A    between atoms: O_3  and  C_4
REMARK    4  A    between atoms: C_4  and  C_6
REMARK    5  A    between atoms: C_9  and  N_12
REMARK    6  A    between atoms: C_13  and  C_15
REMARK    7  A    between atoms: C_18  and  C_33
REMARK    8  A    between atoms: C_19  and  C_20
REMARK    9  A    between atoms: C_19  and  C_21
REMARK   10  A    between atoms: N_23  and  N_24
REMARK   11  A    between atoms: N_24  and  C_25
REMARK                            x       y       z     vdW  Elec       q    Type
REMARK                         _______ _______ _______ _____ _____    ______ ____
ROOT
ATOM      1  C   UNL     1      -4.642   4.464  -0.061  0.00  0.00    +0.117 C 
ATOM      2  C   UNL     1      -4.513   5.275   1.266  0.00  0.00    +0.026 C 
ATOM      3  C   UNL     1      -3.079   5.855   1.214  0.00  0.00    +0.015 C 
ATOM      4  C   UNL     1      -2.505   5.329  -0.132  0.00  0.00    +0.022 C 
ATOM      5  C   UNL     1      -3.796   5.363  -1.032  0.00  0.00    -0.003 C 
ATOM      6  C   UNL     1      -3.577   4.702  -2.394  0.00  0.00    +0.013 C 
ATOM      7  C   UNL     1      -4.372   6.774  -1.167  0.00  0.00    +0.013 C 
ATOM      8  C   UNL     1      -2.364   3.815   0.075  0.00  0.00    +0.109 C 
ATOM      9  N   UNL     1      -1.247   3.145   0.191  0.00  0.00    -0.183 NA
ATOM     10  C   UNL     1      -3.679   3.283   0.122  0.00  0.00    +0.195 C 
ATOM     11  O   UNL     1      -3.984   2.118   0.279  0.00  0.00    -0.290 OA
ATOM     12  C   UNL     1      -1.266   6.056  -0.659  0.00  0.00    +0.018 C 
ENDROOT
BRANCH   1  14
ATOM     13  N   UNL     1      -6.815   3.335   0.289  0.00  0.00    -0.285 N 
ATOM     14  C   UNL     1      -6.044   4.117  -0.492  0.00  0.00    +0.232 C 
ATOM     15  O   UNL     1      -6.478   4.540  -1.543  0.00  0.00    -0.274 OA
ATOM     16  H   UNL     1      -6.394   2.880   1.197  0.00  0.00    +0.155 HD
BRANCH  13  20
ATOM     17  C   UNL     1     -10.792   2.643  -0.738  0.00  0.00    +0.059 A 
ATOM     18  C   UNL     1     -10.050   1.645  -0.099  0.00  0.00    +0.017 A 
ATOM     19  C   UNL     1      -8.736   1.878   0.239  0.00  0.00    +0.024 A 
ATOM     20  C   UNL     1      -8.146   3.103  -0.055  0.00  0.00    +0.033 A 
ATOM     21  C   UNL     1      -8.884   4.101  -0.685  0.00  0.00    +0.024 A 
ATOM     22  C   UNL     1     -10.197   3.873  -1.031  0.00  0.00    +0.017 A 
BRANCH  17  23
ATOM     23  C   UNL     1     -12.200   2.398  -1.102  0.00  0.00    +0.339 C 
ATOM     24  O   UNL     1     -12.716   1.328  -0.847  0.00  0.00    -0.245 OA
BRANCH  23  25
ATOM     25  O   UNL     1     -12.914   3.361  -1.717  0.00  0.00    -0.461 OA
BRANCH  25  27
ATOM     26  C   UNL     1     -14.938   4.254  -2.735  0.00  0.00    +0.048 C 
ATOM     27  C   UNL     1     -14.294   3.049  -2.046  0.00  0.00    +0.229 C 
ENDBRANCH  25  27
ENDBRANCH  23  25
ENDBRANCH  17  23
ENDBRANCH  13  20
ENDBRANCH   1  14
BRANCH   9  28
ATOM     28  N   UNL     1      -1.277   1.867   0.368  0.00  0.00    -0.237 N 
ATOM     29  H   UNL     1      -2.242   1.342   0.421  0.00  0.00    +0.174 HD
BRANCH  28  30
ATOM     30  C   UNL     1      -0.086   1.152   0.492  0.00  0.00    +0.048 A 
ATOM     31  C   UNL     1       1.135   1.813   0.419  0.00  0.00    +0.025 A 
ATOM     32  C   UNL     1       2.312   1.101   0.538  0.00  0.00    +0.002 A 
ATOM     33  C   UNL     1       2.278  -0.268   0.727  0.00  0.00    +0.000 A 
ATOM     34  C   UNL     1       1.065  -0.930   0.799  0.00  0.00    +0.002 A 
ATOM     35  C   UNL     1      -0.116  -0.225   0.683  0.00  0.00    +0.025 A 
ENDBRANCH  28  30
ENDBRANCH   9  28
TORSDOF 7
