REMARK  Name = ZINC09503646
REMARK  10 active torsions:
REMARK  status: ('A' for Active; 'I' for Inactive)
REMARK    1  A    between atoms: C_1  and  C_2
REMARK    2  A    between atoms: C_2  and  C_3
REMARK    3  A    between atoms: C_2  and  C_4
REMARK    4  A    between atoms: C_4  and  C_6
REMARK    5  A    between atoms: C_4  and  N_27
REMARK    6  A    between atoms: N_8  and  C_9
REMARK    7  A    between atoms: C_9  and  C_10
REMARK    8  A    between atoms: C_10  and  C_12
REMARK    9  A    between atoms: C_10  and  C_17
REMARK   10  A    between atoms: C_28  and  C_30
REMARK                            x       y       z     vdW  Elec       q    Type
REMARK                         _______ _______ _______ _____ _____    ______ ____
ROOT
ATOM      1  C   UNL     1      -2.425  -4.359   0.282  0.00  0.00    +0.234 C 
ATOM      2  O   UNL     1      -1.374  -4.896   0.562  0.00  0.00    -0.274 OA
ATOM      3  N   UNL     1      -3.552  -5.091   0.190  0.00  0.00    -0.313 N 
ATOM      4  H   UNL     1      -4.378  -4.676  -0.104  0.00  0.00    +0.149 HD
ENDROOT
BRANCH   1   5
ATOM      5  C   UNL     1      -2.470  -2.872   0.036  0.00  0.00    +0.162 C 
BRANCH   5   6
ATOM      6  N   UNL     1      -1.403  -2.219   0.800  0.00  0.00    -0.300 N 
ATOM      7  C   UNL     1      -1.525  -0.925   1.156  0.00  0.00    +0.247 C 
ATOM      8  O   UNL     1      -2.520  -0.300   0.843  0.00  0.00    -0.270 OA
ATOM      9  H   UNL     1      -0.610  -2.718   1.049  0.00  0.00    +0.150 HD
BRANCH   7  10
ATOM     10  C   UNL     1      -0.450  -0.266   1.925  0.00  0.00    +0.072 A 
ATOM     11  C   UNL     1       0.694  -0.981   2.285  0.00  0.00    +0.016 A 
ATOM     12  C   UNL     1       1.694  -0.360   3.003  0.00  0.00    +0.001 A 
ATOM     13  C   UNL     1       1.567   0.970   3.368  0.00  0.00    +0.003 A 
ATOM     14  C   UNL     1       0.439   1.685   3.016  0.00  0.00    +0.039 A 
ATOM     15  C   UNL     1      -0.573   1.076   2.296  0.00  0.00    +0.135 A 
ATOM     16  F   UNL     1      -1.674   1.778   1.948  0.00  0.00    -0.205 F 
ENDBRANCH   7  10
ENDBRANCH   5   6
BRANCH   5  18
ATOM     17  C   UNL     1      -3.413  -3.236  -2.248  0.00  0.00    +0.009 C 
ATOM     18  C   UNL     1      -2.272  -2.596  -1.455  0.00  0.00    +0.012 C 
ATOM     19  C   UNL     1      -2.267  -1.085  -1.698  0.00  0.00    +0.009 C 
ENDBRANCH   5  18
ENDBRANCH   1   5
BRANCH   3  20
ATOM     20  C   UNL     1      -3.531  -6.514   0.536  0.00  0.00    +0.117 C 
BRANCH  20  21
ATOM     21  C   UNL     1      -4.930  -7.106   0.347  0.00  0.00    +0.075 C 
BRANCH  21  22
ATOM     22  C   UNL     1      -4.938  -8.537   0.818  0.00  0.00    -0.013 A 
ATOM     23  C   UNL     1      -4.188  -9.541   0.336  0.00  0.00    +0.088 A 
ATOM     24  N   UNL     1      -4.465 -10.697   1.014  0.00  0.00    -0.360 N 
ATOM     25  H   UNL     1      -4.046 -11.556   0.845  0.00  0.00    +0.165 HD
ATOM     26  C   UNL     1      -5.431 -10.462   1.966  0.00  0.00    +0.047 A 
ATOM     27  C   UNL     1      -5.770  -9.098   1.885  0.00  0.00    +0.003 A 
ATOM     28  C   UNL     1      -6.737  -8.569   2.742  0.00  0.00    +0.010 A 
ATOM     29  C   UNL     1      -7.350  -9.379   3.656  0.00  0.00    +0.001 A 
ATOM     30  C   UNL     1      -7.020 -10.725   3.739  0.00  0.00    +0.002 A 
ATOM     31  C   UNL     1      -6.069 -11.268   2.903  0.00  0.00    +0.026 A 
ENDBRANCH  21  22
BRANCH  21  32
ATOM     32  C   UNL     1      -5.303  -7.055  -1.112  0.00  0.00    -0.001 A 
ATOM     33  C   UNL     1      -6.345  -6.423  -1.706  0.00  0.00    +0.012 A 
ATOM     34  C   UNL     1      -6.492  -6.515  -3.077  0.00  0.00    +0.008 A 
ATOM     35  C   UNL     1      -5.590  -7.235  -3.788  0.00  0.00    +0.045 A 
ATOM     36  S   UNL     1      -4.484  -7.807  -2.509  0.00  0.00    -0.101 S 
ENDBRANCH  21  32
ENDBRANCH  20  21
ENDBRANCH   3  20
TORSDOF 8
