REMARK  Name = ZINC10139833
REMARK  5 active torsions:
REMARK  status: ('A' for Active; 'I' for Inactive)
REMARK    1  A    between atoms: C_7  and  C_11
REMARK    2  A    between atoms: C_16  and  C_17
REMARK    3  A    between atoms: C_16  and  N_50
REMARK    4  A    between atoms: N_19  and  C_20
REMARK    5  A    between atoms: C_24  and  N_26
REMARK                            x       y       z     vdW  Elec       q    Type
REMARK                         _______ _______ _______ _____ _____    ______ ____
ROOT
ATOM      1  C   UNL     1      -1.263   6.238  -0.364  0.00  0.00    +0.018 C 
ATOM      2  C   UNL     1      -1.088   7.147  -1.584  0.00  0.00    -0.011 C 
ATOM      3  C   UNL     1      -1.916   8.420  -1.388  0.00  0.00    -0.078 C 
ATOM      4  C   UNL     1      -1.675   8.276   1.019  0.00  0.00    -0.078 C 
ATOM      5  C   UNL     1      -0.840   6.999   0.895  0.00  0.00    -0.011 C 
ATOM      6  N   UNL     1      -1.443   9.118  -0.174  0.00  0.00    +0.385 N 
ATOM      7  H   UNL     1      -0.436   9.298  -0.264  0.00  0.00    -0.081 HD
ENDROOT
BRANCH   1  14
ATOM      8  C   UNL     1      -2.220   1.653  -0.539  0.00  0.00    +0.001 A 
ATOM      9  C   UNL     1      -1.085   0.869  -0.694  0.00  0.00    +0.002 A 
ATOM     10  C   UNL     1       0.162   1.448  -0.787  0.00  0.00    +0.026 A 
ATOM     11  C   UNL     1       0.287   2.832  -0.720  0.00  0.00    +0.047 A 
ATOM     12  C   UNL     1      -0.866   3.621  -0.557  0.00  0.00    +0.003 A 
ATOM     13  C   UNL     1      -2.119   3.013  -0.465  0.00  0.00    +0.010 A 
ATOM     14  C   UNL     1      -0.403   5.011  -0.524  0.00  0.00    -0.019 A 
ATOM     15  C   UNL     1       0.932   4.984  -0.661  0.00  0.00    +0.087 A 
ATOM     16  N   UNL     1       1.362   3.690  -0.780  0.00  0.00    -0.360 N 
ATOM     17  H   UNL     1       2.287   3.418  -0.889  0.00  0.00    +0.165 HD
ENDBRANCH   1  14
BRANCH   6  18
ATOM     18  C   UNL     1      -2.150  10.407  -0.026  0.00  0.00    +0.019 C 
BRANCH  18  19
ATOM     19  C   UNL     1      -1.723  11.325  -1.143  0.00  0.00    +0.201 C 
ATOM     20  O   UNL     1      -0.933  10.938  -1.978  0.00  0.00    -0.278 OA
ATOM     21  N   UNL     1      -2.220  12.576  -1.214  0.00  0.00    -0.287 N 
ATOM     22  H   UNL     1      -2.909  12.860  -0.593  0.00  0.00    +0.155 HD
BRANCH  21  23
ATOM     23  C   UNL     1      -1.743  13.464  -2.184  0.00  0.00    +0.035 A 
ATOM     24  C   UNL     1      -0.414  13.408  -2.586  0.00  0.00    +0.023 A 
ATOM     25  C   UNL     1       0.052  14.283  -3.547  0.00  0.00    +0.004 A 
ATOM     26  C   UNL     1      -0.799  15.220  -4.103  0.00  0.00    +0.033 A 
ATOM     27  C   UNL     1      -2.120  15.283  -3.701  0.00  0.00    +0.128 A 
ATOM     28  C   UNL     1      -2.595  14.407  -2.744  0.00  0.00    +0.056 A 
BRANCH  27  29
ATOM     29  N   UNL     1      -3.028  16.289  -4.297  0.00  0.00    +0.056 N 
ATOM     30  O   UNL     1      -4.192  16.344  -3.944  0.00  0.00    -0.126 OA
ATOM     31  O   UNL     1      -2.610  17.061  -5.141  0.00  0.00    -0.126 OA
ENDBRANCH  27  29
ENDBRANCH  21  23
ENDBRANCH  18  19
ENDBRANCH   6  18
TORSDOF 5
