REMARK  Name = ZINC39494269
REMARK  12 active torsions:
REMARK  status: ('A' for Active; 'I' for Inactive)
REMARK    1  A    between atoms: C_1  and  C_2
REMARK    2  A    between atoms: C_2  and  C_3
REMARK    3  A    between atoms: C_2  and  S_4
REMARK    4  A    between atoms: S_4  and  C_7
REMARK    5  A    between atoms: C_7  and  C_9
REMARK    6  A    between atoms: C_9  and  C_11
REMARK    7  A    between atoms: C_9  and  C_18
REMARK    8  A    between atoms: C_16  and  O_17
REMARK    9  A    between atoms: C_18  and  C_20
REMARK   10  A    between atoms: C_18  and  N_26
REMARK   11  A    between atoms: C_27  and  C_29
REMARK   12  A    between atoms: C_34  and  O_35
REMARK                            x       y       z     vdW  Elec       q    Type
REMARK                         _______ _______ _______ _____ _____    ______ ____
ROOT
ATOM      1  C   UNL     1      -1.650   2.320  -1.487  0.00  0.00    +0.120 C 
ENDROOT
BRANCH   1   2
ATOM      2  C   UNL     1      -0.649   2.393  -2.612  0.00  0.00    -0.026 A 
ATOM      3  C   UNL     1       0.307   1.405  -2.751  0.00  0.00    +0.005 A 
ATOM      4  C   UNL     1       1.225   1.472  -3.783  0.00  0.00    +0.000 A 
ATOM      5  C   UNL     1       1.186   2.527  -4.675  0.00  0.00    +0.000 A 
ATOM      6  C   UNL     1       0.229   3.515  -4.537  0.00  0.00    +0.000 A 
ATOM      7  C   UNL     1      -0.692   3.445  -3.507  0.00  0.00    +0.005 A 
ENDBRANCH   1   2
BRANCH   1   8
ATOM      8  N   UNL     1      -1.001   1.779  -0.291  0.00  0.00    -0.303 N 
ATOM      9  C   UNL     1      -0.264   2.585   0.499  0.00  0.00    +0.248 C 
ATOM     10  O   UNL     1      -0.216   3.779   0.273  0.00  0.00    -0.270 OA
ATOM     11  H   UNL     1      -1.101   0.841  -0.066  0.00  0.00    +0.150 HD
BRANCH   9  12
ATOM     12  C   UNL     1       0.484   2.019   1.637  0.00  0.00    +0.078 A 
ATOM     13  C   UNL     1       0.521   0.637   1.837  0.00  0.00    +0.017 A 
ATOM     14  C   UNL     1       1.222   0.115   2.902  0.00  0.00    +0.001 A 
ATOM     15  C   UNL     1       1.892   0.954   3.777  0.00  0.00    +0.004 A 
ATOM     16  C   UNL     1       1.864   2.322   3.592  0.00  0.00    +0.046 A 
ATOM     17  C   UNL     1       1.168   2.865   2.522  0.00  0.00    +0.129 A 
BRANCH  17  18
ATOM     18  O   UNL     1       1.144   4.208   2.335  0.00  0.00    -0.506 OA
ATOM     19  H   UNL     1       0.414   4.655   2.785  0.00  0.00    +0.292 HD
ENDBRANCH  17  18
ENDBRANCH   9  12
ENDBRANCH   1   8
BRANCH   1  20
ATOM     20  C   UNL     1      -2.809   1.408  -1.895  0.00  0.00    +0.137 C 
BRANCH  20  21
ATOM     21  C   UNL     1      -3.413   1.908  -3.182  0.00  0.00    +0.008 A 
ATOM     22  C   UNL     1      -2.639   1.986  -4.324  0.00  0.00    +0.008 A 
ATOM     23  C   UNL     1      -3.191   2.444  -5.505  0.00  0.00    +0.001 A 
ATOM     24  C   UNL     1      -4.520   2.826  -5.548  0.00  0.00    +0.004 A 
ATOM     25  C   UNL     1      -5.298   2.750  -4.409  0.00  0.00    +0.046 A 
ATOM     26  C   UNL     1      -4.747   2.285  -3.223  0.00  0.00    +0.121 A 
BRANCH  26  27
ATOM     27  O   UNL     1      -5.512   2.204  -2.103  0.00  0.00    -0.506 OA
ATOM     28  H   UNL     1      -5.507   3.006  -1.564  0.00  0.00    +0.292 HD
ENDBRANCH  26  27
ENDBRANCH  20  21
BRANCH  20  29
ATOM     29  C   UNL     1      -2.299   0.004  -2.091  0.00  0.00    +0.277 C 
ATOM     30  O   UNL     1      -1.264  -0.340  -1.573  0.00  0.00    -0.271 OA
BRANCH  29  31
ATOM     31  S   UNL     1      -3.213  -1.136  -3.075  0.00  0.00    +0.033 S 
ATOM     32  O   UNL     1      -2.267  -2.124  -3.458  0.00  0.00    -0.166 OA
ATOM     33  O   UNL     1      -3.859  -0.333  -4.054  0.00  0.00    -0.166 OA
BRANCH  31  35
ATOM     34  C   UNL     1      -5.361  -0.743  -1.427  0.00  0.00    +0.032 C 
ATOM     35  C   UNL     1      -4.439  -1.850  -1.945  0.00  0.00    +0.133 C 
ATOM     36  C   UNL     1      -5.270  -2.898  -2.688  0.00  0.00    +0.032 C 
ENDBRANCH  31  35
ENDBRANCH  29  31
ENDBRANCH  20  29
ENDBRANCH   1  20
TORSDOF 10
