REMARK  Name = ZINC18199862
REMARK  7 active torsions:
REMARK  status: ('A' for Active; 'I' for Inactive)
REMARK    1  A    between atoms: C_1  and  N_2
REMARK    2  A    between atoms: C_9  and  O_33
REMARK    3  A    between atoms: C_10  and  C_13
REMARK    4  A    between atoms: C_13  and  C_14
REMARK    5  A    between atoms: C_13  and  C_20
REMARK    6  A    between atoms: C_21  and  O_32
REMARK    7  A    between atoms: N_28  and  C_31
REMARK                            x       y       z     vdW  Elec       q    Type
REMARK                         _______ _______ _______ _____ _____    ______ ____
ROOT
ATOM      1  C   UNL     1      -3.724   6.040   0.072  0.00  0.00    +0.098 C 
ENDROOT
BRANCH   1  11
ATOM      2  C   UNL     1      -0.223   3.850  -2.643  0.00  0.00    +0.152 C 
ATOM      3  N   UNL     1      -0.575   4.694  -1.498  0.00  0.00    -0.311 N 
ATOM      4  C   UNL     1       0.426   5.199  -0.695  0.00  0.00    +0.055 A 
ATOM      5  C   UNL     1       1.764   4.919  -0.956  0.00  0.00    +0.026 A 
ATOM      6  C   UNL     1       2.744   5.437  -0.137  0.00  0.00    +0.002 A 
ATOM      7  C   UNL     1       2.410   6.236   0.947  0.00  0.00    +0.001 A 
ATOM      8  C   UNL     1       1.102   6.519   1.226  0.00  0.00    +0.013 A 
ATOM      9  C   UNL     1       0.093   6.009   0.405  0.00  0.00    +0.040 A 
ATOM     10  C   UNL     1      -1.322   6.298   0.670  0.00  0.00    +0.135 A 
ATOM     11  C   UNL     1      -2.261   5.766  -0.167  0.00  0.00    +0.071 A 
ATOM     12  C   UNL     1      -1.868   4.963  -1.249  0.00  0.00    +0.259 A 
ATOM     13  O   UNL     1      -2.723   4.498  -1.984  0.00  0.00    -0.267 OA
BRANCH  10  14
ATOM     14  O   UNL     1      -1.687   7.074   1.717  0.00  0.00    -0.506 OA
ATOM     15  H   UNL     1      -0.944   7.398   2.244  0.00  0.00    +0.292 HD
ENDBRANCH  10  14
ENDBRANCH   1  11
BRANCH   1  16
ATOM     16  C   UNL     1      -4.212   7.062  -0.922  0.00  0.00    +0.071 A 
ATOM     17  C   UNL     1      -5.339   6.815  -1.654  0.00  0.00    +0.135 A 
ATOM     18  C   UNL     1      -5.788   7.836  -2.610  0.00  0.00    +0.040 A 
ATOM     19  C   UNL     1      -6.935   7.648  -3.384  0.00  0.00    +0.013 A 
ATOM     20  C   UNL     1      -7.323   8.617  -4.267  0.00  0.00    +0.001 A 
ATOM     21  C   UNL     1      -6.587   9.785  -4.401  0.00  0.00    +0.002 A 
ATOM     22  C   UNL     1      -5.451   9.991  -3.648  0.00  0.00    +0.026 A 
ATOM     23  C   UNL     1      -5.038   9.018  -2.743  0.00  0.00    +0.055 A 
ATOM     24  N   UNL     1      -3.906   9.198  -1.974  0.00  0.00    -0.311 N 
ATOM     25  C   UNL     1      -3.505   8.261  -1.099  0.00  0.00    +0.259 A 
ATOM     26  O   UNL     1      -2.499   8.459  -0.438  0.00  0.00    -0.267 OA
ATOM     27  C   UNL     1      -3.129  10.432  -2.115  0.00  0.00    +0.152 C 
BRANCH  17  28
ATOM     28  O   UNL     1      -6.028   5.661  -1.498  0.00  0.00    -0.506 OA
ATOM     29  H   UNL     1      -6.808   5.589  -2.065  0.00  0.00    +0.292 HD
ENDBRANCH  17  28
ENDBRANCH   1  16
BRANCH   1  30
ATOM     30  C   UNL     1      -3.913   6.571   1.470  0.00  0.00    -0.017 A 
ATOM     31  C   UNL     1      -3.830   5.718   2.562  0.00  0.00    +0.007 A 
ATOM     32  C   UNL     1      -4.007   6.251   3.829  0.00  0.00    +0.020 A 
ATOM     33  C   UNL     1      -4.268   7.602   3.962  0.00  0.00    +0.111 A 
ATOM     34  N   UNL     1      -4.345   8.381   2.901  0.00  0.00    -0.263 NA
ATOM     35  C   UNL     1      -4.177   7.910   1.681  0.00  0.00    +0.115 A 
ENDBRANCH   1  30
TORSDOF 5
