REMARK  Name = ZINC55334526
REMARK  4 active torsions:
REMARK  status: ('A' for Active; 'I' for Inactive)
REMARK    1  A    between atoms: C_5  and  C_7
REMARK    2  A    between atoms: C_7  and  C_8
REMARK    3  A    between atoms: C_10  and  C_13
REMARK    4  A    between atoms: C_18  and  N_19
REMARK                            x       y       z     vdW  Elec       q    Type
REMARK                         _______ _______ _______ _____ _____    ______ ____
ROOT
ATOM      1  C   UNL     1       1.318  -2.708   1.427  0.00  0.00    +0.176 A 
ATOM      2  N   UNL     1       2.480  -3.000   2.015  0.00  0.00    -0.191 NA
ATOM      3  C   UNL     1       2.276  -3.338   3.270  0.00  0.00    +0.260 A 
ATOM      4  O   UNL     1       0.955  -3.265   3.510  0.00  0.00    -0.333 OA
ATOM      5  N   UNL     1       0.355  -2.847   2.293  0.00  0.00    -0.061 NA
ENDROOT
BRANCH   3   6
ATOM      6  C   UNL     1       3.314  -3.727   4.243  0.00  0.00    +0.060 A 
ATOM      7  C   UNL     1       4.476  -2.964   4.374  0.00  0.00    +0.016 A 
ATOM      8  C   UNL     1       5.442  -3.332   5.285  0.00  0.00    +0.021 A 
ATOM      9  C   UNL     1       5.267  -4.459   6.074  0.00  0.00    +0.043 A 
ATOM     10  C   UNL     1       4.122  -5.223   5.956  0.00  0.00    +0.043 A 
ATOM     11  C   UNL     1       3.137  -4.864   5.047  0.00  0.00    +0.038 A 
ATOM     12 CL   UNL     1       6.493  -4.911   7.217  0.00  0.00    -0.083 Cl
BRANCH  11  13
ATOM     13  N   UNL     1       1.981  -5.629   4.930  0.00  0.00    -0.357 N 
ATOM     14  H   UNL     1       1.338  -5.432   4.231  0.00  0.00    +0.142 HD
ATOM     15  H   UNL     1       1.818  -6.359   5.547  0.00  0.00    +0.142 HD
ENDBRANCH  11  13
ENDBRANCH   3   6
BRANCH   1  16
ATOM     16  C   UNL     1       1.149  -2.280  -0.008  0.00  0.00    +0.116 C 
BRANCH  16  21
ATOM     17  C   UNL     1       0.182   1.367  -0.162  0.00  0.00    +0.000 A 
ATOM     18  C   UNL     1       1.418   1.976  -0.265  0.00  0.00    +0.001 A 
ATOM     19  C   UNL     1       2.568   1.209  -0.285  0.00  0.00    +0.015 A 
ATOM     20  C   UNL     1       2.481  -0.169  -0.201  0.00  0.00    +0.021 A 
ATOM     21  C   UNL     1       1.244  -0.778  -0.098  0.00  0.00    -0.026 A 
ATOM     22  C   UNL     1       0.095  -0.010  -0.078  0.00  0.00    +0.005 A 
ATOM     23 BR   UNL     1       4.053  -1.219  -0.229  0.00  0.00    -0.050 Br
ENDBRANCH  16  21
ENDBRANCH   1  16
TORSDOF 4
