REMARK  Name = ZINC39948094
REMARK  9 active torsions:
REMARK  status: ('A' for Active; 'I' for Inactive)
REMARK    1  A    between atoms: C_1  and  C_2
REMARK    2  A    between atoms: C_2  and  O_3
REMARK    3  A    between atoms: O_3  and  C_4
REMARK    4  A    between atoms: C_4  and  C_6
REMARK    5  A    between atoms: C_8  and  N_19
REMARK    6  A    between atoms: C_15  and  C_18
REMARK    7  A    between atoms: C_20  and  C_22
REMARK    8  A    between atoms: N_24  and  N_25
REMARK    9  A    between atoms: C_26  and  C_27
REMARK                            x       y       z     vdW  Elec       q    Type
REMARK                         _______ _______ _______ _____ _____    ______ ____
ROOT
ATOM      1  N   UNL     1      -0.687  -1.608  -3.554  0.00  0.00    -0.294 N 
ATOM      2  C   UNL     1      -1.267  -0.486  -4.024  0.00  0.00    +0.301 C 
ATOM      3  O   UNL     1      -0.615   0.309  -4.669  0.00  0.00    -0.265 OA
ATOM      4  H   UNL     1      -1.208  -2.244  -3.038  0.00  0.00    +0.150 HD
ENDROOT
BRANCH   1   6
ATOM      5  C   UNL     1       1.468  -2.353  -2.550  0.00  0.00    +0.155 C 
ATOM      6  C   UNL     1       0.730  -1.867  -3.820  0.00  0.00    +0.154 C 
ATOM      7  S   UNL     1       0.960  -3.365  -4.867  0.00  0.00    -0.106 S 
ATOM      8  C   UNL     1       1.251  -4.545  -3.570  0.00  0.00    -0.012 C 
ATOM      9  C   UNL     1       1.481  -3.859  -2.459  0.00  0.00    -0.044 C 
ATOM     10  C   UNL     1       1.753  -4.574  -1.137  0.00  0.00    +0.033 C 
ATOM     11  C   UNL     1       2.170  -6.015  -1.423  0.00  0.00    +0.008 C 
ATOM     12  C   UNL     1       1.131  -6.677  -2.334  0.00  0.00    -0.009 C 
ATOM     13  C   UNL     1       1.232  -6.041  -3.722  0.00  0.00    +0.045 C 
ATOM     14  C   UNL     1       1.414  -8.178  -2.432  0.00  0.00    +0.008 C 
BRANCH   5  15
ATOM     15  C   UNL     1       0.775  -1.794  -1.334  0.00  0.00    +0.317 C 
ATOM     16  O   UNL     1       0.314  -2.540  -0.504  0.00  0.00    -0.250 OA
BRANCH  15  17
ATOM     17  O   UNL     1       0.671  -0.465  -1.174  0.00  0.00    -0.464 OA
BRANCH  17  19
ATOM     18  C   UNL     1      -0.019   1.526   0.010  0.00  0.00    +0.048 C 
ATOM     19  C   UNL     1       0.002  -0.004   0.002  0.00  0.00    +0.229 C 
ENDBRANCH  17  19
ENDBRANCH  15  17
ENDBRANCH   5  15
ENDBRANCH   1   6
BRANCH   2  20
ATOM     20  C   UNL     1      -2.711  -0.222  -3.752  0.00  0.00    +0.318 C 
ATOM     21  O   UNL     1      -3.362  -1.018  -3.107  0.00  0.00    -0.263 OA
ATOM     22  N   UNL     1      -3.291   0.900  -4.222  0.00  0.00    -0.199 N 
ATOM     23  H   UNL     1      -2.770   1.536  -4.738  0.00  0.00    +0.178 HD
BRANCH  22  24
ATOM     24  N   UNL     1      -4.646   1.148  -3.967  0.00  0.00    -0.191 NA
ATOM     25  C   UNL     1      -5.197   2.213  -4.414  0.00  0.00    +0.120 C 
BRANCH  25  26
ATOM     26  C   UNL     1      -6.654   2.480  -4.139  0.00  0.00    +0.141 C 
ATOM     27  C   UNL     1      -7.385   2.487  -5.468  0.00  0.00    +0.001 C 
ATOM     28  C   UNL     1      -8.070   3.618  -5.799  0.00  0.00    -0.007 A 
ATOM     29  C   UNL     1      -8.802   3.711  -7.063  0.00  0.00    +0.009 A 
ATOM     30  C   UNL     1      -9.470   4.857  -7.350  0.00  0.00    +0.001 A 
ATOM     31  C   UNL     1      -9.469   5.939  -6.469  0.00  0.00    +0.002 A 
ATOM     32  C   UNL     1      -8.810   5.916  -5.281  0.00  0.00    +0.024 A 
ATOM     33  C   UNL     1      -8.087   4.776  -4.887  0.00  0.00    +0.040 A 
ATOM     34  N   UNL     1      -7.445   4.765  -3.720  0.00  0.00    -0.284 N 
ATOM     35  C   UNL     1      -6.746   3.728  -3.290  0.00  0.00    +0.229 C 
ATOM     36  O   UNL     1      -6.180   3.777  -2.215  0.00  0.00    -0.274 OA
ATOM     37  H   UNL     1      -7.491   5.555  -3.159  0.00  0.00    +0.155 HD
ENDBRANCH  25  26
ENDBRANCH  22  24
ENDBRANCH   2  20
TORSDOF 7
