REMARK  Name = ZINC04073555
REMARK  15 active torsions:
REMARK  status: ('A' for Active; 'I' for Inactive)
REMARK    1  A    between atoms: C_1  and  C_2
REMARK    2  A    between atoms: C_2  and  C_3
REMARK    3  A    between atoms: C_3  and  C_4
REMARK    4  A    between atoms: C_4  and  N_74
REMARK    5  A    between atoms: C_5  and  C_6
REMARK    6  A    between atoms: C_5  and  N_74
REMARK    7  A    between atoms: C_6  and  C_7
REMARK    8  A    between atoms: C_7  and  C_8
REMARK    9  A    between atoms: C_9  and  C_10
REMARK   10  A    between atoms: C_9  and  N_74
REMARK   11  A    between atoms: C_10  and  C_11
REMARK   12  A    between atoms: C_11  and  N_76
REMARK   13  A    between atoms: C_12  and  C_13
REMARK   14  A    between atoms: C_12  and  N_76
REMARK   15  A    between atoms: C_25  and  C_32
REMARK                            x       y       z     vdW  Elec       q    Type
REMARK                         _______ _______ _______ _____ _____    ______ ____
ROOT
ATOM      1  C   UNL     1      -1.373  -0.116  -3.449  0.00  0.00    -0.068 C 
ENDROOT
BRANCH   1   2
ATOM      2  C   UNL     1      -0.678  -0.847  -4.600  0.00  0.00    +0.087 C 
ATOM      3  C   UNL     1      -1.505  -0.707  -5.913  0.00  0.00    +0.042 C 
ATOM      4  C   UNL     1      -0.493  -0.654  -7.028  0.00  0.00    +0.016 C 
ATOM      5  C   UNL     1      -1.158  -0.980  -8.362  0.00  0.00    +0.021 C 
ATOM      6  C   UNL     1      -0.144  -0.901  -9.479  0.00  0.00    -0.073 C 
ATOM      7  C   UNL     1       1.050  -0.403  -9.273  0.00  0.00    +0.008 C 
ATOM      8  C   UNL     1      -0.548  -1.413 -10.845  0.00  0.00    +0.030 C 
ATOM      9  C   UNL     1      -1.116  -2.828 -10.691  0.00  0.00    +0.005 C 
ATOM     10  C   UNL     1      -2.244  -2.818  -9.657  0.00  0.00    +0.007 C 
ATOM     11  C   UNL     1      -1.687  -2.420  -8.291  0.00  0.00    -0.022 C 
ATOM     12  C   UNL     1      -2.791  -2.462  -7.236  0.00  0.00    +0.052 C 
ATOM     13  C   UNL     1      -2.268  -2.050  -5.881  0.00  0.00    +0.181 C 
ATOM     14  O   UNL     1      -1.292  -2.982  -5.334  0.00  0.00    -0.461 OA
ATOM     15  C   UNL     1      -0.644  -2.341  -4.337  0.00  0.00    +0.309 C 
ATOM     16  O   UNL     1      -0.120  -2.872  -3.387  0.00  0.00    -0.251 OA
ATOM     17  C   UNL     1      -0.561  -3.378  -7.896  0.00  0.00    +0.012 C 
ENDBRANCH   1   2
BRANCH   1  18
ATOM     18  N   UNL     1      -0.530  -0.204  -2.242  0.00  0.00    +0.380 N 
ATOM     19  H   UNL     1      -0.392  -1.191  -1.996  0.00  0.00    -0.086 HD
ATOM     20  H   UNL     1       0.380   0.232  -2.432  0.00  0.00    -0.086 HD
BRANCH  18  21
ATOM     21  C   UNL     1      -1.177   0.494  -1.114  0.00  0.00    -0.084 C 
BRANCH  21  22
ATOM     22  C   UNL     1      -0.281   0.387   0.121  0.00  0.00    -0.038 C 
BRANCH  22  23
ATOM     23  C   UNL     1      -0.944   1.107   1.297  0.00  0.00    -0.081 C 
BRANCH  23  24
ATOM     24  N   UNL     1      -0.077   0.977   2.487  0.00  0.00    +0.380 N 
ATOM     25  H   UNL     1       0.154  -0.014   2.624  0.00  0.00    -0.082 HD
BRANCH  24  26
ATOM     26  C   UNL     1       1.173   1.739   2.287  0.00  0.00    -0.079 C 
BRANCH  26  27
ATOM     27  C   UNL     1       0.867   3.220   2.053  0.00  0.00    -0.019 C 
BRANCH  27  29
ATOM     28  C   UNL     1       1.868   5.461   1.584  0.00  0.00    +0.004 C 
ATOM     29  C   UNL     1       2.174   3.980   1.818  0.00  0.00    -0.005 C 
ENDBRANCH  27  29
ENDBRANCH  26  27
ENDBRANCH  24  26
BRANCH  24  30
ATOM     30  C   UNL     1      -0.786   1.474   3.685  0.00  0.00    -0.079 C 
BRANCH  30  31
ATOM     31  C   UNL     1      -0.036   1.001   4.931  0.00  0.00    -0.019 C 
BRANCH  31  32
ATOM     32  C   UNL     1      -0.767   1.491   6.183  0.00  0.00    -0.005 C 
ATOM     33  C   UNL     1      -0.017   1.018   7.430  0.00  0.00    +0.004 C 
ENDBRANCH  31  32
ENDBRANCH  30  31
ENDBRANCH  24  30
ENDBRANCH  23  24
ENDBRANCH  22  23
ENDBRANCH  21  22
ENDBRANCH  18  21
ENDBRANCH   1  18
TORSDOF 12
