REMARK  Name = ZINC59170734
REMARK  8 active torsions:
REMARK  status: ('A' for Active; 'I' for Inactive)
REMARK    1  A    between atoms: C_1  and  C_2
REMARK    2  A    between atoms: C_5  and  S_8
REMARK    3  A    between atoms: S_8  and  N_11
REMARK    4  A    between atoms: N_11  and  N_12
REMARK    5  A    between atoms: C_14  and  C_23
REMARK    6  A    between atoms: N_25  and  C_26
REMARK    7  A    between atoms: C_31  and  O_32
REMARK    8  A    between atoms: O_32  and  C_33
REMARK                            x       y       z     vdW  Elec       q    Type
REMARK                         _______ _______ _______ _____ _____    ______ ____
ROOT
ATOM      1  N   UNL     1       2.917  -4.163   0.612  0.00  0.00    -0.260 N 
ATOM      2  C   UNL     1       4.059  -4.765   0.788  0.00  0.00    +0.225 A 
ATOM      3  C   UNL     1       4.735  -4.752   2.106  0.00  0.00    +0.099 A 
ATOM      4  C   UNL     1       5.577  -5.800   2.390  0.00  0.00    +0.030 A 
ATOM      5  C   UNL     1       5.736  -6.842   1.369  0.00  0.00    +0.018 A 
ATOM      6  C   UNL     1       6.352  -8.058   1.679  0.00  0.00    +0.011 A 
ATOM      7  C   UNL     1       6.487  -9.023   0.704  0.00  0.00    +0.001 A 
ATOM      8  C   UNL     1       6.016  -8.793  -0.579  0.00  0.00    +0.004 A 
ATOM      9  C   UNL     1       5.406  -7.595  -0.900  0.00  0.00    +0.047 A 
ATOM     10  C   UNL     1       5.262  -6.612   0.065  0.00  0.00    +0.137 A 
ATOM     11  O   UNL     1       4.667  -5.433  -0.236  0.00  0.00    -0.437 OA
ATOM     12  H   UNL     1       2.518  -3.659   1.339  0.00  0.00    +0.189 HD
ENDROOT
BRANCH   3  13
ATOM     13  C   UNL     1       4.514  -3.662   3.070  0.00  0.00    +0.253 C 
ATOM     14  O   UNL     1       3.720  -2.776   2.816  0.00  0.00    -0.270 OA
ATOM     15  N   UNL     1       5.192  -3.645   4.235  0.00  0.00    -0.278 N 
ATOM     16  H   UNL     1       5.873  -4.313   4.409  0.00  0.00    +0.155 HD
BRANCH  15  17
ATOM     17  C   UNL     1       4.913  -2.663   5.193  0.00  0.00    +0.076 A 
ATOM     18  C   UNL     1       3.709  -1.975   5.154  0.00  0.00    +0.027 A 
ATOM     19  C   UNL     1       3.436  -1.007   6.101  0.00  0.00    +0.002 A 
ATOM     20  C   UNL     1       4.360  -0.720   7.089  0.00  0.00    +0.004 A 
ATOM     21  C   UNL     1       5.563  -1.400   7.133  0.00  0.00    +0.047 A 
ATOM     22  C   UNL     1       5.842  -2.377   6.191  0.00  0.00    +0.141 A 
BRANCH  22  23
ATOM     23  O   UNL     1       7.022  -3.051   6.238  0.00  0.00    -0.493 OA
ATOM     24  C   UNL     1       7.879  -2.784   7.349  0.00  0.00    +0.277 C 
ENDBRANCH  22  23
ENDBRANCH  15  17
ENDBRANCH   3  13
BRANCH   1  25
ATOM     25  N   UNL     1       2.265  -4.243  -0.625  0.00  0.00    -0.157 N 
ATOM     26  H   UNL     1       2.697  -4.685  -1.373  0.00  0.00    +0.194 HD
BRANCH  25  27
ATOM     27  S   UNL     1       0.757  -3.585  -0.812  0.00  0.00    +0.085 S 
ATOM     28  O   UNL     1      -0.047  -4.109   0.236  0.00  0.00    -0.149 OA
ATOM     29  O   UNL     1       0.415  -3.734  -2.183  0.00  0.00    -0.149 OA
BRANCH  27  34
ATOM     30  C   UNL     1       1.258   2.342   0.202  0.00  0.00    +0.044 C 
ATOM     31  C   UNL     1       1.133   0.862  -0.051  0.00  0.00    -0.050 A 
ATOM     32  C   UNL     1       1.210   0.372  -1.342  0.00  0.00    +0.005 A 
ATOM     33  C   UNL     1       1.095  -0.985  -1.574  0.00  0.00    +0.029 A 
ATOM     34  C   UNL     1       0.905  -1.854  -0.515  0.00  0.00    +0.110 A 
ATOM     35  C   UNL     1       0.829  -1.365   0.775  0.00  0.00    +0.029 A 
ATOM     36  C   UNL     1       0.948  -0.007   1.008  0.00  0.00    +0.005 A 
ENDBRANCH  27  34
ENDBRANCH  25  27
ENDBRANCH   1  25
TORSDOF 6
