REMARK  Name = ZINC39672974
REMARK  7 active torsions:
REMARK  status: ('A' for Active; 'I' for Inactive)
REMARK    1  A    between atoms: C_1  and  C_2
REMARK    2  A    between atoms: C_4  and  C_8
REMARK    3  A    between atoms: N_6  and  C_7
REMARK    4  A    between atoms: C_12  and  C_21
REMARK    5  A    between atoms: N_23  and  C_24
REMARK    6  A    between atoms: C_24  and  C_25
REMARK    7  A    between atoms: C_25  and  N_31
REMARK                            x       y       z     vdW  Elec       q    Type
REMARK                         _______ _______ _______ _____ _____    ______ ____
ROOT
ATOM      1  C   UNL     1       0.470  -3.542  -1.435  0.00  0.00    +0.267 C 
ATOM      2  O   UNL     1       0.514  -3.531  -2.650  0.00  0.00    -0.268 OA
ATOM      3  N   UNL     1       0.423  -4.715  -0.773  0.00  0.00    -0.295 N 
ATOM      4  C   UNL     1       0.359  -4.928   0.692  0.00  0.00    +0.121 C 
ATOM      5  C   UNL     1      -0.617  -6.113   0.872  0.00  0.00    +0.100 C 
ATOM      6  C   UNL     1      -0.570  -6.867  -0.467  0.00  0.00    -0.004 C 
ATOM      7  C   UNL     1       0.416  -6.082  -1.345  0.00  0.00    +0.115 C 
ATOM      8  C   UNL     1      -0.069  -8.292  -0.254  0.00  0.00    -0.010 C 
ATOM      9  C   UNL     1      -0.086  -9.040  -1.590  0.00  0.00    -0.082 C 
ATOM     10  N   UNL     1      -1.452  -9.055  -2.128  0.00  0.00    +0.379 N 
ATOM     11  C   UNL     1      -1.891  -7.684  -2.417  0.00  0.00    -0.082 C 
ATOM     12  C   UNL     1      -1.951  -6.880  -1.116  0.00  0.00    -0.010 C 
ATOM     13  H   UNL     1      -1.472  -9.600  -2.977  0.00  0.00    -0.086 HD
ATOM     14  H   UNL     1      -2.074  -9.470  -1.450  0.00  0.00    -0.086 HD
ENDROOT
BRANCH   1  18
ATOM     15  C   UNL     1       0.524   1.381  -0.231  0.00  0.00    +0.065 C 
ATOM     16  C   UNL     1       0.492  -0.125  -0.177  0.00  0.00    +0.037 A 
ATOM     17  C   UNL     1       0.514  -0.967  -1.236  0.00  0.00    +0.057 A 
ATOM     18  C   UNL     1       0.468  -2.269  -0.685  0.00  0.00    +0.147 A 
ATOM     19  N   UNL     1       0.423  -2.131   0.625  0.00  0.00    -0.167 NA
ATOM     20  N   UNL     1       0.441  -0.885   0.938  0.00  0.00    -0.271 N 
ATOM     21  C   UNL     1       0.408  -0.365   2.307  0.00  0.00    +0.172 C 
ENDBRANCH   1  18
BRANCH   5  22
ATOM     22  C   UNL     1      -0.158  -7.005   1.996  0.00  0.00    +0.218 C 
ATOM     23  O   UNL     1       1.026  -7.118   2.236  0.00  0.00    -0.275 OA
ATOM     24  N   UNL     1      -1.062  -7.678   2.735  0.00  0.00    -0.313 N 
ATOM     25  H   UNL     1      -2.009  -7.588   2.543  0.00  0.00    +0.149 HD
BRANCH  24  26
ATOM     26  C   UNL     1      -0.616  -8.546   3.828  0.00  0.00    +0.126 C 
BRANCH  26  27
ATOM     27  C   UNL     1      -1.820  -9.281   4.419  0.00  0.00    +0.038 C 
ATOM     28  C   UNL     1      -1.376 -10.085   5.643  0.00  0.00    +0.024 C 
ATOM     29  C   UNL     1      -0.312 -11.102   5.225  0.00  0.00    +0.002 C 
ATOM     30  C   UNL     1      -0.896 -12.051   4.176  0.00  0.00    +0.000 C 
ATOM     31  C   UNL     1      -1.341 -11.246   2.953  0.00  0.00    +0.002 C 
ATOM     32  C   UNL     1      -2.405 -10.229   3.370  0.00  0.00    +0.024 C 
BRANCH  27  33
ATOM     33  N   UNL     1      -2.842  -8.304   4.820  0.00  0.00    -0.291 NA
ATOM     34  C   UNL     1      -2.298  -7.340   5.787  0.00  0.00    +0.113 C 
ATOM     35  C   UNL     1      -3.375  -6.308   6.131  0.00  0.00    +0.175 C 
ATOM     36  O   UNL     1      -4.532  -6.983   6.632  0.00  0.00    -0.377 OA
ATOM     37  C   UNL     1      -5.088  -7.929   5.716  0.00  0.00    +0.175 C 
ATOM     38  C   UNL     1      -4.029  -8.978   5.367  0.00  0.00    +0.113 C 
ENDBRANCH  27  33
ENDBRANCH  26  27
ENDBRANCH  24  26
ENDBRANCH   5  22
TORSDOF 5
