REMARK  Name = ZINC39946385
REMARK  11 active torsions:
REMARK  status: ('A' for Active; 'I' for Inactive)
REMARK    1  A    between atoms: C_1  and  O_2
REMARK    2  A    between atoms: O_2  and  C_3
REMARK    3  A    between atoms: C_5  and  C_13
REMARK    4  A    between atoms: C_7  and  O_11
REMARK    5  A    between atoms: C_8  and  O_9
REMARK    6  A    between atoms: O_9  and  C_10
REMARK    7  A    between atoms: O_11  and  C_12
REMARK    8  A    between atoms: N_17  and  C_21
REMARK    9  A    between atoms: C_21  and  C_22
REMARK   10  A    between atoms: C_22  and  N_23
REMARK   11  A    between atoms: C_24  and  C_26
REMARK                            x       y       z     vdW  Elec       q    Type
REMARK                         _______ _______ _______ _____ _____    ______ ____
ROOT
ATOM      1  C   UNL     1       2.378   0.317  -4.239  0.00  0.00    +0.028 C 
ATOM      2  C   UNL     1       3.078  -0.284  -5.234  0.00  0.00    +0.080 C 
ATOM      3  C   UNL     1       3.847   0.320  -6.341  0.00  0.00    +0.260 C 
ATOM      4  O   UNL     1       3.932   1.526  -6.477  0.00  0.00    -0.269 OA
ATOM      5  N   UNL     1       4.439  -0.517  -7.177  0.00  0.00    -0.227 N 
ATOM      6  C   UNL     1       4.342  -1.853  -7.023  0.00  0.00    +0.286 C 
ATOM      7  O   UNL     1       4.830  -2.730  -7.710  0.00  0.00    -0.262 OA
ATOM      8  S   UNL     1       3.330  -2.023  -5.561  0.00  0.00    -0.026 S 
ENDROOT
BRANCH   1  11
ATOM      9  C   UNL     1       1.661  -2.589  -1.977  0.00  0.00    +0.166 A 
ATOM     10  C   UNL     1       2.178  -1.837  -3.015  0.00  0.00    +0.057 A 
ATOM     11  C   UNL     1       1.830  -0.486  -3.138  0.00  0.00    -0.017 A 
ATOM     12  C   UNL     1       0.960   0.097  -2.210  0.00  0.00    +0.057 A 
ATOM     13  C   UNL     1       0.447  -0.662  -1.175  0.00  0.00    +0.166 A 
ATOM     14  C   UNL     1       0.791  -2.006  -1.059  0.00  0.00    +0.204 A 
BRANCH   9  16
ATOM     15  C   UNL     1       2.894  -4.433  -2.833  0.00  0.00    +0.277 C 
ATOM     16  O   UNL     1       1.997  -3.901  -1.856  0.00  0.00    -0.491 OA
ENDBRANCH   9  16
BRANCH  14  17
ATOM     17  O   UNL     1       0.280  -2.751  -0.043  0.00  0.00    -0.488 OA
ATOM     18  C   UNL     1       1.026  -2.785   1.176  0.00  0.00    +0.277 C 
ENDBRANCH  14  17
BRANCH  13  19
ATOM     19  O   UNL     1      -0.399  -0.096  -0.272  0.00  0.00    -0.491 OA
ATOM     20  C   UNL     1      -0.713   1.286  -0.455  0.00  0.00    +0.277 C 
ENDBRANCH  13  19
ENDBRANCH   1  11
BRANCH   5  21
ATOM     21  C   UNL     1       5.217   0.020  -8.296  0.00  0.00    +0.136 C 
BRANCH  21  22
ATOM     22  C   UNL     1       6.670   0.217  -7.859  0.00  0.00    +0.124 C 
BRANCH  22  23
ATOM     23  N   UNL     1       7.448   0.754  -8.978  0.00  0.00    -0.310 N 
ATOM     24  C   UNL     1       8.762   1.009  -8.824  0.00  0.00    +0.241 C 
ATOM     25  O   UNL     1       9.302   0.794  -7.757  0.00  0.00    -0.271 OA
ATOM     26  H   UNL     1       7.017   0.926  -9.830  0.00  0.00    +0.149 HD
BRANCH  24  27
ATOM     27  C   UNL     1       9.547   1.550  -9.953  0.00  0.00    +0.032 C 
ATOM     28  C   UNL     1      10.914   1.713  -9.867  0.00  0.00    +0.005 A 
ATOM     29  C   UNL     1      11.641   1.354  -8.649  0.00  0.00    +0.010 A 
ATOM     30  C   UNL     1      12.984   1.532  -8.614  0.00  0.00    +0.001 A 
ATOM     31  C   UNL     1      13.683   2.049  -9.711  0.00  0.00    +0.002 A 
ATOM     32  C   UNL     1      13.072   2.403 -10.868  0.00  0.00    +0.024 A 
ATOM     33  C   UNL     1      11.675   2.257 -11.012  0.00  0.00    +0.041 A 
ATOM     34  N   UNL     1      11.084   2.604 -12.146  0.00  0.00    -0.285 N 
ATOM     35  C   UNL     1       9.777   2.495 -12.350  0.00  0.00    +0.222 C 
ATOM     36  O   UNL     1       9.297   2.831 -13.415  0.00  0.00    -0.275 OA
ATOM     37  C   UNL     1       8.886   1.946 -11.259  0.00  0.00    +0.137 C 
ATOM     38  H   UNL     1      11.634   2.956 -12.863  0.00  0.00    +0.155 HD
ENDBRANCH  24  27
ENDBRANCH  22  23
ENDBRANCH  21  22
ENDBRANCH   5  21
TORSDOF 8
