REMARK  Name = ZINC64403407
REMARK  6 active torsions:
REMARK  status: ('A' for Active; 'I' for Inactive)
REMARK    1  A    between atoms: C_1  and  C_2
REMARK    2  A    between atoms: C_2  and  O_3
REMARK    3  A    between atoms: O_3  and  C_4
REMARK    4  A    between atoms: C_7  and  C_11
REMARK    5  A    between atoms: C_15  and  C_17
REMARK    6  A    between atoms: C_20  and  C_24
REMARK                            x       y       z     vdW  Elec       q    Type
REMARK                         _______ _______ _______ _____ _____    ______ ____
ROOT
ATOM      1  C   UNL     1      -1.996  -6.060  -0.011  0.00  0.00    +0.083 C 
ATOM      2  N   UNL     1      -1.054  -6.964  -0.014  0.00  0.00    -0.153 NA
ATOM      3  N   UNL     1      -1.567  -8.257  -0.019  0.00  0.00    -0.161 NA
ATOM      4  C   UNL     1      -2.860  -8.277  -0.019  0.00  0.00    +0.121 C 
ATOM      5  C   UNL     1      -3.303  -6.827  -0.007  0.00  0.00    +0.128 C 
ENDROOT
BRANCH   1   9
ATOM      6  C   UNL     1      -1.498  -1.847   0.006  0.00  0.00    +0.139 A 
ATOM      7  C   UNL     1      -0.383  -2.676  -0.003  0.00  0.00    +0.048 A 
ATOM      8  C   UNL     1      -0.539  -4.045  -0.008  0.00  0.00    +0.013 A 
ATOM      9  C   UNL     1      -1.824  -4.600  -0.004  0.00  0.00    +0.000 A 
ATOM     10  C   UNL     1      -2.944  -3.761   0.005  0.00  0.00    +0.033 A 
ATOM     11  C   UNL     1      -2.777  -2.394   0.016  0.00  0.00    +0.083 A 
ATOM     12 CL   UNL     1      -4.165  -1.351   0.035  0.00  0.00    -0.080 Cl
BRANCH   6  13
ATOM     13  O   UNL     1      -1.339  -0.499   0.012  0.00  0.00    -0.491 OA
BRANCH  13  15
ATOM     14  C   UNL     1      -0.019   1.526   0.010  0.00  0.00    +0.048 C 
ATOM     15  C   UNL     1       0.002  -0.004   0.002  0.00  0.00    +0.226 C 
ENDBRANCH  13  15
ENDBRANCH   6  13
ENDBRANCH   1   9
BRANCH   5  16
ATOM     16  C   UNL     1      -4.120  -6.505  -1.261  0.00  0.00    +0.225 C 
ATOM     17  N   UNL     1      -5.388  -7.268  -1.244  0.00  0.00    -0.268 NA
ATOM     18  C   UNL     1      -5.600  -7.647  -2.667  0.00  0.00    +0.180 C 
ATOM     19  N   UNL     1      -4.213  -7.916  -3.132  0.00  0.00    -0.178 NA
ATOM     20  O   UNL     1      -3.394  -6.905  -2.433  0.00  0.00    -0.278 OA
ATOM     21  H   UNL     1      -5.311  -8.087  -0.660  0.00  0.00    +0.126 HD
ATOM     22  H   UNL     1      -3.924  -8.850  -2.886  0.00  0.00    +0.156 HD
BRANCH  18  23
ATOM     23  C   UNL     1      -6.454  -8.885  -2.771  0.00  0.00    -0.014 A 
ATOM     24  C   UNL     1      -7.407  -9.150  -1.805  0.00  0.00    +0.006 A 
ATOM     25  C   UNL     1      -8.191 -10.285  -1.901  0.00  0.00    +0.000 A 
ATOM     26  C   UNL     1      -8.021 -11.155  -2.962  0.00  0.00    +0.000 A 
ATOM     27  C   UNL     1      -7.069 -10.889  -3.928  0.00  0.00    +0.000 A 
ATOM     28  C   UNL     1      -6.288  -9.752  -3.835  0.00  0.00    +0.006 A 
ENDBRANCH  18  23
ENDBRANCH   5  16
TORSDOF 5
