REMARK  Name = ZINC63204485
REMARK  7 active torsions:
REMARK  status: ('A' for Active; 'I' for Inactive)
REMARK    1  A    between atoms: C_4  and  C_7
REMARK    2  A    between atoms: C_7  and  C_9
REMARK    3  A    between atoms: C_7  and  N_16
REMARK    4  A    between atoms: C_17  and  C_19
REMARK    5  A    between atoms: C_19  and  N_20
REMARK    6  A    between atoms: C_23  and  C_28
REMARK    7  A    between atoms: C_28  and  C_29
REMARK                            x       y       z     vdW  Elec       q    Type
REMARK                         _______ _______ _______ _____ _____    ______ ____
ROOT
ATOM      1  C   UNL     1       3.722  -2.906  -3.171  0.00  0.00    +0.213 C 
ENDROOT
BRANCH   1   2
ATOM      2  N   UNL     1       3.995  -2.486  -4.548  0.00  0.00    -0.216 N 
ATOM      3  C   UNL     1       3.053  -2.054  -5.408  0.00  0.00    +0.244 C 
ATOM      4  O   UNL     1       1.864  -1.944  -5.198  0.00  0.00    -0.273 OA
ATOM      5  C   UNL     1       3.788  -1.734  -6.694  0.00  0.00    +0.165 C 
ATOM      6  N   UNL     1       5.191  -2.053  -6.379  0.00  0.00    -0.287 N 
ATOM      7  C   UNL     1       5.212  -2.479  -5.104  0.00  0.00    +0.310 C 
ATOM      8  O   UNL     1       6.223  -2.822  -4.522  0.00  0.00    -0.252 OA
ATOM      9  H   UNL     1       5.953  -1.969  -6.975  0.00  0.00    +0.151 HD
BRANCH   5  10
ATOM     10  C   UNL     1       3.635  -0.253  -7.048  0.00  0.00    +0.065 C 
BRANCH  10  11
ATOM     11  C   UNL     1       4.270   0.012  -8.389  0.00  0.00    -0.039 C 
ATOM     12  C   UNL     1       3.650   0.038  -9.590  0.00  0.00    -0.001 A 
ATOM     13  C   UNL     1       2.253  -0.165  -9.994  0.00  0.00    +0.010 A 
ATOM     14  C   UNL     1       1.929  -0.074 -11.303  0.00  0.00    +0.001 A 
ATOM     15  C   UNL     1       2.890   0.208 -12.283  0.00  0.00    +0.002 A 
ATOM     16  C   UNL     1       4.193   0.407 -11.990  0.00  0.00    +0.026 A 
ATOM     17  C   UNL     1       4.646   0.335 -10.644  0.00  0.00    +0.043 A 
ATOM     18  N   UNL     1       5.836   0.486 -10.114  0.00  0.00    -0.380 N 
ATOM     19  C   UNL     1       5.727   0.308  -8.662  0.00  0.00    +0.144 C 
ATOM     20  H   UNL     1       6.651   0.687 -10.601  0.00  0.00    +0.160 HD
ENDBRANCH  10  11
ENDBRANCH   5  10
ENDBRANCH   1   2
BRANCH   1  22
ATOM     21  N   UNL     1       3.611  -1.865  -0.930  0.00  0.00    -0.303 N 
ATOM     22  C   UNL     1       3.825  -1.716  -2.253  0.00  0.00    +0.232 C 
ATOM     23  O   UNL     1       4.099  -0.624  -2.704  0.00  0.00    -0.274 OA
ATOM     24  H   UNL     1       3.392  -2.738  -0.569  0.00  0.00    +0.150 HD
BRANCH  21  25
ATOM     25  C   UNL     1       3.711  -0.707  -0.038  0.00  0.00    +0.134 C 
BRANCH  25  26
ATOM     26  C   UNL     1       4.044  -1.175   1.356  0.00  0.00    -0.023 A 
ATOM     27  C   UNL     1       3.455  -2.320   1.859  0.00  0.00    +0.007 A 
ATOM     28  C   UNL     1       3.760  -2.749   3.137  0.00  0.00    +0.020 A 
ATOM     29  C   UNL     1       4.654  -2.033   3.913  0.00  0.00    +0.041 A 
ATOM     30  C   UNL     1       5.243  -0.887   3.408  0.00  0.00    +0.020 A 
ATOM     31  C   UNL     1       4.941  -0.461   2.128  0.00  0.00    +0.007 A 
ATOM     32 CL   UNL     1       5.037  -2.571   5.518  0.00  0.00    -0.084 Cl
ENDBRANCH  25  26
BRANCH  25  36
ATOM     33  C   UNL     1      -0.017   1.378   0.010  0.00  0.00    +0.000 A 
ATOM     34  C   UNL     1       1.171   2.086   0.002  0.00  0.00    +0.000 A 
ATOM     35  C   UNL     1       2.377   1.411  -0.013  0.00  0.00    +0.006 A 
ATOM     36  C   UNL     1       2.396   0.029  -0.020  0.00  0.00    -0.023 A 
ATOM     37  C   UNL     1       1.208  -0.679  -0.012  0.00  0.00    +0.006 A 
ATOM     38  C   UNL     1       0.002  -0.004   0.002  0.00  0.00    +0.000 A 
ENDBRANCH  25  36
ENDBRANCH  21  25
ENDBRANCH   1  22
TORSDOF 7
