REMARK  Name = ZINC19351484
REMARK  14 active torsions:
REMARK  status: ('A' for Active; 'I' for Inactive)
REMARK    1  A    between atoms: C_1  and  C_2
REMARK    2  A    between atoms: C_2  and  O_3
REMARK    3  A    between atoms: O_3  and  C_4
REMARK    4  A    between atoms: C_11  and  C_18
REMARK    5  A    between atoms: C_13  and  O_14
REMARK    6  A    between atoms: C_18  and  O_19
REMARK    7  A    between atoms: O_19  and  C_20
REMARK    8  A    between atoms: C_20  and  C_22
REMARK    9  A    between atoms: C_22  and  C_24
REMARK   10  A    between atoms: C_22  and  N_27
REMARK   11  A    between atoms: C_24  and  C_25
REMARK   12  A    between atoms: C_24  and  C_26
REMARK   13  A    between atoms: C_28  and  C_30
REMARK   14  A    between atoms: C_33  and  C_36
REMARK                            x       y       z     vdW  Elec       q    Type
REMARK                         _______ _______ _______ _____ _____    ______ ____
ROOT
ATOM      1  C   UNL     1      -1.125   3.077   0.611  0.00  0.00    +0.405 C 
ATOM      2  O   UNL     1      -2.107   3.542   1.155  0.00  0.00    -0.226 OA
ATOM      3  N   UNL     1      -1.191   1.869   0.018  0.00  0.00    -0.251 N 
ATOM      4  C   UNL     1      -2.358   1.109   0.109  0.00  0.00    +0.040 A 
ATOM      5  C   UNL     1      -2.274  -0.281   0.191  0.00  0.00    +0.024 A 
ATOM      6  C   UNL     1      -3.406  -1.036   0.286  0.00  0.00    +0.014 A 
ATOM      7  C   UNL     1      -4.660  -0.414   0.290  0.00  0.00    +0.024 A 
ATOM      8  C   UNL     1      -5.891  -1.200   0.386  0.00  0.00    +0.007 A 
ATOM      9  C   UNL     1      -7.078  -0.538   0.386  0.00  0.00    +0.095 A 
ATOM     10  C   UNL     1      -7.096   0.869   0.295  0.00  0.00    +0.285 A 
ATOM     11  O   UNL     1      -5.963   1.584   0.207  0.00  0.00    -0.425 OA
ATOM     12  C   UNL     1      -4.752   0.988   0.203  0.00  0.00    +0.141 A 
ATOM     13  C   UNL     1      -3.591   1.742   0.112  0.00  0.00    +0.070 A 
ATOM     14  H   UNL     1      -0.324   1.481  -0.538  0.00  0.00    +0.158 HD
ENDROOT
BRANCH  10  15
ATOM     15  O   UNL     1      -8.166   1.450   0.296  0.00  0.00    -0.480 OA
ATOM     16  H   UNL     1      -8.196   2.547   0.226  0.00  0.00    +0.295 HD
ENDBRANCH  10  15
BRANCH   1  17
ATOM     17  O   UNL     1       0.031   3.768   0.606  0.00  0.00    -0.450 OA
BRANCH  17  19
ATOM     18  C   UNL     1       1.421   5.689   1.161  0.00  0.00    +0.048 C 
ATOM     19  C   UNL     1       0.031   5.059   1.269  0.00  0.00    +0.230 C 
ENDBRANCH  17  19
ENDBRANCH   1  17
BRANCH   8  20
ATOM     20  C   UNL     1      -5.844  -2.704   0.482  0.00  0.00    +0.268 C 
BRANCH  20  21
ATOM     21  O   UNL     1      -7.196  -3.226   0.564  0.00  0.00    -0.459 OA
BRANCH  21  22
ATOM     22  C   UNL     1      -7.330  -4.559   0.655  0.00  0.00    +0.328 C 
ATOM     23  O   UNL     1      -6.350  -5.265   0.666  0.00  0.00    -0.249 OA
BRANCH  22  24
ATOM     24  C   UNL     1      -8.703  -5.174   0.744  0.00  0.00    +0.185 C 
BRANCH  24  25
ATOM     25  N   UNL     1      -8.580  -6.631   0.834  0.00  0.00    -0.298 N 
ATOM     26  C   UNL     1      -9.595  -7.419   0.427  0.00  0.00    +0.245 C 
ATOM     27  O   UNL     1     -10.612  -6.921  -0.015  0.00  0.00    -0.270 OA
ATOM     28  H   UNL     1      -7.660  -7.082   1.234  0.00  0.00    +0.150 HD
BRANCH  26  29
ATOM     29  C   UNL     1      -9.471  -8.889   0.518  0.00  0.00    +0.037 A 
ATOM     30  C   UNL     1      -8.303  -9.465   1.019  0.00  0.00    +0.013 A 
ATOM     31  C   UNL     1      -8.195 -10.838   1.105  0.00  0.00    +0.004 A 
ATOM     32  C   UNL     1      -9.239 -11.644   0.686  0.00  0.00    -0.050 A 
ATOM     33  C   UNL     1     -10.398 -11.080   0.184  0.00  0.00    +0.004 A 
ATOM     34  C   UNL     1     -10.520  -9.708   0.097  0.00  0.00    +0.013 A 
ATOM     35  C   UNL     1      -9.112 -13.143   0.778  0.00  0.00    +0.044 C 
ENDBRANCH  26  29
ENDBRANCH  24  25
BRANCH  24  36
ATOM     36  C   UNL     1      -9.419  -4.644   1.988  0.00  0.00    +0.014 C 
ATOM     37  C   UNL     1     -10.813  -5.269   2.079  0.00  0.00    +0.009 C 
ATOM     38  C   UNL     1      -8.613  -5.012   3.236  0.00  0.00    +0.009 C 
ENDBRANCH  24  36
ENDBRANCH  22  24
ENDBRANCH  21  22
ENDBRANCH  20  21
ENDBRANCH   8  20
TORSDOF 10
