REMARK  Name = ZINC01464515
REMARK  6 active torsions:
REMARK  status: ('A' for Active; 'I' for Inactive)
REMARK    1  A    between atoms: C_1  and  C_2
REMARK    2  A    between atoms: C_5  and  C_8
REMARK    3  A    between atoms: C_8  and  C_10
REMARK    4  A    between atoms: C_12  and  C_24
REMARK    5  A    between atoms: C_18  and  C_19
REMARK    6  A    between atoms: C_18  and  O_23
REMARK                            x       y       z     vdW  Elec       q    Type
REMARK                         _______ _______ _______ _____ _____    ______ ____
ROOT
ATOM      1  C   UNL     1       1.274   4.099   1.451  0.00  0.00    +0.144 C 
ATOM      2  C   UNL     1       1.067   3.421   0.092  0.00  0.00    +0.123 C 
ATOM      3  N   UNL     1      -0.192   3.888  -0.491  0.00  0.00    -0.292 N 
ATOM      4  C   UNL     1      -0.676   5.109  -0.218  0.00  0.00    +0.302 C 
ATOM      5  O   UNL     1      -1.720   5.452  -0.738  0.00  0.00    -0.253 OA
ATOM      6  N   UNL     1      -0.054   5.966   0.605  0.00  0.00    -0.264 N 
ATOM      7  C   UNL     1       1.212   5.617   1.252  0.00  0.00    +0.243 C 
ATOM      8  H   UNL     1      -0.685   3.304  -1.087  0.00  0.00    +0.151 HD
ATOM      9  H   UNL     1      -0.452   6.834   0.776  0.00  0.00    +0.153 HD
ENDROOT
BRANCH   2  10
ATOM     10  C   UNL     1       1.011   1.926   0.279  0.00  0.00    +0.009 A 
ATOM     11  C   UNL     1       2.080   1.141  -0.107  0.00  0.00    +0.008 A 
ATOM     12  C   UNL     1       2.029  -0.230   0.065  0.00  0.00    +0.000 A 
ATOM     13  C   UNL     1       0.909  -0.817   0.623  0.00  0.00    +0.003 A 
ATOM     14  C   UNL     1      -0.162  -0.033   1.009  0.00  0.00    +0.039 A 
ATOM     15  C   UNL     1      -0.112   1.340   0.838  0.00  0.00    +0.128 A 
ATOM     16  F   UNL     1      -1.159   2.107   1.214  0.00  0.00    -0.205 F 
ENDBRANCH   2  10
BRANCH   7  17
ATOM     17  C   UNL     1       1.301   6.316   2.611  0.00  0.00    +0.436 C 
ATOM     18  F   UNL     1       0.236   5.902   3.418  0.00  0.00    -0.166 F 
ATOM     19  F   UNL     1       2.512   5.982   3.228  0.00  0.00    -0.166 F 
ATOM     20  F   UNL     1       1.238   7.701   2.428  0.00  0.00    -0.166 F 
ENDBRANCH   7  17
BRANCH   1  21
ATOM     21  C   UNL     1       2.621   3.716   2.008  0.00  0.00    +0.173 C 
ATOM     22  O   UNL     1       3.594   3.701   1.284  0.00  0.00    -0.292 OA
BRANCH  21  27
ATOM     23  C   UNL     1       3.147   2.330   7.562  0.00  0.00    +0.044 C 
ATOM     24  C   UNL     1       3.009   2.693   6.106  0.00  0.00    -0.050 A 
ATOM     25  C   UNL     1       4.122   2.674   5.283  0.00  0.00    +0.004 A 
ATOM     26  C   UNL     1       4.004   3.005   3.950  0.00  0.00    +0.011 A 
ATOM     27  C   UNL     1       2.756   3.361   3.429  0.00  0.00    +0.018 A 
ATOM     28  C   UNL     1       1.637   3.383   4.268  0.00  0.00    +0.011 A 
ATOM     29  C   UNL     1       1.770   3.044   5.598  0.00  0.00    +0.004 A 
ENDBRANCH  21  27
ENDBRANCH   1  21
BRANCH   7  30
ATOM     30  O   UNL     1       2.301   6.035   0.426  0.00  0.00    -0.364 OA
ATOM     31  H   UNL     1       2.321   6.987   0.254  0.00  0.00    +0.212 HD
ENDBRANCH   7  30
TORSDOF 5
