REMARK  Name = ZINC67582678
REMARK  8 active torsions:
REMARK  status: ('A' for Active; 'I' for Inactive)
REMARK    1  A    between atoms: C_1  and  C_2
REMARK    2  A    between atoms: C_2  and  C_4
REMARK    3  A    between atoms: C_2  and  N_12
REMARK    4  A    between atoms: N_15  and  C_16
REMARK    5  A    between atoms: N_15  and  C_17
REMARK    6  A    between atoms: C_17  and  C_19
REMARK    7  A    between atoms: C_17  and  C_20
REMARK    8  A    between atoms: C_24  and  O_26
REMARK                            x       y       z     vdW  Elec       q    Type
REMARK                         _______ _______ _______ _____ _____    ______ ____
ROOT
ATOM      1  N   UNL     1      -1.369  -0.527   0.013  0.00  0.00    -0.293 N 
ATOM      2  C   UNL     1      -2.027  -0.675   1.181  0.00  0.00    +0.303 C 
ATOM      3  O   UNL     1      -1.472  -0.408   2.229  0.00  0.00    -0.253 OA
ATOM      4  N   UNL     1      -3.299  -1.120   1.186  0.00  0.00    -0.282 N 
ATOM      5  C   UNL     1      -3.968  -1.442  -0.077  0.00  0.00    +0.134 C 
ATOM      6  H   UNL     1      -1.812  -0.740  -0.823  0.00  0.00    +0.151 HD
ENDROOT
BRANCH   1   8
ATOM      7  C   UNL     1       0.019   1.486   0.036  0.00  0.00    +0.033 C 
ATOM      8  C   UNL     1       0.014  -0.044   0.008  0.00  0.00    +0.102 C 
BRANCH   8   9
ATOM      9  C   UNL     1       0.709  -0.525  -1.240  0.00  0.00    -0.026 A 
ATOM     10  C   UNL     1       0.036  -0.529  -2.448  0.00  0.00    +0.007 A 
ATOM     11  C   UNL     1       0.672  -0.971  -3.592  0.00  0.00    +0.022 A 
ATOM     12  C   UNL     1       1.983  -1.409  -3.530  0.00  0.00    +0.059 A 
ATOM     13  C   UNL     1       2.657  -1.405  -2.320  0.00  0.00    +0.060 A 
ATOM     14  C   UNL     1       2.020  -0.958  -1.176  0.00  0.00    +0.027 A 
ATOM     15 CL   UNL     1       4.301  -1.956  -2.240  0.00  0.00    -0.082 Cl
ATOM     16 CL   UNL     1       2.783  -1.965  -4.967  0.00  0.00    -0.082 Cl
ENDBRANCH   8   9
ENDBRANCH   1   8
BRANCH   4  17
ATOM     17  C   UNL     1      -4.013  -1.281   2.455  0.00  0.00    +0.104 C 
ATOM     18  C   UNL     1      -5.332  -0.508   2.399  0.00  0.00    +0.033 C 
BRANCH  17  19
ATOM     19  C   UNL     1      -4.297  -2.742   2.690  0.00  0.00    -0.024 A 
ATOM     20  C   UNL     1      -3.891  -3.344   3.866  0.00  0.00    +0.006 A 
ATOM     21  C   UNL     1      -4.149  -4.684   4.085  0.00  0.00    +0.004 A 
ATOM     22  C   UNL     1      -4.814  -5.426   3.127  0.00  0.00    +0.045 A 
ATOM     23  C   UNL     1      -5.223  -4.824   1.946  0.00  0.00    +0.117 A 
ATOM     24  C   UNL     1      -4.967  -3.477   1.732  0.00  0.00    +0.050 A 
BRANCH  23  25
ATOM     25  O   UNL     1      -5.877  -5.551   1.002  0.00  0.00    -0.507 OA
ATOM     26  H   UNL     1      -6.839  -5.552   1.103  0.00  0.00    +0.292 HD
ENDBRANCH  23  25
ENDBRANCH  17  19
ENDBRANCH   4  17
TORSDOF 5
