REMARK  Name = ZINC01278923
REMARK  10 active torsions:
REMARK  status: ('A' for Active; 'I' for Inactive)
REMARK    1  A    between atoms: C_1  and  O_2
REMARK    2  A    between atoms: O_2  and  C_3
REMARK    3  A    between atoms: C_6  and  C_11
REMARK    4  A    between atoms: C_8  and  O_9
REMARK    5  A    between atoms: O_9  and  C_10
REMARK    6  A    between atoms: C_11  and  C_12
REMARK    7  A    between atoms: C_12  and  N_13
REMARK    8  A    between atoms: C_21  and  C_31
REMARK    9  A    between atoms: C_21  and  C_35
REMARK   10  A    between atoms: C_23  and  C_25
REMARK                            x       y       z     vdW  Elec       q    Type
REMARK                         _______ _______ _______ _____ _____    ______ ____
ROOT
ATOM      1  N   UNL     1       2.589  -3.052   6.308  0.00  0.00    -0.279 N 
ATOM      2  C   UNL     1       3.021  -2.429   7.461  0.00  0.00    +0.127 A 
ATOM      3  C   UNL     1       3.586  -3.198   8.465  0.00  0.00    +0.098 A 
ATOM      4  C   UNL     1       3.729  -4.576   8.276  0.00  0.00    +0.262 A 
ATOM      5  N   UNL     1       3.307  -5.133   7.123  0.00  0.00    -0.275 N 
ATOM      6  C   UNL     1       2.738  -4.382   6.163  0.00  0.00    +0.331 A 
ATOM      7  O   UNL     1       2.354  -4.916   5.140  0.00  0.00    -0.246 OA
ATOM      8  O   UNL     1       4.231  -5.268   9.146  0.00  0.00    -0.267 OA
ATOM      9  C   UNL     1       4.021  -2.541   9.751  0.00  0.00    +0.258 C 
ATOM     10  N   UNL     1       4.321  -1.131   9.456  0.00  0.00    -0.306 N 
ATOM     11  C   UNL     1       3.496  -0.457   8.588  0.00  0.00    +0.107 C 
ATOM     12  N   UNL     1       2.889  -1.103   7.614  0.00  0.00    -0.329 N 
ATOM     13  H   UNL     1       2.333  -0.608   6.992  0.00  0.00    +0.168 HD
ATOM     14  H   UNL     1       3.412  -6.087   6.985  0.00  0.00    +0.173 HD
ATOM     15  H   UNL     1       5.081  -0.688   9.864  0.00  0.00    +0.149 HD
ENDROOT
BRANCH  11  16
ATOM     16  C   UNL     1       3.290   0.996   8.748  0.00  0.00    +0.031 A 
ATOM     17  C   UNL     1       2.079   1.589   8.367  0.00  0.00    +0.014 A 
ATOM     18  C   UNL     1       1.937   2.955   8.538  0.00  0.00    +0.020 A 
ATOM     19  C   UNL     1       2.984   3.683   9.074  0.00  0.00    +0.111 A 
ATOM     20  N   UNL     1       4.113   3.098   9.423  0.00  0.00    -0.263 NA
ATOM     21  C   UNL     1       4.296   1.801   9.286  0.00  0.00    +0.122 A 
ENDBRANCH  11  16
BRANCH   9  22
ATOM     22  C   UNL     1       2.894  -2.626  10.783  0.00  0.00    +0.424 C 
ATOM     23  F   UNL     1       2.589  -3.969  11.030  0.00  0.00    -0.168 F 
ATOM     24  F   UNL     1       3.305  -2.015  11.972  0.00  0.00    -0.168 F 
ATOM     25  F   UNL     1       1.760  -1.973  10.290  0.00  0.00    -0.168 F 
ENDBRANCH   9  22
BRANCH   9  26
ATOM     26  C   UNL     1       5.273  -3.236  10.290  0.00  0.00    +0.424 C 
ATOM     27  F   UNL     1       6.170  -3.459   9.240  0.00  0.00    -0.168 F 
ATOM     28  F   UNL     1       5.877  -2.424  11.255  0.00  0.00    -0.168 F 
ATOM     29  F   UNL     1       4.916  -4.459  10.867  0.00  0.00    -0.168 F 
ENDBRANCH   9  26
BRANCH   1  30
ATOM     30  C   UNL     1       1.962  -2.266   5.242  0.00  0.00    +0.133 C 
BRANCH  30  31
ATOM     31  C   UNL     1       3.037  -1.776   4.270  0.00  0.00    +0.057 C 
BRANCH  31  35
ATOM     32  C   UNL     1       1.208   0.523   1.163  0.00  0.00    +0.161 A 
ATOM     33  C   UNL     1       1.643   1.144   2.323  0.00  0.00    +0.049 A 
ATOM     34  C   UNL     1       2.234   0.397   3.326  0.00  0.00    +0.007 A 
ATOM     35  C   UNL     1       2.392  -0.968   3.174  0.00  0.00    -0.042 A 
ATOM     36  C   UNL     1       1.960  -1.593   2.019  0.00  0.00    +0.053 A 
ATOM     37  C   UNL     1       1.361  -0.851   1.013  0.00  0.00    +0.162 A 
BRANCH  32  39
ATOM     38  C   UNL     1       0.501   2.662   0.399  0.00  0.00    +0.277 C 
ATOM     39  O   UNL     1       0.626   1.256   0.176  0.00  0.00    -0.491 OA
ENDBRANCH  32  39
BRANCH  37  40
ATOM     40  O   UNL     1       0.931  -1.466  -0.122  0.00  0.00    -0.491 OA
ATOM     41  C   UNL     1       1.121  -2.879  -0.207  0.00  0.00    +0.277 C 
ENDBRANCH  37  40
ENDBRANCH  31  35
ENDBRANCH  30  31
ENDBRANCH   1  30
TORSDOF 8
