REMARK  Name = ZINC64202240
REMARK  3 active torsions:
REMARK  status: ('A' for Active; 'I' for Inactive)
REMARK    1  A    between atoms: C_7  and  C_10
REMARK    2  A    between atoms: C_16  and  C_18
REMARK    3  A    between atoms: C_24  and  C_26
REMARK                            x       y       z     vdW  Elec       q    Type
REMARK                         _______ _______ _______ _____ _____    ______ ____
ROOT
ATOM      1  C   UNL     1      -1.001  -4.554   2.452  0.00  0.00    -0.043 C 
ATOM      2  C   UNL     1       0.078  -5.133   1.939  0.00  0.00    -0.004 C 
ATOM      3  C   UNL     1       0.222  -5.460   0.479  0.00  0.00    +0.135 C 
ATOM      4  N   UNL     1      -1.079  -5.289  -0.184  0.00  0.00    -0.297 N 
ATOM      5  C   UNL     1      -1.865  -4.093   0.164  0.00  0.00    +0.113 C 
ATOM      6  C   UNL     1      -2.214  -4.175   1.654  0.00  0.00    +0.054 C 
ATOM      7  C   UNL     1      -1.535  -6.191  -1.075  0.00  0.00    +0.219 C 
ATOM      8  O   UNL     1      -0.915  -7.215  -1.272  0.00  0.00    -0.275 OA
ENDROOT
BRANCH   1  15
ATOM      9  C   UNL     1      -4.234  -2.974   5.212  0.00  0.00    +0.001 A 
ATOM     10  C   UNL     1      -3.824  -2.849   6.543  0.00  0.00    +0.002 A 
ATOM     11  C   UNL     1      -2.572  -3.177   6.940  0.00  0.00    +0.026 A 
ATOM     12  C   UNL     1      -1.635  -3.664   5.990  0.00  0.00    +0.043 A 
ATOM     13  N   UNL     1      -0.382  -4.044   6.118  0.00  0.00    -0.380 N 
ATOM     14  C   UNL     1       0.132  -4.463   4.810  0.00  0.00    +0.149 C 
ATOM     15  C   UNL     1      -1.011  -4.282   3.835  0.00  0.00    -0.016 C 
ATOM     16  C   UNL     1      -2.072  -3.794   4.588  0.00  0.00    +0.003 A 
ATOM     17  C   UNL     1      -3.396  -3.431   4.250  0.00  0.00    +0.010 A 
ATOM     18  H   UNL     1       0.123  -4.046   6.947  0.00  0.00    +0.160 HD
ENDBRANCH   1  15
BRANCH   7  19
ATOM     19  C   UNL     1      -2.814  -5.928  -1.827  0.00  0.00    +0.081 C 
ATOM     20  C   UNL     1      -2.599  -4.780  -2.815  0.00  0.00    +0.013 C 
ATOM     21  C   UNL     1      -1.494  -5.159  -3.804  0.00  0.00    +0.001 C 
ATOM     22  C   UNL     1      -1.905  -6.420  -4.568  0.00  0.00    +0.000 C 
ATOM     23  C   UNL     1      -2.121  -7.568  -3.580  0.00  0.00    +0.007 C 
ATOM     24  C   UNL     1      -3.225  -7.189  -2.591  0.00  0.00    +0.032 C 
BRANCH  24  25
ATOM     25  C   UNL     1      -3.441  -8.337  -1.603  0.00  0.00    +0.137 C 
ATOM     26  N   UNL     1      -3.800  -9.577  -2.304  0.00  0.00    -0.331 N 
ATOM     27  C   UNL     1      -5.047 -10.135  -2.028  0.00  0.00    +0.042 A 
ATOM     28  C   UNL     1      -5.562 -11.312  -2.600  0.00  0.00    +0.024 A 
ATOM     29  C   UNL     1      -6.809 -11.782  -2.261  0.00  0.00    +0.002 A 
ATOM     30  C   UNL     1      -7.601 -11.113  -1.346  0.00  0.00    +0.001 A 
ATOM     31  C   UNL     1      -7.120  -9.950  -0.767  0.00  0.00    +0.016 A 
ATOM     32  C   UNL     1      -5.871  -9.481  -1.107  0.00  0.00    +0.031 A 
ATOM     33  S   UNL     1      -4.942  -8.057  -0.582  0.00  0.00    -0.101 S 
ATOM     34  H   UNL     1      -3.192  -9.992  -2.936  0.00  0.00    +0.147 HD
ENDBRANCH  24  25
ENDBRANCH   7  19
TORSDOF 3
