REMARK  Name = ZINC09857857
REMARK  11 active torsions:
REMARK  status: ('A' for Active; 'I' for Inactive)
REMARK    1  A    between atoms: C_1  and  C_2
REMARK    2  A    between atoms: C_5  and  C_8
REMARK    3  A    between atoms: C_8  and  N_77
REMARK    4  A    between atoms: C_11  and  C_14
REMARK    5  A    between atoms: C_14  and  N_15
REMARK    6  A    between atoms: C_16  and  C_18
REMARK    7  A    between atoms: N_28  and  C_36
REMARK    8  A    between atoms: C_29  and  C_31
REMARK    9  A    between atoms: C_36  and  C_37
REMARK   10  A    between atoms: C_37  and  C_38
REMARK   11  A    between atoms: C_37  and  C_39
REMARK                            x       y       z     vdW  Elec       q    Type
REMARK                         _______ _______ _______ _____ _____    ______ ____
ROOT
ATOM      1  N   UNL     1       1.618  -2.043   2.461  0.00  0.00    -0.314 N 
ATOM      2  C   UNL     1       1.767  -1.466   1.252  0.00  0.00    +0.223 C 
ATOM      3  O   UNL     1       2.229  -2.103   0.329  0.00  0.00    -0.275 OA
ATOM      4  H   UNL     1       1.248  -1.533   3.199  0.00  0.00    +0.149 HD
ENDROOT
BRANCH   2   5
ATOM      5  C   UNL     1       1.360  -0.029   1.047  0.00  0.00    +0.131 C 
ATOM      6  C   UNL     1      -0.035   0.019   0.483  0.00  0.00    -0.021 A 
ATOM      7  C   UNL     1      -1.128   0.118   1.318  0.00  0.00    +0.005 A 
ATOM      8  C   UNL     1      -2.406   0.126   0.786  0.00  0.00    +0.000 A 
ATOM      9  C   UNL     1      -2.596   0.034  -0.581  0.00  0.00    +0.001 A 
ATOM     10  C   UNL     1      -1.510  -0.058  -1.429  0.00  0.00    +0.013 A 
ATOM     11  C   UNL     1      -0.222  -0.060  -0.898  0.00  0.00    +0.041 A 
ATOM     12  C   UNL     1       0.963  -0.142  -1.779  0.00  0.00    +0.247 C 
ATOM     13  O   UNL     1       0.837  -0.440  -2.950  0.00  0.00    -0.270 OA
ATOM     14  N   UNL     1       2.183   0.117  -1.270  0.00  0.00    -0.289 N 
ATOM     15  C   UNL     1       2.338   0.641   0.085  0.00  0.00    +0.129 C 
BRANCH  15  16
ATOM     16  C   UNL     1       2.082   2.126   0.074  0.00  0.00    +0.011 A 
ATOM     17  C   UNL     1       2.732   3.110   0.742  0.00  0.00    +0.013 A 
ATOM     18  C   UNL     1       2.318   4.418   0.577  0.00  0.00    +0.008 A 
ATOM     19  C   UNL     1       1.276   4.679  -0.248  0.00  0.00    +0.045 A 
ATOM     20  S   UNL     1       0.848   3.047  -0.830  0.00  0.00    -0.100 S 
ENDBRANCH  15  16
BRANCH  14  21
ATOM     21  C   UNL     1       3.372  -0.131  -2.088  0.00  0.00    +0.111 C 
BRANCH  21  22
ATOM     22  C   UNL     1       3.801   1.169  -2.772  0.00  0.00    +0.000 C 
ATOM     23  C   UNL     1       5.110   0.939  -3.530  0.00  0.00    +0.009 C 
ATOM     24  C   UNL     1       2.714   1.610  -3.754  0.00  0.00    +0.009 C 
ENDBRANCH  21  22
ENDBRANCH  14  21
ENDBRANCH   2   5
BRANCH   1  25
ATOM     25  C   UNL     1       2.013  -3.439   2.660  0.00  0.00    +0.107 C 
BRANCH  25  28
ATOM     26  C   UNL     1       1.821  -5.721   5.754  0.00  0.00    -0.078 C 
ATOM     27  C   UNL     1       2.036  -5.336   4.289  0.00  0.00    -0.014 C 
ATOM     28  C   UNL     1       1.741  -3.844   4.110  0.00  0.00    +0.003 C 
ATOM     29  C   UNL     1       2.646  -3.037   5.045  0.00  0.00    -0.014 C 
ATOM     30  C   UNL     1       2.413  -3.489   6.489  0.00  0.00    -0.078 C 
ATOM     31  N   UNL     1       2.739  -4.927   6.599  0.00  0.00    +0.382 N 
ATOM     32  H   UNL     1       3.702  -5.077   6.277  0.00  0.00    -0.081 HD
BRANCH  31  33
ATOM     33  C   UNL     1       2.631  -5.362   8.007  0.00  0.00    -0.043 C 
BRANCH  33  38
ATOM     34  C   UNL     1       5.416  -1.579  11.373  0.00  0.00    +0.044 C 
ATOM     35  C   UNL     1       4.690  -2.566  10.496  0.00  0.00    -0.050 A 
ATOM     36  C   UNL     1       3.344  -2.396  10.231  0.00  0.00    +0.003 A 
ATOM     37  C   UNL     1       2.677  -3.301   9.426  0.00  0.00    +0.002 A 
ATOM     38  C   UNL     1       3.357  -4.376   8.885  0.00  0.00    -0.064 A 
ATOM     39  C   UNL     1       4.702  -4.549   9.154  0.00  0.00    +0.002 A 
ATOM     40  C   UNL     1       5.369  -3.642   9.956  0.00  0.00    +0.003 A 
ENDBRANCH  33  38
ENDBRANCH  31  33
ENDBRANCH  25  28
ENDBRANCH   1  25
TORSDOF 8
