REMARK  Name = ZINC31816979
REMARK  9 active torsions:
REMARK  status: ('A' for Active; 'I' for Inactive)
REMARK    1  A    between atoms: N_9  and  C_14
REMARK    2  A    between atoms: C_14  and  C_15
REMARK    3  A    between atoms: C_15  and  C_16
REMARK    4  A    between atoms: C_16  and  C_17
REMARK    5  A    between atoms: C_17  and  C_18
REMARK    6  A    between atoms: C_18  and  C_19
REMARK    7  A    between atoms: N_21  and  C_22
REMARK    8  A    between atoms: C_22  and  C_23
REMARK    9  A    between atoms: C_23  and  C_24
REMARK                            x       y       z     vdW  Elec       q    Type
REMARK                         _______ _______ _______ _____ _____    ______ ____
ROOT
ATOM      1  C   UNL     1       8.182   6.549  -2.925  0.00  0.00    +0.096 C 
ENDROOT
BRANCH   1   2
ATOM      2  C   UNL     1       8.589   6.831  -4.348  0.00  0.00    +0.213 C 
ATOM      3  O   UNL     1       7.919   6.406  -5.266  0.00  0.00    -0.276 OA
ATOM      4  N   UNL     1       9.698   7.554  -4.601  0.00  0.00    -0.315 N 
ATOM      5  H   UNL     1      10.305   7.939  -3.769  0.00  0.00    +0.149 HD
BRANCH   4   6
ATOM      6  C   UNL     1      10.094   7.829  -5.985  0.00  0.00    +0.109 C 
BRANCH   6   7
ATOM      7  C   UNL     1      11.376   8.662  -5.993  0.00  0.00    +0.056 C 
BRANCH   7   8
ATOM      8  C   UNL     1      11.784   8.944  -7.416  0.00  0.00    -0.021 A 
ATOM      9  C   UNL     1      12.659   8.240  -8.150  0.00  0.00    +0.087 A 
ATOM     10  N   UNL     1      12.775   8.794  -9.396  0.00  0.00    -0.360 N 
ATOM     11  H   UNL     1      13.454   8.345 -10.137  0.00  0.00    +0.165 HD
ATOM     12  C   UNL     1      11.955   9.896  -9.497  0.00  0.00    +0.047 A 
ATOM     13  C   UNL     1      11.294  10.035  -8.263  0.00  0.00    +0.004 A 
ATOM     14  C   UNL     1      10.392  11.083  -8.069  0.00  0.00    +0.030 A 
ATOM     15  C   UNL     1      10.149  11.971  -9.094  0.00  0.00    +0.042 A 
ATOM     16  C   UNL     1      10.798  11.829 -10.314  0.00  0.00    +0.022 A 
ATOM     17  C   UNL     1      11.694  10.803 -10.518  0.00  0.00    +0.027 A 
ATOM     18 CL   UNL     1       9.024  13.272  -8.860  0.00  0.00    -0.084 Cl
ENDBRANCH   7   8
ENDBRANCH   6   7
ENDBRANCH   4   6
ENDBRANCH   1   2
BRANCH   1  19
ATOM     19  C   UNL     1       6.899   5.715  -2.917  0.00  0.00    +0.009 C 
BRANCH  19  20
ATOM     20  C   UNL     1       6.486   5.429  -1.472  0.00  0.00    +0.002 C 
BRANCH  20  21
ATOM     21  C   UNL     1       5.203   4.595  -1.465  0.00  0.00    +0.022 C 
BRANCH  21  22
ATOM     22  C   UNL     1       4.790   4.308  -0.020  0.00  0.00    +0.130 C 
BRANCH  22  31
ATOM     23  C   UNL     1       1.204  -0.695  -0.013  0.00  0.00    +0.001 A 
ATOM     24  C   UNL     1       0.002  -0.004   0.002  0.00  0.00    +0.002 A 
ATOM     25  C   UNL     1      -0.017   1.376   0.010  0.00  0.00    +0.026 A 
ATOM     26  C   UNL     1       1.177   2.081   0.002  0.00  0.00    +0.056 A 
ATOM     27  C   UNL     1       2.397   1.382  -0.013  0.00  0.00    +0.063 A 
ATOM     28  C   UNL     1       2.402  -0.011  -0.021  0.00  0.00    +0.015 A 
ATOM     29  C   UNL     1       3.648   2.162  -0.021  0.00  0.00    +0.264 A 
ATOM     30  O   UNL     1       4.729   1.606  -0.034  0.00  0.00    -0.267 OA
ATOM     31  N   UNL     1       3.561   3.510  -0.012  0.00  0.00    -0.261 N 
ATOM     32  C   UNL     1       2.372   4.132   0.003  0.00  0.00    +0.330 A 
ATOM     33  O   UNL     1       2.351   5.347   0.010  0.00  0.00    -0.246 OA
ATOM     34  N   UNL     1       1.203   3.468   0.009  0.00  0.00    -0.307 N 
ATOM     35  H   UNL     1       0.261   4.035   0.021  0.00  0.00    +0.170 HD
ENDBRANCH  22  31
ENDBRANCH  21  22
ENDBRANCH  20  21
ENDBRANCH  19  20
ENDBRANCH   1  19
TORSDOF 9
