REMARK  Name = ZINC21965072
REMARK  8 active torsions:
REMARK  status: ('A' for Active; 'I' for Inactive)
REMARK    1  A    between atoms: C_9  and  S_11
REMARK    2  A    between atoms: S_11  and  C_12
REMARK    3  A    between atoms: C_15  and  C_17
REMARK    4  A    between atoms: N_18  and  N_19
REMARK    5  A    between atoms: C_20  and  C_22
REMARK    6  A    between atoms: C_22  and  S_23
REMARK    7  A    between atoms: S_23  and  C_24
REMARK    8  A    between atoms: C_24  and  C_25
REMARK                            x       y       z     vdW  Elec       q    Type
REMARK                         _______ _______ _______ _____ _____    ______ ____
ROOT
ATOM      1  C   UNL     1      -2.051   2.474 -10.357  0.00  0.00    +0.169 A 
ATOM      2  C   UNL     1      -1.105   1.823 -11.086  0.00  0.00    +0.057 A 
ATOM      3  C   UNL     1      -0.225   1.220 -10.175  0.00  0.00    +0.052 A 
ATOM      4  C   UNL     1      -0.677   1.531  -8.923  0.00  0.00    +0.149 A 
ATOM      5  O   UNL     1      -1.788   2.288  -9.052  0.00  0.00    -0.447 OA
ENDROOT
BRANCH   4   6
ATOM      6  C   UNL     1      -0.065   1.113  -7.662  0.00  0.00    +0.176 C 
ATOM      7  N   UNL     1      -0.595   1.478  -6.529  0.00  0.00    -0.185 NA
BRANCH   7   8
ATOM      8  N   UNL     1      -0.009   1.077  -5.321  0.00  0.00    -0.206 N 
ATOM      9  C   UNL     1      -0.557   1.455  -4.149  0.00  0.00    +0.242 C 
ATOM     10  O   UNL     1      -1.557   2.142  -4.140  0.00  0.00    -0.273 OA
ATOM     11  H   UNL     1       0.897   0.454  -5.329  0.00  0.00    +0.177 HD
BRANCH   9  12
ATOM     12  C   UNL     1       0.072   1.024  -2.849  0.00  0.00    +0.166 C 
BRANCH  12  13
ATOM     13  S   UNL     1      -0.890   1.687  -1.462  0.00  0.00    -0.147 S 
BRANCH  13  14
ATOM     14  C   UNL     1      -0.013   1.086   0.008  0.00  0.00    +0.104 C 
BRANCH  14  15
ATOM     15  C   UNL     1      -0.718   1.572   1.248  0.00  0.00    -0.037 A 
ATOM     16  C   UNL     1      -0.360   2.779   1.819  0.00  0.00    +0.005 A 
ATOM     17  C   UNL     1      -1.010   3.227   2.953  0.00  0.00    +0.015 A 
ATOM     18  C   UNL     1      -2.012   2.463   3.523  0.00  0.00    +0.018 A 
ATOM     19  C   UNL     1      -2.366   1.253   2.955  0.00  0.00    +0.015 A 
ATOM     20  C   UNL     1      -1.719   0.808   1.818  0.00  0.00    +0.005 A 
ATOM     21 BR   UNL     1      -2.897   3.073   5.079  0.00  0.00    -0.050 Br
ENDBRANCH  14  15
ENDBRANCH  13  14
ENDBRANCH  12  13
ENDBRANCH   9  12
ENDBRANCH   7   8
ENDBRANCH   4   6
BRANCH   1  22
ATOM     22  S   UNL     1      -3.399   3.398 -11.014  0.00  0.00    -0.014 S 
BRANCH  22  31
ATOM     23  C   UNL     1      -6.556   5.571  -6.027  0.00  0.00    +0.002 A 
ATOM     24  C   UNL     1      -5.570   4.894  -5.324  0.00  0.00    +0.002 A 
ATOM     25  C   UNL     1      -4.578   4.213  -5.994  0.00  0.00    +0.030 A 
ATOM     26  C   UNL     1      -4.565   4.203  -7.391  0.00  0.00    +0.090 A 
ATOM     27  C   UNL     1      -5.566   4.890  -8.097  0.00  0.00    +0.067 A 
ATOM     28  C   UNL     1      -6.557   5.571  -7.407  0.00  0.00    +0.028 A 
ATOM     29  N   UNL     1      -5.290   4.699  -9.441  0.00  0.00    -0.333 N 
ATOM     30  H   UNL     1      -5.942   5.146 -10.205  0.00  0.00    +0.168 HD
ATOM     31  C   UNL     1      -4.165   3.926  -9.517  0.00  0.00    +0.175 A 
ATOM     32  N   UNL     1      -3.744   3.633  -8.312  0.00  0.00    -0.222 NA
ENDBRANCH  22  31
ENDBRANCH   1  22
TORSDOF 8
