REMARK  Name = ZINC08636645
REMARK  8 active torsions:
REMARK  status: ('A' for Active; 'I' for Inactive)
REMARK    1  A    between atoms: C_1  and  C_2
REMARK    2  A    between atoms: C_4  and  C_27
REMARK    3  A    between atoms: C_8  and  N_26
REMARK    4  A    between atoms: C_9  and  C_11
REMARK    5  A    between atoms: C_14  and  S_17
REMARK    6  A    between atoms: N_15  and  C_16
REMARK    7  A    between atoms: S_17  and  C_18
REMARK    8  A    between atoms: C_18  and  C_19
REMARK                            x       y       z     vdW  Elec       q    Type
REMARK                         _______ _______ _______ _____ _____    ______ ____
ROOT
ATOM      1  C   UNL     1      -2.447  -0.628   0.023  0.00  0.00    +0.044 C 
ATOM      2  C   UNL     1      -0.985  -0.994   0.006  0.00  0.00    -0.034 A 
ATOM      3  C   UNL     1      -0.588  -2.305  -0.005  0.00  0.00    +0.032 A 
ATOM      4  C   UNL     1       0.776  -2.607  -0.019  0.00  0.00    +0.075 A 
ATOM      5  N   UNL     1       1.695  -1.652  -0.023  0.00  0.00    -0.212 NA
ATOM      6  C   UNL     1       1.362  -0.371  -0.013  0.00  0.00    +0.231 A 
ATOM      7  C   UNL     1       0.002  -0.004   0.002  0.00  0.00    +0.064 A 
ATOM      8  C   UNL     1      -0.018   1.461   0.010  0.00  0.00    +0.084 A 
ATOM      9  C   UNL     1       1.289   1.853  -0.000  0.00  0.00    +0.196 A 
ATOM     10  O   UNL     1       2.089   0.764  -0.014  0.00  0.00    -0.432 OA
ENDROOT
BRANCH   9  11
ATOM     11  C   UNL     1       1.754   3.245   0.002  0.00  0.00    +0.202 A 
ATOM     12  N   UNL     1       1.000   4.324   0.015  0.00  0.00    -0.125 NA
ATOM     13  N   UNL     1       1.738   5.375   0.013  0.00  0.00    -0.122 NA
ATOM     14  C   UNL     1       3.007   5.038  -0.001  0.00  0.00    +0.192 A 
ATOM     15  N   UNL     1       3.065   3.671  -0.003  0.00  0.00    -0.303 N 
ATOM     16  C   UNL     1       4.269   2.836  -0.011  0.00  0.00    +0.153 C 
BRANCH  14  17
ATOM     17  S   UNL     1       4.381   6.142  -0.008  0.00  0.00    -0.081 S 
BRANCH  17  18
ATOM     18  C   UNL     1       3.510   7.728   0.009  0.00  0.00    +0.112 C 
BRANCH  18  19
ATOM     19  C   UNL     1       4.513   8.853   0.006  0.00  0.00    -0.037 A 
ATOM     20  C   UNL     1       4.980   9.365   1.201  0.00  0.00    +0.006 A 
ATOM     21  C   UNL     1       5.905  10.393   1.198  0.00  0.00    +0.020 A 
ATOM     22  C   UNL     1       6.354  10.916  -0.001  0.00  0.00    +0.041 A 
ATOM     23  C   UNL     1       5.882  10.406  -1.197  0.00  0.00    +0.020 A 
ATOM     24  C   UNL     1       4.961   9.375  -1.193  0.00  0.00    +0.006 A 
ATOM     25 CL   UNL     1       7.511  12.210  -0.005  0.00  0.00    -0.084 Cl
ENDBRANCH  18  19
ENDBRANCH  17  18
ENDBRANCH  14  17
ENDBRANCH   9  11
BRANCH   4  26
ATOM     26  C   UNL     1       1.204  -4.027  -0.031  0.00  0.00    +0.000 A 
ATOM     27  C   UNL     1       0.252  -5.045  -0.021  0.00  0.00    +0.010 A 
ATOM     28  C   UNL     1       0.657  -6.364  -0.036  0.00  0.00    +0.001 A 
ATOM     29  C   UNL     1       2.005  -6.677  -0.050  0.00  0.00    +0.000 A 
ATOM     30  C   UNL     1       2.954  -5.671  -0.055  0.00  0.00    +0.001 A 
ATOM     31  C   UNL     1       2.561  -4.348  -0.045  0.00  0.00    +0.010 A 
ENDBRANCH   4  26
BRANCH   8  32
ATOM     32  N   UNL     1      -1.146   2.289   0.020  0.00  0.00    -0.354 N 
ATOM     33  H   UNL     1      -2.034   1.899   0.022  0.00  0.00    +0.142 HD
ATOM     34  H   UNL     1      -1.040   3.253   0.025  0.00  0.00    +0.142 HD
ENDBRANCH   8  32
TORSDOF 6
