REMARK  Name = ZINC13148026
REMARK  5 active torsions:
REMARK  status: ('A' for Active; 'I' for Inactive)
REMARK    1  A    between atoms: C_3  and  C_6
REMARK    2  A    between atoms: C_8  and  S_20
REMARK    3  A    between atoms: C_9  and  N_11
REMARK    4  A    between atoms: C_14  and  C_17
REMARK    5  A    between atoms: S_20  and  C_23
REMARK                            x       y       z     vdW  Elec       q    Type
REMARK                         _______ _______ _______ _____ _____    ______ ____
ROOT
ATOM      1  C   UNL     1      -0.644  -1.170   3.631  0.00  0.00    +0.238 A 
ATOM      2  N   UNL     1      -1.039  -0.628   2.501  0.00  0.00    -0.188 NA
ATOM      3  C   UNL     1       0.037  -0.421   1.724  0.00  0.00    +0.243 A 
ATOM      4  C   UNL     1       1.126  -0.855   2.403  0.00  0.00    +0.236 A 
ATOM      5  O   UNL     1       0.695  -1.317   3.595  0.00  0.00    -0.419 OA
ENDROOT
BRANCH   4   6
ATOM      6  N   UNL     1       2.444  -0.828   1.955  0.00  0.00    -0.298 N 
ATOM      7  C   UNL     1       2.989  -2.186   1.839  0.00  0.00    +0.109 C 
ATOM      8  C   UNL     1       4.382  -2.126   1.209  0.00  0.00    +0.032 C 
ATOM      9  C   UNL     1       5.295  -1.262   2.083  0.00  0.00    +0.078 C 
ATOM     10  C   UNL     1       4.681   0.133   2.227  0.00  0.00    +0.032 C 
ATOM     11  C   UNL     1       3.279   0.007   2.828  0.00  0.00    +0.109 C 
BRANCH   9  12
ATOM     12  C   UNL     1       6.653  -1.150   1.438  0.00  0.00    +0.214 C 
ATOM     13  O   UNL     1       7.087  -0.062   1.124  0.00  0.00    -0.276 OA
ATOM     14  N   UNL     1       7.384  -2.259   1.210  0.00  0.00    -0.329 N 
ATOM     15  H   UNL     1       7.037  -3.129   1.461  0.00  0.00    +0.145 HD
ATOM     16  H   UNL     1       8.258  -2.186   0.795  0.00  0.00    +0.145 HD
ENDBRANCH   9  12
ENDBRANCH   4   6
BRANCH   1  19
ATOM     17  C   UNL     1      -3.493  -1.865   6.023  0.00  0.00    +0.008 A 
ATOM     18  C   UNL     1      -2.892  -1.432   4.863  0.00  0.00    +0.021 A 
ATOM     19  C   UNL     1      -1.519  -1.550   4.750  0.00  0.00    +0.074 A 
ATOM     20  S   UNL     1      -1.086  -2.294   6.314  0.00  0.00    -0.092 S 
ATOM     21  C   UNL     1      -2.725  -2.389   7.013  0.00  0.00    +0.046 A 
ENDBRANCH   1  19
BRANCH   3  22
ATOM     22  S   UNL     1       0.033   0.283   0.109  0.00  0.00    +0.047 S 
ATOM     23  O   UNL     1      -1.273   0.086  -0.416  0.00  0.00    -0.163 OA
ATOM     24  O   UNL     1       1.198  -0.198  -0.547  0.00  0.00    -0.163 OA
BRANCH  22  25
ATOM     25  C   UNL     1       0.243   2.022   0.299  0.00  0.00    +0.095 A 
ATOM     26  C   UNL     1      -0.863   2.841   0.430  0.00  0.00    +0.028 A 
ATOM     27  C   UNL     1      -0.699   4.205   0.583  0.00  0.00    +0.017 A 
ATOM     28  C   UNL     1       0.572   4.752   0.595  0.00  0.00    +0.018 A 
ATOM     29  C   UNL     1       1.678   3.932   0.458  0.00  0.00    +0.017 A 
ATOM     30  C   UNL     1       1.513   2.568   0.310  0.00  0.00    +0.028 A 
ATOM     31 BR   UNL     1       0.798   6.618   0.798  0.00  0.00    -0.050 Br
ENDBRANCH  22  25
ENDBRANCH   3  22
TORSDOF 5
