REMARK  Name = ZINC08870803
REMARK  9 active torsions:
REMARK  status: ('A' for Active; 'I' for Inactive)
REMARK    1  A    between atoms: C_1  and  O_2
REMARK    2  A    between atoms: O_2  and  C_3
REMARK    3  A    between atoms: C_6  and  S_12
REMARK    4  A    between atoms: C_8  and  N_9
REMARK    5  A    between atoms: S_12  and  N_15
REMARK    6  A    between atoms: N_15  and  C_16
REMARK    7  A    between atoms: C_18  and  S_27
REMARK    8  A    between atoms: C_19  and  O_26
REMARK    9  A    between atoms: S_27  and  C_28
REMARK                            x       y       z     vdW  Elec       q    Type
REMARK                         _______ _______ _______ _____ _____    ______ ____
ROOT
ATOM      1  C   UNL     1      -1.271   3.256   2.560  0.00  0.00    +0.057 A 
ATOM      2  C   UNL     1      -0.659   4.414   2.134  0.00  0.00    +0.044 A 
ATOM      3  C   UNL     1       0.179   5.134   2.989  0.00  0.00    +0.058 A 
ATOM      4  C   UNL     1       0.413   4.700   4.280  0.00  0.00    +0.138 A 
ATOM      5  C   UNL     1      -0.200   3.520   4.740  0.00  0.00    +0.026 A 
ATOM      6  C   UNL     1      -1.055   2.793   3.875  0.00  0.00    +0.008 A 
ATOM      7  C   UNL     1      -1.661   1.613   4.337  0.00  0.00    +0.010 A 
ATOM      8  C   UNL     1      -1.427   1.189   5.609  0.00  0.00    +0.001 A 
ATOM      9  C   UNL     1      -0.590   1.906   6.462  0.00  0.00    +0.001 A 
ATOM     10  C   UNL     1       0.018   3.051   6.048  0.00  0.00    +0.012 A 
ENDROOT
BRANCH   1  11
ATOM     11  N   UNL     1      -2.107   2.547   1.695  0.00  0.00    -0.216 N 
ATOM     12  H   UNL     1      -3.067   2.684   1.727  0.00  0.00    +0.174 HD
BRANCH  11  13
ATOM     13  S   UNL     1      -1.460   1.471   0.615  0.00  0.00    +0.072 S 
ATOM     14  O   UNL     1      -0.415   2.155  -0.063  0.00  0.00    -0.150 OA
ATOM     15  O   UNL     1      -2.554   0.878  -0.072  0.00  0.00    -0.150 OA
BRANCH  13  19
ATOM     16  C   UNL     1       0.501  -1.833   3.012  0.00  0.00    +0.150 A 
ATOM     17  C   UNL     1       1.232  -0.711   2.647  0.00  0.00    +0.050 A 
ATOM     18  C   UNL     1       0.630   0.296   1.918  0.00  0.00    +0.032 A 
ATOM     19  C   UNL     1      -0.699   0.187   1.551  0.00  0.00    +0.111 A 
ATOM     20  C   UNL     1      -1.429  -0.929   1.913  0.00  0.00    +0.065 A 
ATOM     21  C   UNL     1      -0.832  -1.940   2.643  0.00  0.00    +0.169 A 
BRANCH  21  22
ATOM     22  N   UNL     1      -1.614  -3.135   3.031  0.00  0.00    +0.060 N 
ATOM     23  O   UNL     1      -2.785  -3.228   2.707  0.00  0.00    -0.126 OA
ATOM     24  O   UNL     1      -1.088  -4.025   3.674  0.00  0.00    -0.126 OA
ENDBRANCH  21  22
BRANCH  16  26
ATOM     25  C   UNL     1       2.466  -2.648   4.073  0.00  0.00    +0.277 C 
ATOM     26  O   UNL     1       1.090  -2.826   3.729  0.00  0.00    -0.493 OA
ENDBRANCH  16  26
ENDBRANCH  13  19
ENDBRANCH  11  13
ENDBRANCH   1  11
BRANCH   4  27
ATOM     27  O   UNL     1       1.232   5.410   5.102  0.00  0.00    -0.505 OA
ATOM     28  H   UNL     1       0.777   6.085   5.623  0.00  0.00    +0.292 HD
ENDBRANCH   4  27
BRANCH   3  29
ATOM     29  S   UNL     1       0.948   6.612   2.414  0.00  0.00    -0.060 S 
BRANCH  29  30
ATOM     30  C   UNL     1       2.586   6.021   2.147  0.00  0.00    +0.130 C 
ATOM     31  N   UNL     1       3.045   4.840   2.424  0.00  0.00    -0.269 NA
ATOM     32  C   UNL     1       4.414   4.467   2.153  0.00  0.00    +0.154 C 
ATOM     33  C   UNL     1       5.234   5.616   1.526  0.00  0.00    +0.099 C 
ATOM     34  S   UNL     1       3.951   6.925   1.446  0.00  0.00    -0.097 S 
ENDBRANCH  29  30
ENDBRANCH   3  29
TORSDOF 8
