REMARK  Name = ZINC39359237
REMARK  5 active torsions:
REMARK  status: ('A' for Active; 'I' for Inactive)
REMARK    1  A    between atoms: C_4  and  N_7
REMARK    2  A    between atoms: C_12  and  C_30
REMARK    3  A    between atoms: C_17  and  C_22
REMARK    4  A    between atoms: C_33  and  O_37
REMARK    5  A    between atoms: C_34  and  O_36
REMARK                            x       y       z     vdW  Elec       q    Type
REMARK                         _______ _______ _______ _____ _____    ______ ____
ROOT
ATOM      1  N   UNL     1       3.622  -0.650  -0.036  0.00  0.00    -0.159 N 
ATOM      2  C   UNL     1       3.745  -1.996  -0.050  0.00  0.00    +0.251 C 
ATOM      3  O   UNL     1       2.854  -2.817   0.018  0.00  0.00    -0.273 OA
ATOM      4  C   UNL     1       5.228  -2.262  -0.169  0.00  0.00    +0.154 C 
ATOM      5  C   UNL     1       5.752  -3.028   1.045  0.00  0.00    +0.073 C 
ATOM      6  C   UNL     1       7.234  -2.778   1.225  0.00  0.00    +0.021 C 
ATOM      7  C   UNL     1       7.868  -1.688   0.745  0.00  0.00    +0.017 C 
ATOM      8  C   UNL     1       9.350  -1.487   0.956  0.00  0.00    +0.060 C 
ATOM      9  C   UNL     1       9.780  -2.141   2.270  0.00  0.00    +0.039 C 
ATOM     10  C   UNL     1       9.420  -3.629   2.204  0.00  0.00    +0.088 C 
ATOM     11  C   UNL     1       7.947  -3.761   1.941  0.00  0.00    +0.162 C 
ATOM     12  O   UNL     1       7.355  -4.739   2.354  0.00  0.00    -0.292 OA
ATOM     13  N   UNL     1       7.206  -0.712   0.030  0.00  0.00    -0.304 N 
ATOM     14  C   UNL     1       5.832  -0.863  -0.081  0.00  0.00    +0.131 C 
ATOM     15  N   UNL     1       4.871  -0.028  -0.046  0.00  0.00    -0.161 NA
ATOM     16  H   UNL     1       7.672   0.034  -0.379  0.00  0.00    +0.153 HD
ENDROOT
BRANCH   1  20
ATOM     17  C   UNL     1      -0.017   1.379   0.010  0.00  0.00    +0.000 A 
ATOM     18  C   UNL     1       1.170   2.090   0.002  0.00  0.00    +0.002 A 
ATOM     19  C   UNL     1       2.377   1.420  -0.013  0.00  0.00    +0.025 A 
ATOM     20  C   UNL     1       2.400   0.031  -0.021  0.00  0.00    +0.060 A 
ATOM     21  C   UNL     1       1.206  -0.680  -0.013  0.00  0.00    +0.025 A 
ATOM     22  C   UNL     1       0.002  -0.004   0.002  0.00  0.00    +0.002 A 
ENDBRANCH   1  20
BRANCH   5  23
ATOM     23  C   UNL     1       5.520  -4.503   0.842  0.00  0.00    -0.035 A 
ATOM     24  C   UNL     1       6.098  -5.151  -0.234  0.00  0.00    +0.008 A 
ATOM     25  C   UNL     1       5.888  -6.504  -0.425  0.00  0.00    +0.049 A 
ATOM     26  C   UNL     1       5.098  -7.214   0.464  0.00  0.00    +0.158 A 
ATOM     27  C   UNL     1       4.517  -6.563   1.548  0.00  0.00    +0.158 A 
ATOM     28  C   UNL     1       4.735  -5.208   1.736  0.00  0.00    +0.053 A 
BRANCH  27  29
ATOM     29  O   UNL     1       3.740  -7.256   2.423  0.00  0.00    -0.503 OA
ATOM     30  H   UNL     1       4.228  -7.636   3.166  0.00  0.00    +0.292 HD
ENDBRANCH  27  29
BRANCH  26  31
ATOM     31  O   UNL     1       4.890  -8.545   0.277  0.00  0.00    -0.503 OA
ATOM     32  H   UNL     1       5.543  -9.110   0.713  0.00  0.00    +0.292 HD
ENDBRANCH  26  31
ENDBRANCH   5  23
BRANCH   9  33
ATOM     33  C   UNL     1      11.268  -1.984   2.453  0.00  0.00    -0.006 A 
ATOM     34  C   UNL     1      11.944  -1.371   3.454  0.00  0.00    +0.011 A 
ATOM     35  C   UNL     1      13.326  -1.350   3.415  0.00  0.00    +0.008 A 
ATOM     36  C   UNL     1      13.963  -1.944   2.376  0.00  0.00    +0.045 A 
ATOM     37  S   UNL     1      12.596  -2.566   1.411  0.00  0.00    -0.101 S 
ENDBRANCH   9  33
TORSDOF 5
