REMARK  Name = ZINC08793139
REMARK  8 active torsions:
REMARK  status: ('A' for Active; 'I' for Inactive)
REMARK    1  A    between atoms: C_1  and  C_2
REMARK    2  A    between atoms: C_2  and  N_56
REMARK    3  A    between atoms: C_8  and  N_14
REMARK    4  A    between atoms: C_9  and  C_10
REMARK    5  A    between atoms: C_10  and  O_12
REMARK    6  A    between atoms: O_12  and  C_13
REMARK    7  A    between atoms: C_15  and  C_17
REMARK    8  A    between atoms: C_19  and  C_27
REMARK                            x       y       z     vdW  Elec       q    Type
REMARK                         _______ _______ _______ _____ _____    ______ ____
ROOT
ATOM      1  N   UNL     1       0.002  -0.004   0.016  0.00  0.00    -0.275 N 
ATOM      2  C   UNL     1      -1.156  -0.694   0.009  0.00  0.00    +0.249 C 
ATOM      3  O   UNL     1      -2.217  -0.100   0.010  0.00  0.00    -0.270 OA
ATOM      4  H   UNL     1       0.849  -0.478   0.015  0.00  0.00    +0.156 HD
ENDROOT
BRANCH   1  10
ATOM      5  C   UNL     1       1.142   6.087  -0.392  0.00  0.00    -0.074 C 
ATOM      6  C   UNL     1       1.817   4.782   0.042  0.00  0.00    +0.018 C 
ATOM      7  C   UNL     1       0.765   3.679   0.037  0.00  0.00    -0.025 A 
ATOM      8  C   UNL     1      -0.550   3.995   0.036  0.00  0.00    -0.021 A 
ATOM      9  S   UNL     1      -1.389   2.438   0.018  0.00  0.00    -0.079 S 
ATOM     10  C   UNL     1      -0.017   1.380   0.024  0.00  0.00    +0.086 A 
ATOM     11  C   UNL     1       1.061   2.259   0.031  0.00  0.00    +0.091 A 
ATOM     12  C   UNL     1      -1.132   5.374   0.043  0.00  0.00    -0.035 C 
ATOM     13  N   UNL     1      -0.058   6.318   0.438  0.00  0.00    +0.383 N 
ATOM     14  H   UNL     1       0.182   6.159   1.423  0.00  0.00    -0.081 HD
BRANCH  13  16
ATOM     15  C   UNL     1      -0.790   8.018  -1.199  0.00  0.00    -0.017 C 
ATOM     16  C   UNL     1      -0.524   7.712   0.276  0.00  0.00    -0.082 C 
ENDBRANCH  13  16
BRANCH  11  17
ATOM     17  C   UNL     1       2.441   1.769   0.033  0.00  0.00    +0.342 C 
ATOM     18  O   UNL     1       3.017   1.571  -1.020  0.00  0.00    -0.245 OA
BRANCH  17  19
ATOM     19  O   UNL     1       3.074   1.538   1.201  0.00  0.00    -0.464 OA
ATOM     20  C   UNL     1       4.441   1.054   1.127  0.00  0.00    +0.280 C 
ENDBRANCH  17  19
ENDBRANCH  11  17
ENDBRANCH   1  10
BRANCH   2  21
ATOM     21  C   UNL     1      -1.136  -2.172   0.001  0.00  0.00    +0.048 A 
ATOM     22  C   UNL     1       0.053  -2.876  -0.117  0.00  0.00    +0.042 A 
ATOM     23  C   UNL     1       0.025  -4.281  -0.116  0.00  0.00    +0.079 A 
ATOM     24  N   UNL     1      -1.100  -4.963  -0.015  0.00  0.00    -0.246 NA
ATOM     25  C   UNL     1      -2.287  -4.365   0.098  0.00  0.00    +0.072 A 
ATOM     26  C   UNL     1      -2.371  -2.950   0.112  0.00  0.00    +0.013 A 
ATOM     27  C   UNL     1      -3.618  -2.328   0.230  0.00  0.00    +0.011 A 
ATOM     28  C   UNL     1      -4.744  -3.090   0.331  0.00  0.00    +0.001 A 
ATOM     29  C   UNL     1      -4.668  -4.481   0.318  0.00  0.00    +0.002 A 
ATOM     30  C   UNL     1      -3.471  -5.118   0.204  0.00  0.00    +0.028 A 
BRANCH  23  31
ATOM     31  C   UNL     1       1.297  -5.019  -0.236  0.00  0.00    +0.038 A 
ATOM     32  C   UNL     1       1.512  -6.373  -0.257  0.00  0.00    +0.017 A 
ATOM     33  C   UNL     1       2.801  -6.837  -0.383  0.00  0.00    +0.008 A 
ATOM     34  C   UNL     1       3.821  -5.942  -0.473  0.00  0.00    +0.046 A 
ATOM     35  S   UNL     1       2.958  -4.382  -0.386  0.00  0.00    -0.095 S 
ENDBRANCH  23  31
ENDBRANCH   2  21
TORSDOF 6
