REMARK  Name = ZINC63570124
REMARK  7 active torsions:
REMARK  status: ('A' for Active; 'I' for Inactive)
REMARK    1  A    between atoms: C_4  and  C_7
REMARK    2  A    between atoms: N_18  and  C_19
REMARK    3  A    between atoms: C_19  and  C_20
REMARK    4  A    between atoms: C_23  and  C_26
REMARK    5  A    between atoms: N_28  and  C_29
REMARK    6  A    between atoms: C_29  and  C_30
REMARK    7  A    between atoms: C_30  and  C_31
REMARK                            x       y       z     vdW  Elec       q    Type
REMARK                         _______ _______ _______ _____ _____    ______ ____
ROOT
ATOM      1  C   UNL     1       6.053  -3.143  -4.114  0.00  0.00    -0.030 A 
ATOM      2  C   UNL     1       6.874  -2.044  -3.929  0.00  0.00    +0.006 A 
ATOM      3  C   UNL     1       8.193  -2.089  -4.332  0.00  0.00    +0.013 A 
ATOM      4  C   UNL     1       8.698  -3.245  -4.928  0.00  0.00    +0.037 A 
ATOM      5  C   UNL     1       7.865  -4.350  -5.112  0.00  0.00    +0.013 A 
ATOM      6  C   UNL     1       6.550  -4.294  -4.699  0.00  0.00    +0.006 A 
ENDROOT
BRANCH   4   7
ATOM      7  C   UNL     1      10.110  -3.300  -5.363  0.00  0.00    +0.244 C 
ATOM      8  O   UNL     1      10.834  -2.337  -5.202  0.00  0.00    -0.270 OA
ATOM      9  N   UNL     1      10.595  -4.418  -5.938  0.00  0.00    -0.311 N 
ATOM     10  H   UNL     1      10.018  -5.187  -6.066  0.00  0.00    +0.149 HD
BRANCH   9  11
ATOM     11  C   UNL     1      11.995  -4.473  -6.369  0.00  0.00    +0.109 C 
BRANCH  11  12
ATOM     12  C   UNL     1      12.286  -5.843  -6.984  0.00  0.00    +0.052 C 
BRANCH  12  13
ATOM     13  C   UNL     1      13.725  -5.898  -7.428  0.00  0.00    -0.040 C 
ATOM     14  C   UNL     1      14.772  -6.397  -6.731  0.00  0.00    -0.001 A 
ATOM     15  C   UNL     1      14.880  -7.011  -5.402  0.00  0.00    +0.010 A 
ATOM     16  C   UNL     1      16.092  -7.421  -4.966  0.00  0.00    +0.001 A 
ATOM     17  C   UNL     1      17.246  -7.274  -5.748  0.00  0.00    +0.002 A 
ATOM     18  C   UNL     1      17.227  -6.719  -6.979  0.00  0.00    +0.026 A 
ATOM     19  C   UNL     1      16.005  -6.253  -7.538  0.00  0.00    +0.043 A 
ATOM     20  N   UNL     1      15.731  -5.688  -8.689  0.00  0.00    -0.380 N 
ATOM     21  C   UNL     1      14.291  -5.415  -8.744  0.00  0.00    +0.144 C 
ATOM     22  H   UNL     1      16.373  -5.488  -9.388  0.00  0.00    +0.160 HD
ENDBRANCH  12  13
ENDBRANCH  11  12
ENDBRANCH   9  11
ENDBRANCH   4   7
BRANCH   1  23
ATOM     23  C   UNL     1       4.614  -3.087  -3.671  0.00  0.00    +0.144 C 
BRANCH  23  33
ATOM     24  C   UNL     1       3.711  -0.707  -0.038  0.00  0.00    +0.103 C 
ATOM     25  C   UNL     1       4.027  -1.207  -1.475  0.00  0.00    +0.064 C 
ATOM     26  C   UNL     1       4.630  -2.594  -1.193  0.00  0.00    +0.163 C 
ATOM     27  N   UNL     1       3.761  -3.060  -0.080  0.00  0.00    -0.222 NA
ATOM     28  N   UNL     1       3.627  -1.928   0.807  0.00  0.00    -0.245 NA
ATOM     29  C   UNL     1       4.289  -4.308   0.446  0.00  0.00    +0.113 C 
ATOM     30  C   UNL     1       4.048  -5.387  -0.622  0.00  0.00    +0.113 C 
ATOM     31  C   UNL     1       4.296  -4.850  -2.002  0.00  0.00    +0.218 C 
ATOM     32  O   UNL     1       4.314  -5.637  -2.925  0.00  0.00    -0.276 OA
ATOM     33  N   UNL     1       4.512  -3.544  -2.283  0.00  0.00    -0.280 N 
ATOM     34  H   UNL     1       2.752  -1.962   1.308  0.00  0.00    +0.142 HD
BRANCH  24  38
ATOM     35  C   UNL     1      -0.017   1.378   0.010  0.00  0.00    +0.000 A 
ATOM     36  C   UNL     1       1.171   2.086   0.002  0.00  0.00    +0.000 A 
ATOM     37  C   UNL     1       2.377   1.411  -0.013  0.00  0.00    +0.005 A 
ATOM     38  C   UNL     1       2.396   0.029  -0.020  0.00  0.00    -0.029 A 
ATOM     39  C   UNL     1       1.208  -0.679  -0.012  0.00  0.00    +0.005 A 
ATOM     40  C   UNL     1       0.002  -0.004   0.002  0.00  0.00    +0.000 A 
ENDBRANCH  24  38
ENDBRANCH  23  33
ENDBRANCH   1  23
TORSDOF 7
