REMARK  Name = ZINC35913991
REMARK  9 active torsions:
REMARK  status: ('A' for Active; 'I' for Inactive)
REMARK    1  A    between atoms: C_1  and  N_2
REMARK    2  A    between atoms: N_2  and  C_3
REMARK    3  A    between atoms: N_2  and  C_25
REMARK    4  A    between atoms: C_3  and  C_4
REMARK    5  A    between atoms: C_4  and  C_5
REMARK    6  A    between atoms: C_5  and  C_7
REMARK    7  A    between atoms: C_5  and  O_16
REMARK    8  A    between atoms: O_16  and  C_17
REMARK    9  A    between atoms: C_25  and  C_26
REMARK                            x       y       z     vdW  Elec       q    Type
REMARK                         _______ _______ _______ _____ _____    ______ ____
ROOT
ATOM      1  C   UNL     1      -3.384  -0.670   1.133  0.00  0.00    +0.202 C 
ENDROOT
BRANCH   1   2
ATOM      2  C   UNL     1      -4.156   0.037   2.217  0.00  0.00    -0.004 A 
ATOM      3  C   UNL     1      -4.095  -0.423   3.519  0.00  0.00    +0.011 A 
ATOM      4  C   UNL     1      -4.802   0.223   4.517  0.00  0.00    +0.050 A 
ATOM      5  C   UNL     1      -5.573   1.333   4.213  0.00  0.00    +0.166 A 
ATOM      6  C   UNL     1      -5.634   1.796   2.901  0.00  0.00    +0.167 A 
ATOM      7  C   UNL     1      -4.919   1.147   1.908  0.00  0.00    +0.056 A 
ATOM      8  O   UNL     1      -6.451   2.889   2.862  0.00  0.00    -0.453 OA
ATOM      9  C   UNL     1      -7.211   2.845   4.085  0.00  0.00    +0.466 C 
ATOM     10  O   UNL     1      -6.351   2.135   4.996  0.00  0.00    -0.453 OA
ENDBRANCH   1   2
BRANCH   1  11
ATOM     11  C   UNL     1      -1.918  -0.235   1.185  0.00  0.00    +0.031 C 
BRANCH  11  12
ATOM     12  C   UNL     1      -1.160  -0.856   0.009  0.00  0.00    -0.075 C 
BRANCH  12  14
ATOM     13  C   UNL     1       0.335   1.014  -0.145  0.00  0.00    -0.096 C 
ATOM     14  N   UNL     1       0.247  -0.438   0.059  0.00  0.00    +0.381 N 
ATOM     15  H   UNL     1       0.637  -0.675   0.959  0.00  0.00    -0.082 HD
BRANCH  14  16
ATOM     16  C   UNL     1       1.000  -1.127  -0.998  0.00  0.00    -0.043 C 
BRANCH  16  17
ATOM     17  C   UNL     1       2.465  -0.794  -0.870  0.00  0.00    -0.064 A 
ATOM     18  C   UNL     1       2.984   0.304  -1.529  0.00  0.00    +0.002 A 
ATOM     19  C   UNL     1       4.327   0.610  -1.412  0.00  0.00    +0.000 A 
ATOM     20  C   UNL     1       5.151  -0.183  -0.635  0.00  0.00    +0.000 A 
ATOM     21  C   UNL     1       4.631  -1.281   0.025  0.00  0.00    +0.000 A 
ATOM     22  C   UNL     1       3.287  -1.584  -0.089  0.00  0.00    +0.002 A 
ENDBRANCH  16  17
ENDBRANCH  14  16
ENDBRANCH  12  14
ENDBRANCH  11  12
ENDBRANCH   1  11
BRANCH   1  23
ATOM     23  O   UNL     1      -3.469  -2.083   1.331  0.00  0.00    -0.484 OA
BRANCH  23  24
ATOM     24  C   UNL     1      -4.563  -2.712   0.827  0.00  0.00    +0.123 A 
ATOM     25  C   UNL     1      -5.585  -1.972   0.249  0.00  0.00    +0.048 A 
ATOM     26  C   UNL     1      -6.696  -2.612  -0.264  0.00  0.00    +0.043 A 
ATOM     27  C   UNL     1      -6.791  -3.992  -0.203  0.00  0.00    +0.142 A 
ATOM     28  C   UNL     1      -5.772  -4.733   0.374  0.00  0.00    +0.080 A 
ATOM     29  C   UNL     1      -4.656  -4.094   0.883  0.00  0.00    +0.068 A 
ATOM     30 CL   UNL     1      -5.893  -6.463   0.450  0.00  0.00    -0.080 Cl
ATOM     31  F   UNL     1      -7.879  -4.617  -0.705  0.00  0.00    -0.204 F 
ENDBRANCH  23  24
ENDBRANCH   1  23
TORSDOF 8
