REMARK  Name = ZINC32762269
REMARK  9 active torsions:
REMARK  status: ('A' for Active; 'I' for Inactive)
REMARK    1  A    between atoms: C_1  and  C_2
REMARK    2  A    between atoms: C_5  and  C_8
REMARK    3  A    between atoms: C_8  and  C_32
REMARK    4  A    between atoms: N_11  and  C_15
REMARK    5  A    between atoms: C_15  and  C_16
REMARK    6  A    between atoms: N_18  and  C_19
REMARK    7  A    between atoms: C_19  and  C_20
REMARK    8  A    between atoms: C_20  and  C_22
REMARK    9  A    between atoms: C_20  and  N_27
REMARK                            x       y       z     vdW  Elec       q    Type
REMARK                         _______ _______ _______ _____ _____    ______ ____
ROOT
ATOM      1  C   UNL     1      -2.645  -6.192  -1.734  0.00  0.00    +0.213 C 
ENDROOT
BRANCH   1   5
ATOM      2  C   UNL     1      -0.000  -4.277   0.036  0.00  0.00    +0.135 C 
ATOM      3  C   UNL     1      -0.624  -4.836  -1.228  0.00  0.00    +0.251 C 
ATOM      4  O   UNL     1      -0.213  -4.716  -2.362  0.00  0.00    -0.272 OA
ATOM      5  N   UNL     1      -1.730  -5.493  -0.828  0.00  0.00    -0.215 N 
ATOM      6  C   UNL     1      -1.891  -5.427   0.499  0.00  0.00    +0.310 C 
ATOM      7  O   UNL     1      -2.817  -5.943   1.094  0.00  0.00    -0.252 OA
ATOM      8  N   UNL     1      -0.913  -4.726   1.101  0.00  0.00    -0.281 N 
ATOM      9  C   UNL     1       1.401  -4.854   0.245  0.00  0.00    +0.047 C 
ATOM     10  H   UNL     1      -0.709  -4.461   2.148  0.00  0.00    +0.152 HD
BRANCH   2  15
ATOM     11  C   UNL     1       0.194   1.495  -0.176  0.00  0.00    +0.044 C 
ATOM     12  C   UNL     1       0.144  -0.010  -0.121  0.00  0.00    -0.050 A 
ATOM     13  C   UNL     1       0.213  -0.747  -1.288  0.00  0.00    +0.004 A 
ATOM     14  C   UNL     1       0.172  -2.128  -1.237  0.00  0.00    +0.006 A 
ATOM     15  C   UNL     1       0.051  -2.772  -0.020  0.00  0.00    -0.015 A 
ATOM     16  C   UNL     1      -0.024  -2.034   1.147  0.00  0.00    +0.006 A 
ATOM     17  C   UNL     1       0.022  -0.653   1.097  0.00  0.00    +0.004 A 
ENDBRANCH   2  15
ENDBRANCH   1   5
BRANCH   1  18
ATOM     18  C   UNL     1      -2.198  -7.622  -1.894  0.00  0.00    +0.231 C 
ATOM     19  O   UNL     1      -1.212  -8.018  -1.310  0.00  0.00    -0.274 OA
ATOM     20  N   UNL     1      -2.893  -8.460  -2.688  0.00  0.00    -0.315 N 
ATOM     21  H   UNL     1      -3.788  -8.101  -3.218  0.00  0.00    +0.149 HD
BRANCH  20  22
ATOM     22  C   UNL     1      -2.459  -9.851  -2.844  0.00  0.00    +0.094 C 
BRANCH  22  23
ATOM     23  C   UNL     1      -3.478 -10.611  -3.694  0.00  0.00    -0.013 C 
BRANCH  23  24
ATOM     24  N   UNL     1      -3.110 -12.033  -3.745  0.00  0.00    +0.386 N 
ATOM     25  C   UNL     1      -3.071 -12.622  -2.382  0.00  0.00    -0.078 C 
ATOM     26  C   UNL     1      -3.200 -14.143  -2.650  0.00  0.00    -0.020 C 
ATOM     27  C   UNL     1      -4.196 -14.202  -3.832  0.00  0.00    -0.020 C 
ATOM     28  C   UNL     1      -4.117 -12.815  -4.495  0.00  0.00    -0.078 C 
ATOM     29  H   UNL     1      -2.125 -12.069  -4.234  0.00  0.00    -0.081 HD
ENDBRANCH  23  24
BRANCH  23  30
ATOM     30  C   UNL     1      -3.491 -10.045  -5.090  0.00  0.00    -0.022 A 
ATOM     31  C   UNL     1      -4.366  -9.175  -5.651  0.00  0.00    +0.009 A 
ATOM     32  C   UNL     1      -4.177  -8.786  -6.963  0.00  0.00    +0.008 A 
ATOM     33  C   UNL     1      -3.127  -9.294  -7.655  0.00  0.00    +0.045 A 
ATOM     34  S   UNL     1      -2.361 -10.351  -6.438  0.00  0.00    -0.103 S 
ENDBRANCH  23  30
ENDBRANCH  22  23
ENDBRANCH  20  22
ENDBRANCH   1  18
TORSDOF 7
