REMARK  Name = ZINC63258222
REMARK  5 active torsions:
REMARK  status: ('A' for Active; 'I' for Inactive)
REMARK    1  A    between atoms: C_1  and  O_2
REMARK    2  A    between atoms: O_2  and  C_3
REMARK    3  A    between atoms: C_3  and  C_5
REMARK    4  A    between atoms: N_16  and  C_19
REMARK    5  A    between atoms: C_23  and  N_24
REMARK                            x       y       z     vdW  Elec       q    Type
REMARK                         _______ _______ _______ _____ _____    ______ ____
ROOT
ATOM      1  C   UNL     1       0.680  -2.084   1.091  0.00  0.00    +0.083 A 
ATOM      2  C   UNL     1       0.102  -2.850   0.079  0.00  0.00    +0.017 A 
ATOM      3  C   UNL     1       0.155  -4.231   0.128  0.00  0.00    +0.002 A 
ATOM      4  C   UNL     1       0.779  -4.873   1.177  0.00  0.00    +0.010 A 
ATOM      5  C   UNL     1       1.365  -4.130   2.203  0.00  0.00    +0.005 A 
ATOM      6  C   UNL     1       1.323  -2.724   2.164  0.00  0.00    +0.061 A 
ATOM      7  N   UNL     1       1.973  -2.264   3.281  0.00  0.00    -0.357 N 
ATOM      8  H   UNL     1       2.089  -1.328   3.511  0.00  0.00    +0.166 HD
ATOM      9  C   UNL     1       2.433  -3.316   4.024  0.00  0.00    +0.023 A 
ATOM     10  C   UNL     1       2.086  -4.471   3.425  0.00  0.00    -0.002 A 
ATOM     11  C   UNL     1       2.416  -5.842   3.960  0.00  0.00    +0.142 C 
ATOM     12  N   UNL     1       3.368  -5.662   5.071  0.00  0.00    -0.323 N 
ATOM     13  C   UNL     1       3.106  -4.590   6.043  0.00  0.00    +0.111 C 
ATOM     14  C   UNL     1       3.205  -3.234   5.320  0.00  0.00    +0.072 C 
ENDROOT
BRANCH  12  15
ATOM     15  C   UNL     1       4.497  -6.494   5.199  0.00  0.00    +0.068 A 
ATOM     16  C   UNL     1       5.698  -6.148   4.600  0.00  0.00    +0.033 A 
ATOM     17  C   UNL     1       6.764  -6.973   4.744  0.00  0.00    +0.049 A 
ATOM     18  S   UNL     1       6.088  -8.285   5.748  0.00  0.00    -0.071 S 
ATOM     19  C   UNL     1       4.429  -7.646   5.915  0.00  0.00    +0.184 A 
BRANCH  19  20
ATOM     20  N   UNL     1       3.277  -8.224   6.644  0.00  0.00    +0.065 N 
ATOM     21  O   UNL     1       2.214  -7.648   6.649  0.00  0.00    -0.126 OA
ATOM     22  O   UNL     1       3.399  -9.272   7.235  0.00  0.00    -0.126 OA
ENDBRANCH  19  20
ENDBRANCH  12  15
BRANCH   1  23
ATOM     23  C   UNL     1       0.621  -0.613   1.033  0.00  0.00    +0.341 C 
ATOM     24  O   UNL     1       1.129   0.051   1.914  0.00  0.00    -0.245 OA
BRANCH  23  26
ATOM     25  C   UNL     1      -0.017   1.425   0.010  0.00  0.00    +0.280 C 
ATOM     26  O   UNL     1       0.002  -0.004   0.002  0.00  0.00    -0.464 OA
ENDBRANCH  23  26
ENDBRANCH   1  23
TORSDOF 4
