REMARK  Name = ZINC05883372
REMARK  7 active torsions:
REMARK  status: ('A' for Active; 'I' for Inactive)
REMARK    1  A    between atoms: C_1  and  C_2
REMARK    2  A    between atoms: C_2  and  C_3
REMARK    3  A    between atoms: C_3  and  C_4
REMARK    4  A    between atoms: C_4  and  N_5
REMARK    5  A    between atoms: C_16  and  C_27
REMARK    6  A    between atoms: C_22  and  N_26
REMARK    7  A    between atoms: C_23  and  C_24
REMARK                            x       y       z     vdW  Elec       q    Type
REMARK                         _______ _______ _______ _____ _____    ______ ____
ROOT
ATOM      1  N   UNL     1       0.655  -2.384   2.620  0.00  0.00    -0.270 N 
ATOM      2  C   UNL     1       1.938  -2.814   2.331  0.00  0.00    +0.041 A 
ATOM      3  C   UNL     1       2.643  -2.754   1.128  0.00  0.00    +0.024 A 
ATOM      4  C   UNL     1       3.932  -3.265   1.122  0.00  0.00    +0.002 A 
ATOM      5  C   UNL     1       4.505  -3.813   2.250  0.00  0.00    +0.000 A 
ATOM      6  C   UNL     1       3.813  -3.880   3.455  0.00  0.00    +0.007 A 
ATOM      7  C   UNL     1       2.532  -3.374   3.469  0.00  0.00    -0.001 A 
ATOM      8  C   UNL     1       1.514  -3.279   4.560  0.00  0.00    +0.145 C 
ATOM      9  C   UNL     1       0.324  -2.609   3.909  0.00  0.00    +0.240 C 
ATOM     10  O   UNL     1      -0.729  -2.331   4.443  0.00  0.00    -0.274 OA
ATOM     11  C   UNL     1       2.015  -2.447   5.706  0.00  0.00    +0.066 A 
ATOM     12  C   UNL     1       2.269  -1.118   5.771  0.00  0.00    +0.074 A 
ATOM     13  N   UNL     1       2.709  -0.851   7.037  0.00  0.00    -0.273 N 
ATOM     14  H   UNL     1       2.969   0.019   7.379  0.00  0.00    +0.189 HD
ATOM     15  N   UNL     1       2.719  -2.058   7.754  0.00  0.00    -0.135 NA
ATOM     16  C   UNL     1       2.306  -3.009   6.966  0.00  0.00    +0.246 A 
ATOM     17  O   UNL     1       2.149  -4.338   7.213  0.00  0.00    -0.421 OA
ATOM     18  C   UNL     1       1.462  -5.068   6.313  0.00  0.00    +0.201 C 
ATOM     19  C   UNL     1       1.134  -4.641   5.073  0.00  0.00    +0.110 C 
ENDROOT
BRANCH  12  20
ATOM     20  C   UNL     1       2.102  -0.138   4.675  0.00  0.00    +0.000 A 
ATOM     21  C   UNL     1       1.291   0.983   4.855  0.00  0.00    +0.010 A 
ATOM     22  C   UNL     1       1.140   1.893   3.829  0.00  0.00    +0.001 A 
ATOM     23  C   UNL     1       1.791   1.697   2.625  0.00  0.00    +0.000 A 
ATOM     24  C   UNL     1       2.596   0.588   2.440  0.00  0.00    +0.001 A 
ATOM     25  C   UNL     1       2.761  -0.327   3.460  0.00  0.00    +0.010 A 
ENDBRANCH  12  20
BRANCH  18  26
ATOM     26  N   UNL     1       1.068  -6.331   6.680  0.00  0.00    -0.328 N 
ATOM     27  H   UNL     1       1.286  -6.670   7.562  0.00  0.00    +0.145 HD
ATOM     28  H   UNL     1       0.572  -6.884   6.056  0.00  0.00    +0.145 HD
ENDBRANCH  18  26
BRANCH  19  29
ATOM     29  C   UNL     1       0.398  -5.519   4.215  0.00  0.00    +0.102 C 
ATOM     30  N   UNL     1      -0.186  -6.216   3.534  0.00  0.00    -0.191 NA
ENDBRANCH  19  29
BRANCH   1  31
ATOM     31  C   UNL     1      -0.236  -1.752   1.644  0.00  0.00    +0.114 C 
BRANCH  31  32
ATOM     32  C   UNL     1       0.021  -0.244   1.620  0.00  0.00    +0.019 C 
BRANCH  32  34
ATOM     33  C   UNL     1      -0.752   1.943   0.690  0.00  0.00    +0.004 C 
ATOM     34  C   UNL     1      -1.009   0.435   0.714  0.00  0.00    -0.002 C 
ENDBRANCH  32  34
ENDBRANCH  31  32
ENDBRANCH   1  31
TORSDOF 6
