REMARK  Name = ZINC04501999
REMARK  5 active torsions:
REMARK  status: ('A' for Active; 'I' for Inactive)
REMARK    1  A    between atoms: C_1  and  C_2
REMARK    2  A    between atoms: C_3  and  C_24
REMARK    3  A    between atoms: C_10  and  C_13
REMARK    4  A    between atoms: C_14  and  C_15
REMARK    5  A    between atoms: C_18  and  N_21
REMARK                            x       y       z     vdW  Elec       q    Type
REMARK                         _______ _______ _______ _____ _____    ______ ____
ROOT
ATOM      1  C   UNL     1       8.078   5.134  -1.105  0.00  0.00    +0.045 C 
ATOM      2  C   UNL     1       7.553   4.383   0.091  0.00  0.00    -0.027 A 
ATOM      3  C   UNL     1       7.737   4.848   1.342  0.00  0.00    -0.008 A 
ATOM      4  S   UNL     1       6.941   3.619   2.361  0.00  0.00    -0.078 S 
ATOM      5  C   UNL     1       6.399   2.553   1.138  0.00  0.00    +0.080 A 
ATOM      6  C   UNL     1       6.834   3.141  -0.062  0.00  0.00    +0.068 A 
ATOM      7  C   UNL     1       6.514   2.433  -1.323  0.00  0.00    +0.248 C 
ATOM      8  O   UNL     1       6.998   2.780  -2.385  0.00  0.00    -0.270 OA
ATOM      9  N   UNL     1       5.664   1.387  -1.247  0.00  0.00    -0.290 N 
ATOM     10  C   UNL     1       4.932   1.026  -0.037  0.00  0.00    +0.183 C 
ATOM     11  N   UNL     1       5.694   1.379   1.174  0.00  0.00    -0.317 N 
ATOM     12  C   UNL     1       8.445   6.105   1.776  0.00  0.00    +0.052 C 
ATOM     13  H   UNL     1       5.533   0.845  -2.040  0.00  0.00    +0.151 HD
ATOM     14  H   UNL     1       5.696   0.809   1.959  0.00  0.00    +0.149 HD
ENDROOT
BRANCH  10  15
ATOM     15  C   UNL     1       3.614   1.757  -0.022  0.00  0.00    +0.015 C 
ATOM     16  C   UNL     1       2.478   1.075  -0.015  0.00  0.00    +0.007 C 
BRANCH  16  17
ATOM     17  C   UNL     1       1.185   1.791   0.000  0.00  0.00    -0.025 A 
ATOM     18  C   UNL     1      -0.013   1.076   0.008  0.00  0.00    +0.010 A 
ATOM     19  C   UNL     1      -1.216   1.751   0.017  0.00  0.00    +0.033 A 
ATOM     20  C   UNL     1      -1.236   3.134   0.030  0.00  0.00    +0.126 A 
ATOM     21  C   UNL     1      -0.052   3.849   0.022  0.00  0.00    +0.033 A 
ATOM     22  C   UNL     1       1.158   3.186   0.008  0.00  0.00    +0.010 A 
BRANCH  20  23
ATOM     23  N   UNL     1      -2.531   3.852   0.045  0.00  0.00    +0.056 N 
ATOM     24  O   UNL     1      -2.552   5.070   0.051  0.00  0.00    -0.126 OA
ATOM     25  O   UNL     1      -3.575   3.225   0.051  0.00  0.00    -0.126 OA
ENDBRANCH  20  23
ENDBRANCH  16  17
ENDBRANCH  10  15
TORSDOF 3
