REMARK  Name = ZINC40985743
REMARK  8 active torsions:
REMARK  status: ('A' for Active; 'I' for Inactive)
REMARK    1  A    between atoms: C_4  and  C_7
REMARK    2  A    between atoms: C_7  and  S_8
REMARK    3  A    between atoms: S_8  and  C_9
REMARK    4  A    between atoms: C_12  and  C_16
REMARK    5  A    between atoms: N_18  and  C_19
REMARK    6  A    between atoms: C_19  and  C_20
REMARK    7  A    between atoms: C_20  and  C_22
REMARK    8  A    between atoms: C_20  and  N_29
REMARK                            x       y       z     vdW  Elec       q    Type
REMARK                         _______ _______ _______ _____ _____    ______ ____
ROOT
ATOM      1  C   UNL     1       9.297  -3.958   0.993  0.00  0.00    +0.248 C 
ATOM      2  O   UNL     1       9.823  -4.439   1.978  0.00  0.00    -0.270 OA
ATOM      3  N   UNL     1       9.835  -4.165  -0.226  0.00  0.00    -0.312 N 
ATOM      4  H   UNL     1       9.416  -3.781  -1.012  0.00  0.00    +0.149 HD
ENDROOT
BRANCH   1   8
ATOM      5  C   UNL     1       5.842  -1.680   1.381  0.00  0.00    +0.190 A 
ATOM      6  N   UNL     1       6.356  -1.871   0.173  0.00  0.00    -0.229 NA
ATOM      7  C   UNL     1       7.451  -2.588   0.007  0.00  0.00    +0.129 A 
ATOM      8  C   UNL     1       8.072  -3.150   1.131  0.00  0.00    +0.092 A 
ATOM      9  C   UNL     1       7.497  -2.924   2.390  0.00  0.00    +0.146 A 
ATOM     10  N   UNL     1       6.401  -2.190   2.471  0.00  0.00    -0.209 NA
ATOM     11 CL   UNL     1       8.217  -3.593   3.821  0.00  0.00    -0.061 Cl
BRANCH   5  12
ATOM     12  S   UNL     1       4.377  -0.714   1.545  0.00  0.00    -0.081 S 
BRANCH  12  13
ATOM     13  C   UNL     1       3.975  -0.235  -0.158  0.00  0.00    +0.112 C 
BRANCH  13  17
ATOM     14  C   UNL     1       0.432   2.151  -0.170  0.00  0.00    +0.000 A 
ATOM     15  C   UNL     1       1.670   2.753  -0.046  0.00  0.00    +0.000 A 
ATOM     16  C   UNL     1       2.817   1.981  -0.042  0.00  0.00    +0.004 A 
ATOM     17  C   UNL     1       2.725   0.607  -0.162  0.00  0.00    -0.037 A 
ATOM     18  C   UNL     1       1.487   0.005  -0.285  0.00  0.00    +0.004 A 
ATOM     19  C   UNL     1       0.341   0.777  -0.290  0.00  0.00    +0.000 A 
ENDBRANCH  13  17
ENDBRANCH  12  13
ENDBRANCH   5  12
ENDBRANCH   1   8
BRANCH   3  20
ATOM     20  C   UNL     1      11.052  -4.968  -0.363  0.00  0.00    +0.094 C 
BRANCH  20  21
ATOM     21  C   UNL     1      11.389  -5.135  -1.846  0.00  0.00    -0.020 C 
BRANCH  21  22
ATOM     22  C   UNL     1      11.742  -3.794  -2.436  0.00  0.00    -0.059 A 
ATOM     23  C   UNL     1      13.007  -3.269  -2.249  0.00  0.00    +0.003 A 
ATOM     24  C   UNL     1      13.332  -2.040  -2.790  0.00  0.00    +0.020 A 
ATOM     25  C   UNL     1      12.391  -1.334  -3.518  0.00  0.00    +0.041 A 
ATOM     26  C   UNL     1      11.125  -1.859  -3.704  0.00  0.00    +0.020 A 
ATOM     27  C   UNL     1      10.803  -3.092  -3.168  0.00  0.00    +0.003 A 
ATOM     28 CL   UNL     1      12.798   0.211  -4.196  0.00  0.00    -0.084 Cl
ENDBRANCH  21  22
BRANCH  21  29
ATOM     29  N   UNL     1      12.530  -6.049  -1.990  0.00  0.00    +0.385 N 
ATOM     30  C   UNL     1      12.172  -7.398  -1.480  0.00  0.00    -0.078 C 
ATOM     31  C   UNL     1      13.191  -8.326  -2.188  0.00  0.00    -0.020 C 
ATOM     32  C   UNL     1      13.314  -7.694  -3.594  0.00  0.00    -0.020 C 
ATOM     33  C   UNL     1      12.859  -6.234  -3.420  0.00  0.00    -0.078 C 
ATOM     34  H   UNL     1      13.329  -5.689  -1.492  0.00  0.00    -0.081 HD
ENDBRANCH  21  29
ENDBRANCH  20  21
ENDBRANCH   3  20
TORSDOF 8
