REMARK  Name = ZINC63830796
REMARK  9 active torsions:
REMARK  status: ('A' for Active; 'I' for Inactive)
REMARK    1  A    between atoms: C_1  and  C_2
REMARK    2  A    between atoms: C_2  and  C_4
REMARK    3  A    between atoms: C_2  and  N_15
REMARK    4  A    between atoms: N_15  and  C_16
REMARK    5  A    between atoms: C_16  and  C_17
REMARK    6  A    between atoms: C_17  and  C_19
REMARK    7  A    between atoms: C_17  and  C_27
REMARK    8  A    between atoms: C_22  and  O_25
REMARK    9  A    between atoms: O_25  and  C_26
REMARK                            x       y       z     vdW  Elec       q    Type
REMARK                         _______ _______ _______ _____ _____    ______ ____
ROOT
ATOM      1  C   UNL     1      -2.840  -1.623  -1.849  0.00  0.00    +0.030 C 
ENDROOT
BRANCH   1   2
ATOM      2  C   UNL     1      -2.187  -2.932  -2.213  0.00  0.00    -0.036 C 
ATOM      3  C   UNL     1      -2.348  -4.122  -1.590  0.00  0.00    -0.001 A 
ATOM      4  C   UNL     1      -3.147  -4.537  -0.431  0.00  0.00    +0.010 A 
ATOM      5  C   UNL     1      -3.102  -5.829  -0.033  0.00  0.00    +0.001 A 
ATOM      6  C   UNL     1      -2.313  -6.778  -0.697  0.00  0.00    +0.002 A 
ATOM      7  C   UNL     1      -1.552  -6.472  -1.769  0.00  0.00    +0.026 A 
ATOM      8  C   UNL     1      -1.523  -5.143  -2.274  0.00  0.00    +0.043 A 
ATOM      9  N   UNL     1      -0.878  -4.606  -3.281  0.00  0.00    -0.380 N 
ATOM     10  C   UNL     1      -1.225  -3.182  -3.353  0.00  0.00    +0.145 C 
ATOM     11  H   UNL     1      -0.274  -5.072  -3.880  0.00  0.00    +0.160 HD
ENDBRANCH   1   2
BRANCH   1  12
ATOM     12  C   UNL     1      -3.668  -1.135  -3.009  0.00  0.00    -0.042 A 
ATOM     13  C   UNL     1      -3.068  -0.887  -4.230  0.00  0.00    +0.008 A 
ATOM     14  C   UNL     1      -3.826  -0.439  -5.295  0.00  0.00    +0.046 A 
ATOM     15  C   UNL     1      -5.190  -0.239  -5.139  0.00  0.00    +0.120 A 
ATOM     16  C   UNL     1      -5.790  -0.489  -3.913  0.00  0.00    +0.046 A 
ATOM     17  C   UNL     1      -5.029  -0.941  -2.853  0.00  0.00    +0.008 A 
BRANCH  15  18
ATOM     18  O   UNL     1      -5.937   0.202  -6.185  0.00  0.00    -0.495 OA
ATOM     19  C   UNL     1      -7.335   0.386  -5.952  0.00  0.00    +0.277 C 
ENDBRANCH  15  18
ENDBRANCH   1  12
BRANCH   1  20
ATOM     20  C   UNL     1      -1.761  -0.589  -1.522  0.00  0.00    -0.069 C 
BRANCH  20  21
ATOM     21  N   UNL     1      -1.030  -1.007  -0.319  0.00  0.00    +0.387 N 
ATOM     22  H   UNL     1      -0.598  -1.904  -0.482  0.00  0.00    -0.085 HD
ATOM     23  H   UNL     1      -1.672  -1.079   0.457  0.00  0.00    -0.085 HD
BRANCH  21  25
ATOM     24  C   UNL     1      -0.656   1.315   0.365  0.00  0.00    -0.004 C 
ATOM     25  C   UNL     1       0.006  -0.014  -0.005  0.00  0.00    +0.013 C 
BRANCH  25  26
ATOM     26  C   UNL     1       0.835  -0.501   1.155  0.00  0.00    +0.206 C 
ATOM     27  O   UNL     1       0.358  -1.275   1.959  0.00  0.00    -0.277 OA
ATOM     28  N   UNL     1       2.106  -0.079   1.300  0.00  0.00    -0.272 N 
ATOM     29  C   UNL     1       2.752   0.942   0.470  0.00  0.00    +0.118 C 
ATOM     30  C   UNL     1       4.180   1.069   1.025  0.00  0.00    +0.056 C 
ATOM     31  C   UNL     1       4.236   0.076   2.164  0.00  0.00    -0.024 A 
ATOM     32  C   UNL     1       3.001  -0.545   2.268  0.00  0.00    +0.039 A 
ATOM     33  C   UNL     1       2.808  -1.506   3.262  0.00  0.00    +0.024 A 
ATOM     34  C   UNL     1       3.832  -1.827   4.128  0.00  0.00    +0.002 A 
ATOM     35  C   UNL     1       5.058  -1.199   4.018  0.00  0.00    +0.000 A 
ATOM     36  C   UNL     1       5.260  -0.252   3.031  0.00  0.00    +0.005 A 
ENDBRANCH  25  26
ENDBRANCH  21  25
ENDBRANCH  20  21
ENDBRANCH   1  20
TORSDOF 7
