REMARK  Name = ZINC02798218
REMARK  8 active torsions:
REMARK  status: ('A' for Active; 'I' for Inactive)
REMARK    1  A    between atoms: C_1  and  C_2
REMARK    2  A    between atoms: C_2  and  N_3
REMARK    3  A    between atoms: C_4  and  C_9
REMARK    4  A    between atoms: C_5  and  N_8
REMARK    5  A    between atoms: C_22  and  C_26
REMARK    6  A    between atoms: C_26  and  C_27
REMARK    7  A    between atoms: C_26  and  C_28
REMARK    8  A    between atoms: C_26  and  C_29
REMARK                            x       y       z     vdW  Elec       q    Type
REMARK                         _______ _______ _______ _____ _____    ______ ____
ROOT
ATOM      1  C   UNL     1       1.340  -1.532  -8.172  0.00  0.00    +0.202 A 
ATOM      2  N   UNL     1       1.206  -1.267  -6.867  0.00  0.00    -0.205 NA
ATOM      3  C   UNL     1       2.392  -1.025  -6.345  0.00  0.00    +0.168 A 
ATOM      4  C   UNL     1       2.848  -0.683  -4.983  0.00  0.00    +0.055 A 
ATOM      5  C   UNL     1       2.057  -0.507  -3.768  0.00  0.00    -0.024 A 
ATOM      6  C   UNL     1       2.731  -0.192  -2.639  0.00  0.00    -0.004 A 
ATOM      7  S   UNL     1       4.432  -0.113  -3.128  0.00  0.00    -0.073 S 
ATOM      8  C   UNL     1       4.234  -0.504  -4.848  0.00  0.00    +0.114 A 
ATOM      9  N   UNL     1       5.064  -0.634  -5.875  0.00  0.00    -0.228 NA
ATOM     10  C   UNL     1       4.644  -0.937  -7.072  0.00  0.00    +0.226 A 
ATOM     11  N   UNL     1       3.325  -1.136  -7.336  0.00  0.00    -0.201 N 
ATOM     12  N   UNL     1       2.617  -1.463  -8.502  0.00  0.00    -0.142 NA
ATOM     13  C   UNL     1       2.157   0.039  -1.274  0.00  0.00    +0.046 C 
ATOM     14  C   UNL     1       0.718  -0.497  -1.257  0.00  0.00    -0.000 C 
ATOM     15  C   UNL     1      -0.016   0.015  -2.499  0.00  0.00    +0.009 C 
ATOM     16  C   UNL     1       0.539  -0.667  -3.750  0.00  0.00    +0.037 C 
ENDROOT
BRANCH   1  18
ATOM     17  N   UNL     1       0.343  -2.120 -10.435  0.00  0.00    -0.259 N 
ATOM     18  C   UNL     1       0.233  -1.851  -9.098  0.00  0.00    +0.128 A 
ATOM     19  C   UNL     1      -1.108  -1.929  -8.778  0.00  0.00    +0.074 A 
ATOM     20  C   UNL     1      -1.803  -2.256  -9.949  0.00  0.00    +0.157 A 
ATOM     21  N   UNL     1      -0.943  -2.372 -10.929  0.00  0.00    -0.177 NA
BRANCH  19  22
ATOM     22  N   UNL     1      -1.672  -1.718  -7.511  0.00  0.00    -0.355 N 
ATOM     23  H   UNL     1      -1.103  -1.494  -6.758  0.00  0.00    +0.142 HD
ATOM     24  H   UNL     1      -2.631  -1.796  -7.388  0.00  0.00    +0.142 HD
ENDBRANCH  19  22
BRANCH  17  26
ATOM     25  C   UNL     1       2.176  -3.554 -11.187  0.00  0.00    +0.029 C 
ATOM     26  C   UNL     1       1.585  -2.143 -11.212  0.00  0.00    +0.141 C 
ENDBRANCH  17  26
ENDBRANCH   1  18
BRANCH  14  27
ATOM     27  C   UNL     1       0.002  -0.004   0.002  0.00  0.00    -0.035 C 
ATOM     28  C   UNL     1      -0.019   1.526   0.010  0.00  0.00    +0.011 C 
ATOM     29  C   UNL     1       0.742  -0.511   1.242  0.00  0.00    +0.011 C 
ATOM     30  C   UNL     1      -1.433  -0.534   0.013  0.00  0.00    +0.011 C 
ENDBRANCH  14  27
TORSDOF 4
