REMARK  Name = ZINC34757835
REMARK  9 active torsions:
REMARK  status: ('A' for Active; 'I' for Inactive)
REMARK    1  A    between atoms: C_1  and  C_2
REMARK    2  A    between atoms: C_2  and  N_3
REMARK    3  A    between atoms: N_3  and  C_4
REMARK    4  A    between atoms: C_4  and  C_5
REMARK    5  A    between atoms: C_6  and  C_8
REMARK    6  A    between atoms: C_8  and  N_9
REMARK    7  A    between atoms: C_22  and  S_24
REMARK    8  A    between atoms: S_24  and  C_25
REMARK    9  A    between atoms: C_25  and  C_26
REMARK                            x       y       z     vdW  Elec       q    Type
REMARK                         _______ _______ _______ _____ _____    ______ ____
ROOT
ATOM      1  N   UNL     1      -3.312  -1.199   3.317  0.00  0.00    +0.387 N 
ATOM      2  C   UNL     1      -4.463  -1.665   4.102  0.00  0.00    -0.059 C 
ATOM      3  C   UNL     1      -4.079  -1.723   5.584  0.00  0.00    +0.088 C 
ATOM      4  N   UNL     1      -3.565  -0.404   5.984  0.00  0.00    -0.318 N 
ATOM      5  C   UNL     1      -2.520   0.214   5.154  0.00  0.00    +0.088 C 
ATOM      6  C   UNL     1      -2.978   0.180   3.692  0.00  0.00    -0.059 C 
ATOM      7  C   UNL     1      -4.052   0.238   7.109  0.00  0.00    +0.134 A 
ATOM      8  C   UNL     1      -3.393   0.095   8.361  0.00  0.00    +0.051 A 
ATOM      9  C   UNL     1      -2.184  -0.687   8.674  0.00  0.00    -0.025 A 
ATOM     10  C   UNL     1      -1.757  -0.660   9.946  0.00  0.00    -0.004 A 
ATOM     11  S   UNL     1      -2.910   0.390  10.800  0.00  0.00    -0.073 S 
ATOM     12  C   UNL     1      -3.971   0.790   9.438  0.00  0.00    +0.115 A 
ATOM     13  N   UNL     1      -5.056   1.525   9.284  0.00  0.00    -0.214 NA
ATOM     14  C   UNL     1      -5.630   1.623   8.092  0.00  0.00    +0.191 A 
ATOM     15  N   UNL     1      -5.133   0.996   7.032  0.00  0.00    -0.206 NA
ATOM     16  C   UNL     1      -0.521  -1.496  10.148  0.00  0.00    +0.043 C 
ATOM     17  C   UNL     1      -0.465  -2.411   8.905  0.00  0.00    +0.010 C 
ATOM     18  C   UNL     1      -1.232  -1.573   7.865  0.00  0.00    +0.037 C 
ATOM     19  H   UNL     1      -2.520  -1.797   3.498  0.00  0.00    -0.081 HD
ENDROOT
BRANCH   1  20
ATOM     20  C   UNL     1      -3.645  -1.249   1.887  0.00  0.00    +0.019 C 
BRANCH  20  22
ATOM     21  N   UNL     1      -4.189  -2.971   0.196  0.00  0.00    -0.304 N 
ATOM     22  C   UNL     1      -3.870  -2.680   1.473  0.00  0.00    +0.199 C 
ATOM     23  O   UNL     1      -3.763  -3.572   2.289  0.00  0.00    -0.278 OA
BRANCH  21  25
ATOM     24  C   UNL     1      -5.763  -1.393  -0.811  0.00  0.00    +0.024 C 
ATOM     25  C   UNL     1      -4.318  -1.894  -0.789  0.00  0.00    +0.104 C 
ENDBRANCH  21  25
BRANCH  21  26
ATOM     26  C   UNL     1      -4.407  -4.362  -0.206  0.00  0.00    +0.104 C 
ATOM     27  C   UNL     1      -3.082  -4.973  -0.668  0.00  0.00    +0.024 C 
ENDBRANCH  21  26
ENDBRANCH  20  22
ENDBRANCH   1  20
BRANCH  14  28
ATOM     28  S   UNL     1      -7.079   2.610   7.910  0.00  0.00    -0.077 S 
BRANCH  28  29
ATOM     29  C   UNL     1      -7.380   3.259   9.577  0.00  0.00    +0.173 C 
BRANCH  29  30
ATOM     30  C   UNL     1      -8.608   4.132   9.562  0.00  0.00    +0.226 C 
ATOM     31  O   UNL     1      -9.220   4.300   8.529  0.00  0.00    -0.275 OA
ATOM     32  N   UNL     1      -9.026   4.727  10.697  0.00  0.00    -0.301 N 
ATOM     33  C   UNL     1      -8.377   4.616  12.012  0.00  0.00    +0.108 C 
ATOM     34  C   UNL     1      -9.219   5.440  13.009  0.00  0.00    +0.020 C 
ATOM     35  C   UNL     1     -10.607   5.508  12.319  0.00  0.00    +0.020 C 
ATOM     36  C   UNL     1     -10.205   5.602  10.824  0.00  0.00    +0.108 C 
ENDBRANCH  29  30
ENDBRANCH  28  29
ENDBRANCH  14  28
TORSDOF 7
