REMARK  Name = ZINC66284474
REMARK  8 active torsions:
REMARK  status: ('A' for Active; 'I' for Inactive)
REMARK    1  A    between atoms: C_1  and  C_2
REMARK    2  A    between atoms: C_2  and  C_4
REMARK    3  A    between atoms: C_2  and  C_16
REMARK    4  A    between atoms: C_9  and  O_14
REMARK    5  A    between atoms: O_14  and  C_15
REMARK    6  A    between atoms: N_18  and  C_19
REMARK    7  A    between atoms: C_21  and  N_27
REMARK    8  A    between atoms: C_28  and  C_30
REMARK                            x       y       z     vdW  Elec       q    Type
REMARK                         _______ _______ _______ _____ _____    ______ ____
ROOT
ATOM      1  C   UNL     1       0.676  -0.492  -1.254  0.00  0.00    +0.224 C 
ATOM      2  O   UNL     1       0.094  -1.195  -2.053  0.00  0.00    -0.275 OA
ATOM      3  N   UNL     1       1.957  -0.138  -1.476  0.00  0.00    -0.283 N 
ATOM      4  H   UNL     1       2.398   0.488  -0.880  0.00  0.00    +0.155 HD
ENDROOT
BRANCH   3   5
ATOM      5  C   UNL     1       2.653  -0.673  -2.569  0.00  0.00    +0.071 A 
ATOM      6  C   UNL     1       2.269  -1.894  -3.106  0.00  0.00    +0.052 A 
ATOM      7  C   UNL     1       2.959  -2.421  -4.187  0.00  0.00    +0.071 A 
ATOM      8  C   UNL     1       4.033  -1.726  -4.732  0.00  0.00    +0.147 A 
ATOM      9  C   UNL     1       4.414  -0.509  -4.195  0.00  0.00    +0.080 A 
ATOM     10  C   UNL     1       3.724   0.021  -3.120  0.00  0.00    +0.147 A 
ATOM     11  F   UNL     1       4.095   1.212  -2.601  0.00  0.00    -0.203 F 
ATOM     12  F   UNL     1       4.705  -2.239  -5.785  0.00  0.00    -0.203 F 
BRANCH   7  13
ATOM     13  N   UNL     1       2.573  -3.654  -4.731  0.00  0.00    -0.283 N 
ATOM     14  C   UNL     1       1.916  -4.551  -3.969  0.00  0.00    +0.214 C 
ATOM     15  O   UNL     1       1.746  -4.334  -2.788  0.00  0.00    -0.276 OA
ATOM     16  C   UNL     1       1.392  -5.822  -4.584  0.00  0.00    +0.109 C 
ATOM     17  H   UNL     1       2.780  -3.862  -5.656  0.00  0.00    +0.155 HD
ENDBRANCH   7  13
ENDBRANCH   3   5
BRANCH   1  19
ATOM     18  C   UNL     1      -0.065   1.514   0.002  0.00  0.00    +0.022 C 
ATOM     19  C   UNL     1      -0.033  -0.016  -0.012  0.00  0.00    +0.102 C 
BRANCH  19  20
ATOM     20  C   UNL     1      -1.442  -0.548  -0.003  0.00  0.00    -0.035 A 
ATOM     21  C   UNL     1      -2.307  -0.219  -1.045  0.00  0.00    +0.005 A 
ATOM     22  C   UNL     1      -3.586  -0.682  -1.067  0.00  0.00    +0.009 A 
ATOM     23  C   UNL     1      -4.045  -1.507  -0.025  0.00  0.00    -0.014 A 
ATOM     24  C   UNL     1      -5.359  -2.005  -0.015  0.00  0.00    +0.054 A 
ATOM     25  C   UNL     1      -5.770  -2.803   1.014  0.00  0.00    +0.121 A 
ATOM     26  C   UNL     1      -4.900  -3.132   2.058  0.00  0.00    +0.046 A 
ATOM     27  C   UNL     1      -3.623  -2.666   2.078  0.00  0.00    +0.012 A 
ATOM     28  C   UNL     1      -3.166  -1.842   1.034  0.00  0.00    -0.017 A 
ATOM     29  C   UNL     1      -1.850  -1.348   1.020  0.00  0.00    +0.013 A 
BRANCH  25  30
ATOM     30  O   UNL     1      -7.041  -3.284   1.023  0.00  0.00    -0.495 OA
ATOM     31  C   UNL     1      -7.413  -4.114   2.125  0.00  0.00    +0.277 C 
ENDBRANCH  25  30
ENDBRANCH  19  20
ENDBRANCH   1  19
TORSDOF 5
