REMARK  Name = ZINC53244681
REMARK  5 active torsions:
REMARK  status: ('A' for Active; 'I' for Inactive)
REMARK    1  A    between atoms: C_1  and  N_2
REMARK    2  A    between atoms: C_6  and  N_9
REMARK    3  A    between atoms: N_9  and  C_10
REMARK    4  A    between atoms: C_11  and  C_13
REMARK    5  A    between atoms: C_19  and  C_21
REMARK                            x       y       z     vdW  Elec       q    Type
REMARK                         _______ _______ _______ _____ _____    ______ ____
ROOT
ATOM      1  N   UNL     1       1.413  -2.448   2.283  0.00  0.00    -0.303 N 
ATOM      2  C   UNL     1       0.909  -2.166   3.630  0.00  0.00    +0.132 C 
ATOM      3  C   UNL     1       2.550  -3.154   2.124  0.00  0.00    +0.220 C 
ATOM      4  O   UNL     1       3.023  -3.299   1.017  0.00  0.00    -0.275 OA
ENDROOT
BRANCH   1  10
ATOM      5  C   UNL     1      -0.164   1.522   0.001  0.00  0.00    -0.096 C 
ATOM      6  N   UNL     1      -0.145   0.053  -0.012  0.00  0.00    +0.379 N 
ATOM      7  C   UNL     1      -1.523  -0.453   0.016  0.00  0.00    -0.079 C 
ATOM      8  C   UNL     1      -1.511  -1.980  -0.079  0.00  0.00    -0.017 C 
ATOM      9  C   UNL     1      -0.731  -2.554   1.107  0.00  0.00    +0.019 C 
ATOM     10  C   UNL     1       0.682  -1.962   1.111  0.00  0.00    +0.059 C 
ATOM     11  C   UNL     1       0.589  -0.435   1.161  0.00  0.00    -0.057 C 
ATOM     12  H   UNL     1       0.312  -0.269  -0.852  0.00  0.00    -0.082 HD
ENDBRANCH   1  10
BRANCH   3  13
ATOM     13  C   UNL     1       3.232  -3.764   3.321  0.00  0.00    +0.093 C 
ATOM     14  C   UNL     1       4.614  -3.132   3.502  0.00  0.00    +0.040 C 
ATOM     15  C   UNL     1       5.535  -3.579   2.404  0.00  0.00    -0.030 C 
ATOM     16  C   UNL     1       5.314  -4.604   1.645  0.00  0.00    -0.030 C 
ATOM     17  C   UNL     1       4.103  -5.483   1.750  0.00  0.00    +0.042 C 
ATOM     18  C   UNL     1       3.408  -5.272   3.101  0.00  0.00    +0.118 C 
BRANCH  18  19
ATOM     19  C   UNL     1       2.059  -5.944   3.097  0.00  0.00    +0.360 C 
ATOM     20  O   UNL     1       1.883  -6.953   2.435  0.00  0.00    -0.246 OA
ATOM     21  O   UNL     1       1.144  -5.479   3.755  0.00  0.00    -0.246 OA
ENDBRANCH  18  19
ENDBRANCH   3  13
TORSDOF 3
