REMARK  Name = ZINC02895920
REMARK  10 active torsions:
REMARK  status: ('A' for Active; 'I' for Inactive)
REMARK    1  A    between atoms: C_1  and  C_2
REMARK    2  A    between atoms: C_2  and  C_3
REMARK    3  A    between atoms: C_3  and  C_4
REMARK    4  A    between atoms: C_4  and  N_57
REMARK    5  A    between atoms: C_5  and  C_6
REMARK    6  A    between atoms: C_5  and  N_57
REMARK    7  A    between atoms: C_6  and  C_8
REMARK    8  A    between atoms: C_6  and  O_30
REMARK    9  A    between atoms: C_8  and  O_9
REMARK   10  A    between atoms: O_9  and  C_10
REMARK                            x       y       z     vdW  Elec       q    Type
REMARK                         _______ _______ _______ _____ _____    ______ ____
ROOT
ATOM      1  C   UNL     1      -0.550   1.948  -3.599  0.00  0.00    +0.149 A 
ATOM      2  C   UNL     1      -1.421   1.107  -4.275  0.00  0.00    +0.061 A 
ATOM      3  C   UNL     1      -1.951   1.513  -5.491  0.00  0.00    +0.019 A 
ATOM      4  C   UNL     1      -1.622   2.725  -6.042  0.00  0.00    +0.011 A 
ATOM      5  C   UNL     1      -0.732   3.602  -5.382  0.00  0.00    +0.007 A 
ATOM      6  C   UNL     1      -0.214   3.171  -4.151  0.00  0.00    +0.065 A 
ATOM      7  S   UNL     1       0.842   4.497  -3.625  0.00  0.00    -0.065 S 
ATOM      8  C   UNL     1       0.617   5.599  -4.997  0.00  0.00    +0.117 A 
ATOM      9  C   UNL     1      -0.277   4.929  -5.839  0.00  0.00    +0.080 A 
ATOM     10  C   UNL     1      -0.634   5.614  -7.042  0.00  0.00    +0.263 A 
ATOM     11  O   UNL     1      -1.413   5.110  -7.833  0.00  0.00    -0.267 OA
ATOM     12  N   UNL     1      -0.101   6.822  -7.287  0.00  0.00    -0.296 N 
ATOM     13  C   UNL     1       0.767   7.400  -6.409  0.00  0.00    +0.114 A 
ATOM     14  N   UNL     1       1.105   6.801  -5.302  0.00  0.00    -0.226 NA
ATOM     15  C   UNL     1       1.331   8.759  -6.753  0.00  0.00    +0.074 C 
ATOM     16  C   UNL     1       2.360   8.601  -7.872  0.00  0.00    +0.008 C 
ATOM     17  C   UNL     1       1.698   8.666  -9.237  0.00  0.00    +0.002 C 
ATOM     18  C   UNL     1       0.751   7.501  -9.472  0.00  0.00    +0.022 C 
ATOM     19  C   UNL     1      -0.438   7.554  -8.515  0.00  0.00    +0.126 C 
ATOM     20 BR   UNL     1      -1.887  -0.574  -3.544  0.00  0.00    -0.046 Br
ENDROOT
BRANCH   1  21
ATOM     21  O   UNL     1      -0.025   1.570  -2.402  0.00  0.00    -0.487 OA
BRANCH  21  22
ATOM     22  C   UNL     1      -0.757   1.932  -1.230  0.00  0.00    +0.258 C 
BRANCH  22  23
ATOM     23  C   UNL     1      -0.017   1.425   0.010  0.00  0.00    +0.135 C 
BRANCH  23  24
ATOM     24  O   UNL     1       0.002  -0.004   0.002  0.00  0.00    -0.390 OA
ATOM     25  H   UNL     1      -0.876  -0.409   0.008  0.00  0.00    +0.210 HD
ENDBRANCH  23  24
BRANCH  23  26
ATOM     26  C   UNL     1      -0.733   1.918   1.269  0.00  0.00    -0.048 C 
BRANCH  26  27
ATOM     27  N   UNL     1       0.051   1.528   2.455  0.00  0.00    +0.381 N 
ATOM     28  H   UNL     1       0.139   0.505   2.482  0.00  0.00    -0.086 HD
ATOM     29  H   UNL     1       0.985   1.950   2.398  0.00  0.00    -0.086 HD
BRANCH  27  30
ATOM     30  C   UNL     1      -0.617   1.992   3.686  0.00  0.00    -0.083 C 
BRANCH  30  31
ATOM     31  C   UNL     1       0.218   1.573   4.898  0.00  0.00    -0.019 C 
BRANCH  31  33
ATOM     32  C   UNL     1       0.367   1.633   7.391  0.00  0.00    +0.004 C 
ATOM     33  C   UNL     1      -0.468   2.051   6.179  0.00  0.00    -0.005 C 
ENDBRANCH  31  33
ENDBRANCH  30  31
ENDBRANCH  27  30
ENDBRANCH  26  27
ENDBRANCH  23  26
ENDBRANCH  22  23
ENDBRANCH  21  22
ENDBRANCH   1  21
TORSDOF 9
