REMARK  Name = ZINC23668257
REMARK  11 active torsions:
REMARK  status: ('A' for Active; 'I' for Inactive)
REMARK    1  A    between atoms: C_1  and  C_2
REMARK    2  A    between atoms: C_2  and  O_3
REMARK    3  A    between atoms: O_3  and  C_4
REMARK    4  A    between atoms: C_4  and  C_6
REMARK    5  A    between atoms: C_7  and  C_19
REMARK    6  A    between atoms: C_12  and  C_14
REMARK    7  A    between atoms: C_19  and  N_20
REMARK    8  A    between atoms: N_20  and  C_21
REMARK    9  A    between atoms: N_20  and  C_22
REMARK   10  A    between atoms: C_22  and  C_24
REMARK   11  A    between atoms: C_22  and  C_25
REMARK                            x       y       z     vdW  Elec       q    Type
REMARK                         _______ _______ _______ _____ _____    ______ ____
ROOT
ATOM      1  C   UNL     1      -1.318   1.065   4.446  0.00  0.00    +0.079 C 
ATOM      2  C   UNL     1      -0.837   2.006   3.606  0.00  0.00    +0.008 C 
ATOM      3  N   UNL     1      -1.119   3.329   3.794  0.00  0.00    -0.274 N 
ATOM      4  C   UNL     1      -1.884   3.791   4.791  0.00  0.00    +0.304 C 
ATOM      5  O   UNL     1      -2.084   4.987   4.873  0.00  0.00    -0.252 OA
ATOM      6  N   UNL     1      -2.436   2.973   5.709  0.00  0.00    -0.285 N 
ATOM      7  C   UNL     1      -2.186   1.526   5.599  0.00  0.00    +0.179 C 
ATOM      8  H   UNL     1      -0.711   4.082   3.104  0.00  0.00    +0.156 HD
ATOM      9  H   UNL     1      -3.059   3.363   6.527  0.00  0.00    +0.151 HD
ENDROOT
BRANCH   7  10
ATOM     10  C   UNL     1      -1.540   1.067   6.880  0.00  0.00    +0.130 A 
ATOM     11  C   UNL     1      -1.896  -0.013   7.599  0.00  0.00    +0.047 A 
ATOM     12  C   UNL     1      -1.030  -0.067   8.715  0.00  0.00    +0.041 A 
ATOM     13  C   UNL     1      -0.196   0.983   8.612  0.00  0.00    +0.195 A 
ATOM     14  O   UNL     1      -0.505   1.663   7.495  0.00  0.00    -0.466 OA
ENDBRANCH   7  10
BRANCH   1  15
ATOM     15  C   UNL     1      -1.022  -0.306   4.256  0.00  0.00    +0.339 C 
ATOM     16  O   UNL     1      -0.422  -0.666   3.260  0.00  0.00    -0.245 OA
BRANCH  15  17
ATOM     17  O   UNL     1      -1.405  -1.213   5.178  0.00  0.00    -0.462 OA
BRANCH  17  19
ATOM     18  C   UNL     1      -1.585  -3.453   6.069  0.00  0.00    +0.048 C 
ATOM     19  C   UNL     1      -1.073  -2.579   4.922  0.00  0.00    +0.229 C 
ENDBRANCH  17  19
ENDBRANCH  15  17
ENDBRANCH   1  15
BRANCH   2  20
ATOM     20  C   UNL     1       0.031   1.591   2.446  0.00  0.00    -0.026 C 
BRANCH  20  21
ATOM     21  N   UNL     1      -0.818   1.209   1.310  0.00  0.00    +0.386 N 
ATOM     22  C   UNL     1      -1.660   2.334   0.882  0.00  0.00    -0.095 C 
ATOM     23  H   UNL     1      -1.482   0.398   1.642  0.00  0.00    -0.081 HD
BRANCH  21  24
ATOM     24  C   UNL     1      -0.009   0.703   0.194  0.00  0.00    -0.041 C 
ATOM     25  C   UNL     1       0.778  -0.527   0.652  0.00  0.00    -0.008 C 
BRANCH  24  26
ATOM     26  C   UNL     1      -0.913   0.323  -0.950  0.00  0.00    -0.058 A 
ATOM     27  C   UNL     1      -0.539   0.609  -2.250  0.00  0.00    +0.005 A 
ATOM     28  C   UNL     1      -1.366   0.261  -3.301  0.00  0.00    +0.041 A 
ATOM     29  C   UNL     1      -2.571  -0.374  -3.053  0.00  0.00    +0.158 A 
ATOM     30  C   UNL     1      -2.946  -0.661  -1.749  0.00  0.00    +0.159 A 
ATOM     31  C   UNL     1      -2.112  -0.316  -0.699  0.00  0.00    +0.043 A 
ATOM     32  F   UNL     1      -4.121  -1.280  -1.504  0.00  0.00    -0.202 F 
ATOM     33  F   UNL     1      -3.380  -0.715  -4.080  0.00  0.00    -0.202 F 
ENDBRANCH  24  26
ENDBRANCH  21  24
ENDBRANCH  20  21
ENDBRANCH   2  20
TORSDOF 8
