REMARK  Name = ZINC16426035
REMARK  10 active torsions:
REMARK  status: ('A' for Active; 'I' for Inactive)
REMARK    1  A    between atoms: C_1  and  C_2
REMARK    2  A    between atoms: C_3  and  C_18
REMARK    3  A    between atoms: C_4  and  C_10
REMARK    4  A    between atoms: C_13  and  S_16
REMARK    5  A    between atoms: S_16  and  C_17
REMARK    6  A    between atoms: N_20  and  C_21
REMARK    7  A    between atoms: C_23  and  O_29
REMARK    8  A    between atoms: C_26  and  O_27
REMARK    9  A    between atoms: O_27  and  C_28
REMARK   10  A    between atoms: O_29  and  C_30
REMARK                            x       y       z     vdW  Elec       q    Type
REMARK                         _______ _______ _______ _____ _____    ______ ____
ROOT
ATOM      1  C   UNL     1      -2.460   0.723   1.675  0.00  0.00    +0.061 C 
ATOM      2  C   UNL     1      -1.302   1.297   0.901  0.00  0.00    +0.017 C 
ATOM      3  C   UNL     1      -1.477   2.429   0.187  0.00  0.00    +0.056 C 
ATOM      4  C   UNL     1      -0.288   2.970  -0.581  0.00  0.00    +0.139 C 
ATOM      5  N   UNL     1       0.971   2.213  -0.481  0.00  0.00    -0.315 N 
ATOM      6  C   UNL     1       0.991   1.099   0.278  0.00  0.00    +0.135 C 
ATOM      7  S   UNL     1       2.448   0.209   0.404  0.00  0.00    -0.019 S 
ATOM      8  N   UNL     1      -0.091   0.667   0.936  0.00  0.00    -0.300 N 
ATOM      9  H   UNL     1       1.767   2.509  -0.950  0.00  0.00    +0.149 HD
ATOM     10  H   UNL     1      -0.012  -0.142   1.466  0.00  0.00    +0.154 HD
ENDROOT
BRANCH   4  11
ATOM     11  C   UNL     1      -0.025   4.375  -0.102  0.00  0.00    -0.023 A 
ATOM     12  C   UNL     1       0.676   4.583   1.072  0.00  0.00    +0.007 A 
ATOM     13  C   UNL     1       0.923   5.869   1.511  0.00  0.00    +0.015 A 
ATOM     14  C   UNL     1       0.456   6.953   0.778  0.00  0.00    +0.008 A 
ATOM     15  C   UNL     1      -0.253   6.740  -0.398  0.00  0.00    +0.015 A 
ATOM     16  C   UNL     1      -0.491   5.452  -0.834  0.00  0.00    +0.007 A 
BRANCH  14  17
ATOM     17  S   UNL     1       0.763   8.595   1.339  0.00  0.00    -0.129 S 
ATOM     18  C   UNL     1       1.700   8.367   2.876  0.00  0.00    +0.090 C 
ENDBRANCH  14  17
ENDBRANCH   4  11
BRANCH   3  19
ATOM     19  C   UNL     1      -2.731   3.087   0.153  0.00  0.00    +0.248 C 
ATOM     20  O   UNL     1      -3.409   3.054  -0.858  0.00  0.00    -0.270 OA
ATOM     21  N   UNL     1      -3.174   3.749   1.240  0.00  0.00    -0.279 N 
ATOM     22  H   UNL     1      -2.595   3.859   2.011  0.00  0.00    +0.155 HD
BRANCH  21  23
ATOM     23  C   UNL     1      -4.471   4.279   1.257  0.00  0.00    +0.079 A 
ATOM     24  C   UNL     1      -5.068   4.693   0.076  0.00  0.00    +0.072 A 
ATOM     25  C   UNL     1      -6.351   5.216   0.096  0.00  0.00    +0.122 A 
ATOM     26  C   UNL     1      -7.038   5.326   1.296  0.00  0.00    +0.049 A 
ATOM     27  C   UNL     1      -6.445   4.915   2.475  0.00  0.00    +0.051 A 
ATOM     28  C   UNL     1      -5.165   4.386   2.460  0.00  0.00    +0.141 A 
BRANCH  28  29
ATOM     29  O   UNL     1      -4.584   3.976   3.620  0.00  0.00    -0.493 OA
ATOM     30  C   UNL     1      -5.354   4.115   4.816  0.00  0.00    +0.277 C 
ENDBRANCH  28  29
BRANCH  25  31
ATOM     31  O   UNL     1      -6.938   5.622  -1.062  0.00  0.00    -0.495 OA
ATOM     32  C   UNL     1      -8.262   6.151  -0.968  0.00  0.00    +0.277 C 
ENDBRANCH  25  31
ENDBRANCH  21  23
ENDBRANCH   3  19
TORSDOF 6
