REMARK  Name = ZINC26921449
REMARK  14 active torsions:
REMARK  status: ('A' for Active; 'I' for Inactive)
REMARK    1  A    between atoms: C_1  and  C_2
REMARK    2  A    between atoms: C_2  and  C_3
REMARK    3  A    between atoms: C_3  and  N_4
REMARK    4  A    between atoms: N_4  and  C_5
REMARK    5  A    between atoms: N_4  and  C_16
REMARK    6  A    between atoms: C_5  and  C_6
REMARK    7  A    between atoms: N_8  and  C_9
REMARK    8  A    between atoms: C_14  and  C_15
REMARK    9  A    between atoms: C_16  and  C_17
REMARK   10  A    between atoms: N_19  and  N_20
REMARK   11  A    between atoms: C_23  and  C_27
REMARK   12  A    between atoms: C_23  and  C_28
REMARK   13  A    between atoms: C_28  and  C_29
REMARK   14  A    between atoms: C_29  and  C_30
REMARK                            x       y       z     vdW  Elec       q    Type
REMARK                         _______ _______ _______ _____ _____    ______ ____
ROOT
ATOM      1  C   UNL     1       4.271   0.917  -1.463  0.00  0.00    +0.213 C 
ATOM      2  O   UNL     1       3.659   1.270  -2.449  0.00  0.00    -0.276 OA
ATOM      3  N   UNL     1       3.666   0.153  -0.532  0.00  0.00    -0.225 N 
ATOM      4  H   UNL     1       4.222  -0.168   0.362  0.00  0.00    +0.173 HD
ENDROOT
BRANCH   3   5
ATOM      5  N   UNL     1       2.330  -0.233  -0.702  0.00  0.00    -0.137 N 
ATOM      6  C   UNL     1       1.940  -1.472  -1.062  0.00  0.00    +0.263 C 
ATOM      7  O   UNL     1       2.652  -2.426  -1.292  0.00  0.00    -0.271 OA
ATOM      8  C   UNL     1       0.426  -1.423  -1.122  0.00  0.00    +0.112 C 
ATOM      9  N   UNL     1       0.109  -0.032  -0.754  0.00  0.00    -0.284 N 
ATOM     10  C   UNL     1       1.284   0.583  -0.528  0.00  0.00    +0.326 C 
ATOM     11  O   UNL     1       1.384   1.750  -0.202  0.00  0.00    -0.251 OA
ATOM     12  C   UNL     1      -0.187  -2.399  -0.116  0.00  0.00    +0.041 C 
ATOM     13  H   UNL     1      -0.938   0.301  -0.713  0.00  0.00    +0.151 HD
BRANCH   8  14
ATOM     14  C   UNL     1      -0.067  -1.731  -2.537  0.00  0.00    +0.040 C 
BRANCH  14  15
ATOM     15  C   UNL     1      -1.568  -1.449  -2.627  0.00  0.00    +0.038 C 
BRANCH  15  16
ATOM     16  C   UNL     1      -2.054  -1.752  -4.021  0.00  0.00    -0.047 A 
ATOM     17  C   UNL     1      -2.050  -0.762  -4.985  0.00  0.00    +0.003 A 
ATOM     18  C   UNL     1      -2.491  -1.041  -6.265  0.00  0.00    +0.000 A 
ATOM     19  C   UNL     1      -2.945  -2.309  -6.578  0.00  0.00    +0.000 A 
ATOM     20  C   UNL     1      -2.954  -3.298  -5.613  0.00  0.00    +0.000 A 
ATOM     21  C   UNL     1      -2.508  -3.020  -4.334  0.00  0.00    +0.003 A 
ENDBRANCH  15  16
ENDBRANCH  14  15
ENDBRANCH   8  14
ENDBRANCH   3   5
BRANCH   1  22
ATOM     22  C   UNL     1       5.708   1.332  -1.280  0.00  0.00    +0.021 C 
BRANCH  22  23
ATOM     23  N   UNL     1       6.130   2.153  -2.423  0.00  0.00    +0.391 N 
ATOM     24  H   UNL     1       5.887   1.602  -3.343  0.00  0.00    -0.080 HD
BRANCH  23  25
ATOM     25  C   UNL     1       5.399   3.427  -2.454  0.00  0.00    -0.078 C 
BRANCH  25  27
ATOM     26  C   UNL     1       4.825   5.481  -1.151  0.00  0.00    +0.002 C 
ATOM     27  C   UNL     1       5.626   4.177  -1.140  0.00  0.00    -0.022 C 
ENDBRANCH  25  27
ENDBRANCH  23  25
BRANCH  23  28
ATOM     28  C   UNL     1       7.581   2.379  -2.401  0.00  0.00    +0.020 C 
BRANCH  28  29
ATOM     29  C   UNL     1       8.035   2.862  -3.755  0.00  0.00    +0.201 C 
ATOM     30  O   UNL     1       7.248   2.908  -4.677  0.00  0.00    -0.278 OA
ATOM     31  N   UNL     1       9.314   3.243  -3.941  0.00  0.00    -0.287 N 
ATOM     32  H   UNL     1      10.047   3.122  -3.130  0.00  0.00    +0.155 HD
BRANCH  31  33
ATOM     33  C   UNL     1       9.710   3.792  -5.165  0.00  0.00    +0.036 A 
ATOM     34  C   UNL     1       9.042   3.443  -6.333  0.00  0.00    +0.023 A 
ATOM     35  C   UNL     1       9.432   3.990  -7.539  0.00  0.00    +0.002 A 
ATOM     36  C   UNL     1      10.492   4.877  -7.587  0.00  0.00    +0.000 A 
ATOM     37  C   UNL     1      11.162   5.223  -6.428  0.00  0.00    +0.005 A 
ATOM     38  C   UNL     1      10.774   4.682  -5.218  0.00  0.00    -0.029 A 
ATOM     39  C   UNL     1      11.505   5.059  -3.955  0.00  0.00    +0.045 C 
ENDBRANCH  31  33
ENDBRANCH  28  29
ENDBRANCH  23  28
ENDBRANCH  22  23
ENDBRANCH   1  22
TORSDOF 11
