REMARK  Name = ZINC22387812
REMARK  9 active torsions:
REMARK  status: ('A' for Active; 'I' for Inactive)
REMARK    1  A    between atoms: C_1  and  C_2
REMARK    2  A    between atoms: C_3  and  N_15
REMARK    3  A    between atoms: N_6  and  C_9
REMARK    4  A    between atoms: N_7  and  C_8
REMARK    5  A    between atoms: C_16  and  C_18
REMARK    6  A    between atoms: C_18  and  N_19
REMARK    7  A    between atoms: N_19  and  C_20
REMARK    8  A    between atoms: N_19  and  S_27
REMARK    9  A    between atoms: S_27  and  C_30
REMARK                            x       y       z     vdW  Elec       q    Type
REMARK                         _______ _______ _______ _____ _____    ______ ____
ROOT
ATOM      1  C   UNL     1       2.704  -3.398  -3.489  0.00  0.00    +0.227 C 
ENDROOT
BRANCH   1   3
ATOM      2  N   UNL     1       4.465  -4.930  -2.669  0.00  0.00    -0.278 N 
ATOM      3  C   UNL     1       3.151  -4.657  -2.791  0.00  0.00    +0.237 C 
ATOM      4  O   UNL     1       2.327  -5.426  -2.340  0.00  0.00    -0.274 OA
ATOM      5  H   UNL     1       5.212  -4.198  -3.007  0.00  0.00    +0.155 HD
BRANCH   2   8
ATOM      6  C   UNL     1       6.329  -5.196  -0.246  0.00  0.00    +0.067 C 
ATOM      7  C   UNL     1       5.700  -6.310  -1.042  0.00  0.00    +0.059 A 
ATOM      8  C   UNL     1       4.881  -6.154  -2.107  0.00  0.00    +0.121 A 
ATOM      9  C   UNL     1       4.513  -7.492  -2.571  0.00  0.00    +0.293 A 
ATOM     10  O   UNL     1       3.789  -7.759  -3.513  0.00  0.00    -0.264 OA
ATOM     11  N   UNL     1       5.128  -8.373  -1.755  0.00  0.00    -0.216 N 
ATOM     12  N   UNL     1       5.860  -7.649  -0.807  0.00  0.00    -0.282 N 
ATOM     13  C   UNL     1       6.673  -8.232   0.264  0.00  0.00    +0.171 C 
BRANCH  11  14
ATOM     14  C   UNL     1       5.047  -9.766  -1.842  0.00  0.00    +0.067 A 
ATOM     15  C   UNL     1       6.205 -10.533  -1.815  0.00  0.00    +0.028 A 
ATOM     16  C   UNL     1       6.122 -11.910  -1.896  0.00  0.00    +0.002 A 
ATOM     17  C   UNL     1       4.888 -12.524  -2.014  0.00  0.00    +0.000 A 
ATOM     18  C   UNL     1       3.734 -11.762  -2.046  0.00  0.00    +0.002 A 
ATOM     19  C   UNL     1       3.810 -10.386  -1.960  0.00  0.00    +0.028 A 
ENDBRANCH  11  14
ENDBRANCH   2   8
ENDBRANCH   1   3
BRANCH   1  20
ATOM     20  N   UNL     1       1.241  -3.334  -3.490  0.00  0.00    -0.194 N 
BRANCH  20  21
ATOM     21  C   UNL     1       0.513  -3.986  -4.491  0.00  0.00    +0.052 A 
ATOM     22  C   UNL     1       0.683  -3.626  -5.821  0.00  0.00    +0.027 A 
ATOM     23  C   UNL     1      -0.033  -4.275  -6.808  0.00  0.00    +0.040 A 
ATOM     24  C   UNL     1      -0.927  -5.277  -6.471  0.00  0.00    +0.124 A 
ATOM     25  C   UNL     1      -1.102  -5.634  -5.145  0.00  0.00    +0.040 A 
ATOM     26  C   UNL     1      -0.384  -4.991  -4.155  0.00  0.00    +0.027 A 
ATOM     27  F   UNL     1      -1.630  -5.907  -7.438  0.00  0.00    -0.205 F 
ENDBRANCH  20  21
BRANCH  20  28
ATOM     28  S   UNL     1       0.448  -2.489  -2.308  0.00  0.00    +0.075 S 
ATOM     29  O   UNL     1       1.285  -2.513  -1.160  0.00  0.00    -0.150 OA
ATOM     30  O   UNL     1      -0.888  -2.975  -2.287  0.00  0.00    -0.150 OA
BRANCH  28  31
ATOM     31  C   UNL     1       0.364  -0.809  -2.834  0.00  0.00    +0.109 A 
ATOM     32  C   UNL     1      -0.713  -0.373  -3.583  0.00  0.00    +0.031 A 
ATOM     33  C   UNL     1      -0.780   0.944  -3.997  0.00  0.00    +0.040 A 
ATOM     34  C   UNL     1       0.233   1.826  -3.662  0.00  0.00    +0.124 A 
ATOM     35  C   UNL     1       1.312   1.388  -2.912  0.00  0.00    +0.040 A 
ATOM     36  C   UNL     1       1.376   0.071  -2.499  0.00  0.00    +0.031 A 
ATOM     37  F   UNL     1       0.170   3.114  -4.066  0.00  0.00    -0.205 F 
ENDBRANCH  28  31
ENDBRANCH  20  28
ENDBRANCH   1  20
TORSDOF 7
