REMARK  Name = ZINC02624986
REMARK  12 active torsions:
REMARK  status: ('A' for Active; 'I' for Inactive)
REMARK    1  A    between atoms: C_1  and  C_2
REMARK    2  A    between atoms: C_5  and  S_8
REMARK    3  A    between atoms: S_8  and  N_11
REMARK    4  A    between atoms: N_11  and  C_12
REMARK    5  A    between atoms: C_12  and  C_14
REMARK    6  A    between atoms: C_12  and  C_18
REMARK    7  A    between atoms: C_14  and  C_15
REMARK    8  A    between atoms: C_15  and  C_16
REMARK    9  A    between atoms: C_15  and  C_17
REMARK   10  A    between atoms: N_20  and  C_21
REMARK   11  A    between atoms: C_26  and  O_27
REMARK   12  A    between atoms: O_27  and  C_28
REMARK                            x       y       z     vdW  Elec       q    Type
REMARK                         _______ _______ _______ _____ _____    ______ ____
ROOT
ATOM      1  C   UNL     1       2.034   0.608  -0.784  0.00  0.00    +0.236 C 
ATOM      2  O   UNL     1       1.581  -0.409  -1.266  0.00  0.00    -0.274 OA
ATOM      3  N   UNL     1       3.368   0.796  -0.741  0.00  0.00    -0.281 N 
ATOM      4  H   UNL     1       3.733   1.582  -0.304  0.00  0.00    +0.155 HD
ENDROOT
BRANCH   3   5
ATOM      5  C   UNL     1       4.227  -0.141  -1.328  0.00  0.00    +0.079 A 
ATOM      6  C   UNL     1       3.844  -1.469  -1.409  0.00  0.00    +0.074 A 
ATOM      7  C   UNL     1       4.689  -2.403  -1.995  0.00  0.00    +0.138 A 
ATOM      8  C   UNL     1       5.932  -1.988  -2.491  0.00  0.00    +0.031 A 
ATOM      9  C   UNL     1       6.316  -0.653  -2.403  0.00  0.00    +0.059 A 
ATOM     10  C   UNL     1       5.466   0.269  -1.823  0.00  0.00    +0.142 A 
ATOM     11  C   UNL     1       6.573  -3.203  -3.031  0.00  0.00    +0.028 A 
ATOM     12  C   UNL     1       7.792  -3.458  -3.650  0.00  0.00    +0.012 A 
ATOM     13  C   UNL     1       8.100  -4.741  -4.050  0.00  0.00    +0.001 A 
ATOM     14  C   UNL     1       7.199  -5.772  -3.835  0.00  0.00    +0.004 A 
ATOM     15  C   UNL     1       5.988  -5.530  -3.223  0.00  0.00    +0.047 A 
ATOM     16  C   UNL     1       5.659  -4.243  -2.813  0.00  0.00    +0.136 A 
ATOM     17  O   UNL     1       4.566  -3.734  -2.203  0.00  0.00    -0.455 OA
BRANCH  10  18
ATOM     18  O   UNL     1       5.837   1.575  -1.735  0.00  0.00    -0.493 OA
ATOM     19  C   UNL     1       7.119   1.923  -2.262  0.00  0.00    +0.277 C 
ENDBRANCH  10  18
ENDBRANCH   3   5
BRANCH   1  20
ATOM     20  C   UNL     1       1.107   1.659  -0.232  0.00  0.00    +0.163 C 
BRANCH  20  21
ATOM     21  N   UNL     1      -0.261   1.388  -0.682  0.00  0.00    -0.178 NA
ATOM     22  H   UNL     1      -0.569   0.473  -0.774  0.00  0.00    +0.149 HD
BRANCH  21  23
ATOM     23  S   UNL     1      -1.280   2.644  -1.038  0.00  0.00    +0.059 S 
ATOM     24  O   UNL     1      -2.504   2.065  -1.467  0.00  0.00    -0.153 OA
ATOM     25  O   UNL     1      -1.206   3.550   0.054  0.00  0.00    -0.153 OA
BRANCH  23  30
ATOM     26  C   UNL     1       1.032   5.515  -5.815  0.00  0.00    +0.044 C 
ATOM     27  C   UNL     1       0.455   4.798  -4.622  0.00  0.00    -0.050 A 
ATOM     28  C   UNL     1      -0.434   3.755  -4.806  0.00  0.00    +0.005 A 
ATOM     29  C   UNL     1      -0.963   3.097  -3.712  0.00  0.00    +0.029 A 
ATOM     30  C   UNL     1      -0.604   3.482  -2.433  0.00  0.00    +0.105 A 
ATOM     31  C   UNL     1       0.280   4.529  -2.250  0.00  0.00    +0.029 A 
ATOM     32  C   UNL     1       0.814   5.183  -3.344  0.00  0.00    +0.005 A 
ENDBRANCH  23  30
ENDBRANCH  21  23
ENDBRANCH  20  21
BRANCH  20  33
ATOM     33  C   UNL     1       1.156   1.631   1.297  0.00  0.00    +0.032 C 
BRANCH  33  34
ATOM     34  C   UNL     1       2.545   2.064   1.771  0.00  0.00    -0.015 C 
ATOM     35  C   UNL     1       2.770   3.534   1.413  0.00  0.00    +0.007 C 
ATOM     36  C   UNL     1       2.645   1.887   3.287  0.00  0.00    +0.007 C 
ENDBRANCH  33  34
ENDBRANCH  20  33
ENDBRANCH   1  20
TORSDOF 8
