REMARK  Name = ZINC20850601
REMARK  12 active torsions:
REMARK  status: ('A' for Active; 'I' for Inactive)
REMARK    1  A    between atoms: C_1  and  C_2
REMARK    2  A    between atoms: C_5  and  C_37
REMARK    3  A    between atoms: C_6  and  C_8
REMARK    4  A    between atoms: C_8  and  S_9
REMARK    5  A    between atoms: S_9  and  C_10
REMARK    6  A    between atoms: C_15  and  C_27
REMARK    7  A    between atoms: C_21  and  C_25
REMARK    8  A    between atoms: C_21  and  C_26
REMARK    9  A    between atoms: C_30  and  O_35
REMARK   10  A    between atoms: C_31  and  O_33
REMARK   11  A    between atoms: O_33  and  C_34
REMARK   12  A    between atoms: O_35  and  C_36
REMARK                            x       y       z     vdW  Elec       q    Type
REMARK                         _______ _______ _______ _____ _____    ______ ____
ROOT
ATOM      1  C   UNL     1       0.002  -0.004   0.002  0.00  0.00    +0.211 A 
ATOM      2  N   UNL     1       1.104  -0.768  -0.018  0.00  0.00    -0.187 NA
ATOM      3  C   UNL     1       0.762  -2.027  -0.018  0.00  0.00    +0.219 A 
ATOM      4  N   UNL     1      -0.592  -2.096  -0.002  0.00  0.00    -0.220 N 
ATOM      5  N   UNL     1      -1.059  -0.783   0.008  0.00  0.00    -0.141 NA
ATOM      6  C   UNL     1      -1.331  -3.353   0.006  0.00  0.00    +0.176 C 
ATOM      7  C   UNL     1      -0.408  -4.498  -0.347  0.00  0.00    +0.041 C 
ATOM      8  C   UNL     1       0.935  -4.363  -0.351  0.00  0.00    +0.020 C 
ATOM      9  N   UNL     1       1.544  -3.171  -0.040  0.00  0.00    -0.287 N 
ATOM     10  C   UNL     1       1.831  -5.525  -0.708  0.00  0.00    +0.058 C 
ATOM     11  C   UNL     1       1.164  -6.837  -0.289  0.00  0.00    -0.023 C 
ATOM     12  C   UNL     1      -0.187  -6.940  -1.005  0.00  0.00    +0.086 C 
ATOM     13  C   UNL     1      -1.010  -5.728  -0.670  0.00  0.00    +0.164 C 
ATOM     14  O   UNL     1      -2.223  -5.812  -0.679  0.00  0.00    -0.292 OA
ATOM     15  C   UNL     1       0.947  -6.845   1.225  0.00  0.00    +0.011 C 
ATOM     16  C   UNL     1       2.051  -8.018  -0.689  0.00  0.00    +0.011 C 
ATOM     17  H   UNL     1       2.618  -3.107   0.187  0.00  0.00    +0.155 HD
ENDROOT
BRANCH   6  18
ATOM     18  C   UNL     1      -1.911  -3.582   1.378  0.00  0.00    -0.015 A 
ATOM     19  C   UNL     1      -1.073  -3.683   2.473  0.00  0.00    +0.010 A 
ATOM     20  C   UNL     1      -1.601  -3.888   3.735  0.00  0.00    +0.050 A 
ATOM     21  C   UNL     1      -2.971  -4.005   3.902  0.00  0.00    +0.162 A 
ATOM     22  C   UNL     1      -3.814  -3.909   2.799  0.00  0.00    +0.162 A 
ATOM     23  C   UNL     1      -3.279  -3.698   1.538  0.00  0.00    +0.055 A 
BRANCH  22  24
ATOM     24  O   UNL     1      -5.160  -4.023   2.957  0.00  0.00    -0.491 OA
ATOM     25  C   UNL     1      -5.964  -3.915   1.781  0.00  0.00    +0.277 C 
ENDBRANCH  22  24
BRANCH  21  26
ATOM     26  O   UNL     1      -3.492  -4.213   5.141  0.00  0.00    -0.491 OA
ATOM     27  C   UNL     1      -2.567  -4.300   6.226  0.00  0.00    +0.277 C 
ENDBRANCH  21  26
ENDBRANCH   6  18
BRANCH   1  28
ATOM     28  S   UNL     1      -0.022   1.758   0.012  0.00  0.00    -0.080 S 
BRANCH  28  29
ATOM     29  C   UNL     1       1.732   2.220  -0.003  0.00  0.00    +0.112 C 
BRANCH  29  35
ATOM     30  C   UNL     1       2.064   6.553  -2.485  0.00  0.00    +0.044 C 
ATOM     31  C   UNL     1       2.015   5.795  -1.183  0.00  0.00    -0.050 A 
ATOM     32  C   UNL     1       2.082   6.478   0.017  0.00  0.00    +0.003 A 
ATOM     33  C   UNL     1       2.037   5.783   1.211  0.00  0.00    +0.004 A 
ATOM     34  C   UNL     1       1.923   4.405   1.204  0.00  0.00    -0.046 A 
ATOM     35  C   UNL     1       1.855   3.722   0.004  0.00  0.00    -0.034 A 
ATOM     36  C   UNL     1       1.906   4.417  -1.190  0.00  0.00    +0.008 A 
ATOM     37  C   UNL     1       1.874   3.647   2.506  0.00  0.00    +0.044 C 
ENDBRANCH  29  35
ENDBRANCH  28  29
ENDBRANCH   1  28
TORSDOF 6
