REMARK  Name = ZINC02445677
REMARK  8 active torsions:
REMARK  status: ('A' for Active; 'I' for Inactive)
REMARK    1  A    between atoms: C_1  and  C_2
REMARK    2  A    between atoms: C_2  and  C_3
REMARK    3  A    between atoms: C_8  and  N_9
REMARK    4  A    between atoms: C_10  and  C_12
REMARK    5  A    between atoms: C_12  and  S_13
REMARK    6  A    between atoms: S_13  and  C_14
REMARK    7  A    between atoms: C_17  and  C_20
REMARK    8  A    between atoms: N_18  and  N_19
REMARK                            x       y       z     vdW  Elec       q    Type
REMARK                         _______ _______ _______ _____ _____    ______ ____
ROOT
ATOM      1  C   UNL     1       1.560   2.260  -0.102  0.00  0.00    +0.209 A 
ATOM      2  N   UNL     1       2.525   1.381   0.046  0.00  0.00    -0.121 NA
ATOM      3  N   UNL     1       3.662   1.979   0.097  0.00  0.00    -0.127 NA
ATOM      4  C   UNL     1       3.491   3.276  -0.008  0.00  0.00    +0.182 A 
ATOM      5  N   UNL     1       2.139   3.496  -0.138  0.00  0.00    -0.224 N 
ENDROOT
BRANCH   4   6
ATOM      6  C   UNL     1       4.551   4.306   0.012  0.00  0.00    +0.021 A 
ATOM      7  C   UNL     1       5.884   3.944  -0.191  0.00  0.00    +0.014 A 
ATOM      8  C   UNL     1       6.869   4.909  -0.175  0.00  0.00    +0.039 A 
ATOM      9  C   UNL     1       6.538   6.236   0.051  0.00  0.00    +0.123 A 
ATOM     10  C   UNL     1       5.217   6.601   0.257  0.00  0.00    +0.039 A 
ATOM     11  C   UNL     1       4.224   5.644   0.240  0.00  0.00    +0.014 A 
ATOM     12  F   UNL     1       7.507   7.177   0.069  0.00  0.00    -0.205 F 
ENDBRANCH   4   6
BRANCH   5  13
ATOM     13  N   UNL     1       1.509   4.700  -0.276  0.00  0.00    -0.295 N 
ATOM     14  H   UNL     1       1.345   5.127   0.624  0.00  0.00    +0.163 HD
ATOM     15  H   UNL     1       2.033   5.316  -0.878  0.00  0.00    +0.163 HD
ENDBRANCH   5  13
BRANCH   1  16
ATOM     16  S   UNL     1      -0.163   1.909  -0.224  0.00  0.00    -0.075 S 
BRANCH  16  17
ATOM     17  C   UNL     1      -0.126   0.104  -0.097  0.00  0.00    +0.173 C 
BRANCH  17  19
ATOM     18  N   UNL     1      -1.750  -1.762  -0.106  0.00  0.00    -0.285 N 
ATOM     19  C   UNL     1      -1.531  -0.434  -0.179  0.00  0.00    +0.227 C 
ATOM     20  O   UNL     1      -2.466   0.328  -0.311  0.00  0.00    -0.275 OA
ATOM     21  H   UNL     1      -1.000  -2.376  -0.080  0.00  0.00    +0.155 HD
BRANCH  18  27
ATOM     22  C   UNL     1      -3.328  -3.549  -0.491  0.00  0.00    -0.026 A 
ATOM     23  C   UNL     1      -4.621  -4.033  -0.452  0.00  0.00    +0.005 A 
ATOM     24  C   UNL     1      -5.647  -3.229   0.008  0.00  0.00    +0.000 A 
ATOM     25  C   UNL     1      -5.383  -1.938   0.430  0.00  0.00    +0.002 A 
ATOM     26  C   UNL     1      -4.091  -1.451   0.398  0.00  0.00    +0.023 A 
ATOM     27  C   UNL     1      -3.059  -2.254  -0.068  0.00  0.00    +0.037 A 
BRANCH  22  29
ATOM     28  C   UNL     1      -1.529  -5.112   0.196  0.00  0.00    +0.009 C 
ATOM     29  C   UNL     1      -2.209  -4.427  -0.991  0.00  0.00    +0.033 C 
ENDBRANCH  22  29
ENDBRANCH  18  27
ENDBRANCH  17  19
ENDBRANCH  16  17
ENDBRANCH   1  16
TORSDOF 7
