REMARK  Name = ZINC18276108
REMARK  6 active torsions:
REMARK  status: ('A' for Active; 'I' for Inactive)
REMARK    1  A    between atoms: C_11  and  C_19
REMARK    2  A    between atoms: C_13  and  C_17
REMARK    3  A    between atoms: C_14  and  N_16
REMARK    4  A    between atoms: C_25  and  N_36
REMARK    5  A    between atoms: C_26  and  C_34
REMARK    6  A    between atoms: C_27  and  C_29
REMARK                            x       y       z     vdW  Elec       q    Type
REMARK                         _______ _______ _______ _____ _____    ______ ____
ROOT
ATOM      1  C   UNL     1      -0.016   1.357   0.009  0.00  0.00    +0.001 A 
ATOM      2  C   UNL     1       1.168   2.091   0.002  0.00  0.00    +0.001 A 
ATOM      3  C   UNL     1       2.379   1.468  -0.013  0.00  0.00    +0.009 A 
ATOM      4  C   UNL     1       2.437   0.064  -0.020  0.00  0.00    -0.010 A 
ATOM      5  C   UNL     1       1.233  -0.682  -0.013  0.00  0.00    -0.010 A 
ATOM      6  C   UNL     1       0.002  -0.004   0.002  0.00  0.00    +0.009 A 
ATOM      7  C   UNL     1       1.289  -2.088  -0.020  0.00  0.00    +0.019 A 
ATOM      8  C   UNL     1       2.497  -2.716  -0.033  0.00  0.00    +0.177 A 
ATOM      9  C   UNL     1       3.696  -1.972  -0.041  0.00  0.00    +0.177 A 
ATOM     10  C   UNL     1       3.671  -0.611  -0.035  0.00  0.00    +0.019 A 
ATOM     11  C   UNL     1       4.949   0.186  -0.045  0.00  0.00    +0.099 C 
ATOM     12  C   UNL     1       6.107  -0.682   0.360  0.00  0.00    +0.098 C 
ATOM     13  C   UNL     1       6.005  -2.034   0.334  0.00  0.00    +0.199 C 
ATOM     14  O   UNL     1       4.874  -2.647  -0.053  0.00  0.00    -0.437 OA
ATOM     15  O   UNL     1       2.576  -4.071  -0.040  0.00  0.00    -0.437 OA
ATOM     16  C   UNL     1       1.527  -4.809   0.359  0.00  0.00    +0.199 C 
ATOM     17  C   UNL     1       0.272  -4.298   0.394  0.00  0.00    +0.098 C 
ATOM     18  C   UNL     1       0.006  -2.876  -0.014  0.00  0.00    +0.099 C 
ENDROOT
BRANCH  11  19
ATOM     19  C   UNL     1       5.192   0.722  -1.432  0.00  0.00    -0.028 A 
ATOM     20  C   UNL     1       5.281   2.084  -1.652  0.00  0.00    +0.012 A 
ATOM     21  C   UNL     1       5.500   2.533  -2.912  0.00  0.00    +0.045 A 
ATOM     22  S   UNL     1       5.588   1.009  -3.837  0.00  0.00    -0.105 S 
ATOM     23  C   UNL     1       5.331  -0.124  -2.482  0.00  0.00    +0.049 A 
ENDBRANCH  11  19
BRANCH  18  24
ATOM     24  C   UNL     1      -0.598  -2.858  -1.395  0.00  0.00    -0.028 A 
ATOM     25  C   UNL     1      -1.855  -2.323  -1.603  0.00  0.00    +0.012 A 
ATOM     26  C   UNL     1      -2.370  -2.322  -2.857  0.00  0.00    +0.045 A 
ATOM     27  S   UNL     1      -1.060  -3.093  -3.794  0.00  0.00    -0.105 S 
ATOM     28  C   UNL     1       0.086  -3.360  -2.452  0.00  0.00    +0.049 A 
ENDBRANCH  18  24
BRANCH  13  29
ATOM     29  N   UNL     1       7.084  -2.793   0.711  0.00  0.00    -0.328 N 
ATOM     30  H   UNL     1       7.907  -2.362   0.992  0.00  0.00    +0.145 HD
ATOM     31  H   UNL     1       7.024  -3.762   0.697  0.00  0.00    +0.145 HD
ENDBRANCH  13  29
BRANCH  16  32
ATOM     32  N   UNL     1       1.731  -6.112   0.739  0.00  0.00    -0.328 N 
ATOM     33  H   UNL     1       2.624  -6.489   0.719  0.00  0.00    +0.145 HD
ATOM     34  H   UNL     1       0.981  -6.655   1.029  0.00  0.00    +0.145 HD
ENDBRANCH  16  32
BRANCH  12  35
ATOM     35  C   UNL     1       7.333  -0.074   0.779  0.00  0.00    +0.101 C 
ATOM     36  N   UNL     1       8.307   0.409   1.111  0.00  0.00    -0.191 NA
ENDBRANCH  12  35
BRANCH  17  37
ATOM     37  C   UNL     1      -0.815  -5.125   0.824  0.00  0.00    +0.101 C 
ATOM     38  N   UNL     1      -1.677  -5.781   1.166  0.00  0.00    -0.191 NA
ENDBRANCH  17  37
TORSDOF 6
