REMARK  Name = ZINC00755667
REMARK  3 active torsions:
REMARK  status: ('A' for Active; 'I' for Inactive)
REMARK    1  A    between atoms: C_4  and  C_7
REMARK    2  A    between atoms: C_9  and  C_18
REMARK    3  A    between atoms: N_10  and  C_12
REMARK                            x       y       z     vdW  Elec       q    Type
REMARK                         _______ _______ _______ _____ _____    ______ ____
ROOT
ATOM      1  C   UNL     1      -0.127   9.243  -0.075  0.00  0.00    +0.094 A 
ATOM      2  C   UNL     1       0.809   8.270   0.309  0.00  0.00    +0.061 A 
ATOM      3  C   UNL     1       0.173   7.060   0.317  0.00  0.00    +0.110 A 
ATOM      4  N   UNL     1      -1.129   7.278  -0.044  0.00  0.00    -0.229 N 
ATOM      5  N   UNL     1      -1.285   8.649  -0.282  0.00  0.00    -0.166 NA
ENDROOT
BRANCH   3   6
ATOM      6  C   UNL     1       0.777   5.760   0.657  0.00  0.00    +0.158 A 
ATOM      7  N   UNL     1       2.110   5.542   0.898  0.00  0.00    -0.336 N 
ATOM      8  H   UNL     1       2.822   6.379   0.842  0.00  0.00    +0.167 HD
ATOM      9  C   UNL     1       2.258   4.216   1.175  0.00  0.00    +0.084 A 
ATOM     10  C   UNL     1       3.392   3.348   1.512  0.00  0.00    +0.043 A 
ATOM     11  C   UNL     1       4.686   3.865   1.605  0.00  0.00    +0.013 A 
ATOM     12  C   UNL     1       5.735   3.030   1.922  0.00  0.00    +0.001 A 
ATOM     13  C   UNL     1       5.510   1.681   2.149  0.00  0.00    +0.004 A 
ATOM     14  C   UNL     1       4.237   1.158   2.060  0.00  0.00    +0.047 A 
ATOM     15  C   UNL     1       3.164   1.982   1.741  0.00  0.00    +0.141 A 
ATOM     16  O   UNL     1       1.919   1.464   1.656  0.00  0.00    -0.421 OA
ATOM     17  C   UNL     1       0.846   2.211   1.352  0.00  0.00    +0.365 A 
ATOM     18  O   UNL     1      -0.253   1.691   1.289  0.00  0.00    -0.243 OA
ATOM     19  C   UNL     1       0.986   3.645   1.096  0.00  0.00    +0.174 A 
ATOM     20  N   UNL     1       0.123   4.626   0.779  0.00  0.00    -0.219 NA
ENDBRANCH   3   6
BRANCH   1  24
ATOM     21  C   UNL     1       0.639  13.407  -0.479  0.00  0.00    +0.000 A 
ATOM     22  C   UNL     1      -0.628  12.912  -0.729  0.00  0.00    +0.001 A 
ATOM     23  C   UNL     1      -0.883  11.562  -0.600  0.00  0.00    +0.010 A 
ATOM     24  C   UNL     1       0.140  10.696  -0.216  0.00  0.00    +0.002 A 
ATOM     25  C   UNL     1       1.413  11.201   0.040  0.00  0.00    +0.010 A 
ATOM     26  C   UNL     1       1.658  12.553  -0.098  0.00  0.00    +0.001 A 
ENDBRANCH   1  24
BRANCH   4  27
ATOM     27  C   UNL     1      -2.128   6.303  -0.155  0.00  0.00    +0.066 A 
ATOM     28  C   UNL     1      -1.859   5.102  -0.798  0.00  0.00    +0.028 A 
ATOM     29  C   UNL     1      -2.846   4.140  -0.901  0.00  0.00    +0.002 A 
ATOM     30  C   UNL     1      -4.103   4.378  -0.376  0.00  0.00    +0.000 A 
ATOM     31  C   UNL     1      -4.375   5.575   0.260  0.00  0.00    +0.002 A 
ATOM     32  C   UNL     1      -3.392   6.539   0.371  0.00  0.00    +0.028 A 
ENDBRANCH   4  27
TORSDOF 3
