REMARK  Name = ZINC09041374
REMARK  9 active torsions:
REMARK  status: ('A' for Active; 'I' for Inactive)
REMARK    1  A    between atoms: C_1  and  C_2
REMARK    2  A    between atoms: C_9  and  O_20
REMARK    3  A    between atoms: C_12  and  C_14
REMARK    4  A    between atoms: C_23  and  O_41
REMARK    5  A    between atoms: C_24  and  C_31
REMARK    6  A    between atoms: C_27  and  O_30
REMARK    7  A    between atoms: C_32  and  C_33
REMARK    8  A    between atoms: C_32  and  N_78
REMARK    9  A    between atoms: C_33  and  C_34
REMARK                            x       y       z     vdW  Elec       q    Type
REMARK                         _______ _______ _______ _____ _____    ______ ____
ROOT
ATOM      1  C   UNL     1       1.272  -0.228  -1.579  0.00  0.00    +0.014 C 
ATOM      2  C   UNL     1       1.717  -0.530  -0.143  0.00  0.00    +0.004 C 
ATOM      3  C   UNL     1       0.668  -0.020   0.817  0.00  0.00    +0.010 C 
ATOM      4  C   UNL     1       0.537   1.502   0.593  0.00  0.00    +0.005 C 
ATOM      5  C   UNL     1       1.856   2.213   0.830  0.00  0.00    +0.009 C 
ATOM      6  C   UNL     1       3.042   1.627   0.084  0.00  0.00    +0.025 C 
ATOM      7  C   UNL     1       3.063   0.125   0.221  0.00  0.00    +0.075 C 
ATOM      8  C   UNL     1       4.034  -0.652  -0.681  0.00  0.00    +0.036 C 
ATOM      9  C   UNL     1       3.549  -2.117  -0.473  0.00  0.00    +0.011 C 
ATOM     10  C   UNL     1       2.046  -2.027  -0.103  0.00  0.00    +0.027 C 
ATOM     11  C   UNL     1       3.277   2.124  -1.324  0.00  0.00    +0.009 C 
ATOM     12  C   UNL     1       2.573   3.461  -1.584  0.00  0.00    +0.036 C 
ATOM     13  C   UNL     1       2.706   4.283  -0.309  0.00  0.00    +0.079 C 
ATOM     14  C   UNL     1       1.754   3.724   0.748  0.00  0.00    +0.036 C 
ATOM     15  C   UNL     1       2.106   4.393   2.080  0.00  0.00    +0.018 C 
ATOM     16  C   UNL     1       1.920   5.906   1.960  0.00  0.00    +0.032 C 
ATOM     17  C   UNL     1       2.709   6.502   0.801  0.00  0.00    +0.117 C 
ATOM     18  C   UNL     1       2.443   5.768  -0.516  0.00  0.00    +0.067 C 
ENDROOT
BRANCH  10  19
ATOM     19  C   UNL     1       1.780  -2.635   1.250  0.00  0.00    -0.022 C 
ATOM     20  C   UNL     1       0.931  -3.623   1.520  0.00  0.00    +0.094 C 
ATOM     21  C   UNL     1       0.970  -3.922   2.954  0.00  0.00    +0.332 C 
ATOM     22  O   UNL     1       0.308  -4.779   3.506  0.00  0.00    -0.246 OA
ATOM     23  O   UNL     1       1.843  -3.104   3.571  0.00  0.00    -0.457 OA
ATOM     24  C   UNL     1       2.420  -2.233   2.558  0.00  0.00    +0.264 C 
ENDBRANCH  10  19
BRANCH  14  25
ATOM     25  C   UNL     1       0.337   4.108   0.399  0.00  0.00    +0.060 C 
ATOM     26  N   UNL     1      -0.375   4.696   1.334  0.00  0.00    -0.393 N 
ATOM     27  H   UNL     1       0.038   4.877   2.256  0.00  0.00    +0.159 HD
BRANCH  26  28
ATOM     28  C   UNL     1      -1.794   5.105   1.052  0.00  0.00    +0.116 C 
BRANCH  28  29
ATOM     29  C   UNL     1      -2.721   4.298   1.962  0.00  0.00    +0.056 C 
BRANCH  29  30
ATOM     30  C   UNL     1      -4.147   4.729   1.736  0.00  0.00    -0.046 A 
ATOM     31  C   UNL     1      -4.688   5.753   2.490  0.00  0.00    +0.006 A 
ATOM     32  C   UNL     1      -5.994   6.152   2.280  0.00  0.00    +0.038 A 
ATOM     33  C   UNL     1      -6.765   5.519   1.320  0.00  0.00    +0.123 A 
ATOM     34  C   UNL     1      -6.224   4.489   0.568  0.00  0.00    +0.038 A 
ATOM     35  C   UNL     1      -4.916   4.095   0.777  0.00  0.00    +0.006 A 
ATOM     36  F   UNL     1      -8.043   5.905   1.117  0.00  0.00    -0.205 F 
ENDBRANCH  29  30
ENDBRANCH  28  29
ENDBRANCH  26  28
ENDBRANCH  14  25
BRANCH   7  37
ATOM     37  O   UNL     1       3.399  -0.186   1.595  0.00  0.00    -0.388 OA
ATOM     38  H   UNL     1       4.237   0.195   1.892  0.00  0.00    +0.210 HD
ENDBRANCH   7  37
BRANCH  17  39
ATOM     39  O   UNL     1       2.344   7.879   0.646  0.00  0.00    -0.392 OA
ATOM     40  H   UNL     1       2.520   8.423   1.426  0.00  0.00    +0.210 HD
ENDBRANCH  17  39
BRANCH  13  41
ATOM     41  O   UNL     1       4.056   4.151   0.169  0.00  0.00    -0.388 OA
ATOM     42  H   UNL     1       4.727   4.459  -0.456  0.00  0.00    +0.210 HD
ENDBRANCH  13  41
TORSDOF 8
