REMARK  Name = ZINC13353177
REMARK  7 active torsions:
REMARK  status: ('A' for Active; 'I' for Inactive)
REMARK    1  A    between atoms: C_1  and  C_2
REMARK    2  A    between atoms: C_7  and  N_12
REMARK    3  A    between atoms: C_9  and  C_11
REMARK    4  A    between atoms: C_22  and  S_23
REMARK    5  A    between atoms: S_23  and  C_24
REMARK    6  A    between atoms: C_24  and  C_25
REMARK    7  A    between atoms: C_33  and  C_37
REMARK                            x       y       z     vdW  Elec       q    Type
REMARK                         _______ _______ _______ _____ _____    ______ ____
ROOT
ATOM      1  N   UNL     1       0.735  -0.503   3.687  0.00  0.00    -0.284 N 
ATOM      2  C   UNL     1       0.880  -1.834   3.885  0.00  0.00    +0.263 A 
ATOM      3  O   UNL     1       0.433  -2.643   3.094  0.00  0.00    -0.267 OA
ATOM      4  C   UNL     1       1.600  -2.265   5.092  0.00  0.00    +0.065 A 
ATOM      5  C   UNL     1       1.803  -3.612   5.386  0.00  0.00    +0.015 A 
ATOM      6  C   UNL     1       2.480  -3.959   6.523  0.00  0.00    +0.001 A 
ATOM      7  C   UNL     1       2.966  -2.984   7.385  0.00  0.00    +0.002 A 
ATOM      8  C   UNL     1       2.781  -1.657   7.121  0.00  0.00    +0.028 A 
ATOM      9  C   UNL     1       2.093  -1.270   5.967  0.00  0.00    +0.079 A 
ATOM     10  N   UNL     1       1.888   0.029   5.667  0.00  0.00    -0.223 NA
ATOM     11  C   UNL     1       1.248   0.391   4.583  0.00  0.00    +0.173 A 
ENDROOT
BRANCH   1  17
ATOM     12  C   UNL     1      -0.019   1.526   0.010  0.00  0.00    +0.008 C 
ATOM     13  C   UNL     1       0.002  -0.004   0.002  0.00  0.00    -0.009 C 
ATOM     14  C   UNL     1      -1.433  -0.534   0.013  0.00  0.00    +0.004 C 
ATOM     15  C   UNL     1      -2.149  -0.040   1.272  0.00  0.00    +0.002 C 
ATOM     16  C   UNL     1      -1.409  -0.547   2.511  0.00  0.00    +0.025 C 
ATOM     17  C   UNL     1       0.026  -0.018   2.500  0.00  0.00    +0.096 C 
ATOM     18  C   UNL     1       0.742  -0.511   1.242  0.00  0.00    +0.012 C 
ATOM     19  C   UNL     1       2.178   0.019   1.231  0.00  0.00    +0.010 C 
ENDBRANCH   1  17
BRANCH  11  20
ATOM     20  S   UNL     1       1.034   2.112   4.270  0.00  0.00    -0.080 S 
BRANCH  20  21
ATOM     21  C   UNL     1       1.849   2.918   5.675  0.00  0.00    +0.151 C 
BRANCH  21  22
ATOM     22  C   UNL     1       1.738   4.414   5.529  0.00  0.00    +0.121 A 
ATOM     23  N   UNL     1       2.297   5.198   6.487  0.00  0.00    -0.310 N 
ATOM     24  H   UNL     1       2.752   4.788   7.239  0.00  0.00    +0.170 HD
ATOM     25  C   UNL     1       2.224   6.547   6.403  0.00  0.00    +0.259 A 
ATOM     26  O   UNL     1       2.721   7.261   7.254  0.00  0.00    -0.267 OA
ATOM     27  C   UNL     1       1.522   7.117   5.240  0.00  0.00    +0.065 A 
ATOM     28  C   UNL     1       1.394   8.493   5.062  0.00  0.00    +0.016 A 
ATOM     29  C   UNL     1       0.735   8.979   3.969  0.00  0.00    +0.016 A 
ATOM     30  C   UNL     1       0.184   8.105   3.022  0.00  0.00    +0.065 A 
ATOM     31  C   UNL     1       0.300   6.729   3.182  0.00  0.00    +0.043 A 
ATOM     32  C   UNL     1       0.973   6.222   4.296  0.00  0.00    +0.079 A 
ATOM     33  N   UNL     1       1.117   4.887   4.492  0.00  0.00    -0.233 NA
BRANCH  30  34
ATOM     34  C   UNL     1      -0.526   8.650   1.845  0.00  0.00    +0.387 C 
ATOM     35  O   UNL     1      -0.631   9.860   1.701  0.00  0.00    -0.241 OA
ATOM     36  O   UNL     1      -1.008   7.891   1.017  0.00  0.00    -0.241 OA
ENDBRANCH  30  34
ENDBRANCH  21  22
ENDBRANCH  20  21
ENDBRANCH  11  20
TORSDOF 5
