REMARK  Name = ZINC61719153
REMARK  5 active torsions:
REMARK  status: ('A' for Active; 'I' for Inactive)
REMARK    1  A    between atoms: C_1  and  N_2
REMARK    2  A    between atoms: C_8  and  C_14
REMARK    3  A    between atoms: C_11  and  O_13
REMARK    4  A    between atoms: C_19  and  O_20
REMARK    5  A    between atoms: O_20  and  C_21
REMARK                            x       y       z     vdW  Elec       q    Type
REMARK                         _______ _______ _______ _____ _____    ______ ____
ROOT
ATOM      1  C   UNL     1       0.452   2.027  -1.313  0.00  0.00    +0.127 C 
ATOM      2  N   UNL     1       0.399   0.586  -1.055  0.00  0.00    -0.326 N 
ATOM      3  C   UNL     1       0.929  -0.303  -1.977  0.00  0.00    +0.160 A 
ATOM      4  N   UNL     1       1.523  -0.054  -3.131  0.00  0.00    -0.206 NA
ATOM      5  C   UNL     1       1.985  -1.033  -3.917  0.00  0.00    +0.169 A 
ATOM      6  C   UNL     1       1.818  -2.321  -3.464  0.00  0.00    +0.045 A 
ATOM      7  S   UNL     1       0.998  -2.091  -1.916  0.00  0.00    -0.055 S 
ATOM      8  C   UNL     1       2.264  -3.553  -4.173  0.00  0.00    +0.072 C 
ATOM      9  C   UNL     1       2.265  -3.245  -5.679  0.00  0.00    +0.109 C 
ATOM     10  C   UNL     1       2.788  -1.861  -5.934  0.00  0.00    +0.190 C 
ATOM     11  N   UNL     1       2.634  -0.860  -5.135  0.00  0.00    -0.197 NA
ATOM     12  H   UNL     1      -0.008   0.253  -0.240  0.00  0.00    +0.148 HD
ENDROOT
BRANCH   8  13
ATOM     13  C   UNL     1       1.312  -4.684  -3.881  0.00  0.00    +0.003 A 
ATOM     14  C   UNL     1      -0.021  -4.574  -4.231  0.00  0.00    +0.008 A 
ATOM     15  C   UNL     1      -0.895  -5.611  -3.963  0.00  0.00    +0.001 A 
ATOM     16  C   UNL     1      -0.438  -6.761  -3.344  0.00  0.00    +0.004 A 
ATOM     17  C   UNL     1       0.892  -6.876  -2.993  0.00  0.00    +0.046 A 
ATOM     18  C   UNL     1       1.773  -5.838  -3.265  0.00  0.00    +0.125 A 
BRANCH  18  19
ATOM     19  O   UNL     1       3.084  -5.951  -2.926  0.00  0.00    -0.489 OA
BRANCH  19  20
ATOM     20  C   UNL     1       3.512  -7.210  -2.403  0.00  0.00    +0.173 C 
ATOM     21  C   UNL     1       3.292  -7.251  -0.876  0.00  0.00    +0.044 C 
ATOM     22  C   UNL     1       4.513  -8.036  -0.337  0.00  0.00    +0.004 C 
ATOM     23  C   UNL     1       5.668  -7.534  -1.239  0.00  0.00    +0.004 C 
ATOM     24  C   UNL     1       5.023  -7.390  -2.633  0.00  0.00    +0.044 C 
ENDBRANCH  19  20
ENDBRANCH  18  19
ENDBRANCH   8  13
BRANCH  10  25
ATOM     25  O   UNL     1       3.469  -1.649  -7.080  0.00  0.00    -0.495 OA
ATOM     26  H   UNL     1       3.782  -0.741  -7.190  0.00  0.00    +0.293 HD
ENDBRANCH  10  25
TORSDOF 4
