REMARK  Name = ZINC22535771
REMARK  12 active torsions:
REMARK  status: ('A' for Active; 'I' for Inactive)
REMARK    1  A    between atoms: C_1  and  C_2
REMARK    2  A    between atoms: C_4  and  C_35
REMARK    3  A    between atoms: C_5  and  C_9
REMARK    4  A    between atoms: C_7  and  C_8
REMARK    5  A    between atoms: C_9  and  C_11
REMARK    6  A    between atoms: C_9  and  N_12
REMARK    7  A    between atoms: C_13  and  C_15
REMARK    8  A    between atoms: C_15  and  N_16
REMARK    9  A    between atoms: N_16  and  C_17
REMARK   10  A    between atoms: N_16  and  S_26
REMARK   11  A    between atoms: C_17  and  C_18
REMARK   12  A    between atoms: S_26  and  C_29
REMARK                            x       y       z     vdW  Elec       q    Type
REMARK                         _______ _______ _______ _____ _____    ______ ____
ROOT
ATOM      1  N   UNL     1       4.901  -0.071   1.901  0.00  0.00    -0.163 NA
ENDROOT
BRANCH   1   2
ATOM      2  S   UNL     1       6.026  -1.279   1.766  0.00  0.00    +0.062 S 
ATOM      3  O   UNL     1       6.107  -1.902   3.041  0.00  0.00    -0.153 OA
ATOM      4  O   UNL     1       5.707  -2.001   0.585  0.00  0.00    -0.153 OA
BRANCH   2   5
ATOM      5  C   UNL     1       7.585  -0.510   1.482  0.00  0.00    +0.106 A 
ATOM      6  C   UNL     1       8.007  -0.261   0.189  0.00  0.00    +0.028 A 
ATOM      7  C   UNL     1       9.228   0.348  -0.034  0.00  0.00    +0.002 A 
ATOM      8  C   UNL     1      10.032   0.697   1.035  0.00  0.00    +0.000 A 
ATOM      9  C   UNL     1       9.613   0.443   2.327  0.00  0.00    +0.002 A 
ATOM     10  C   UNL     1       8.389  -0.160   2.550  0.00  0.00    +0.028 A 
ENDBRANCH   2   5
ENDBRANCH   1   2
BRANCH   1  11
ATOM     11  C   UNL     1       4.200   0.413   0.709  0.00  0.00    +0.205 C 
BRANCH  11  13
ATOM     12  N   UNL     1       2.083  -0.054  -0.481  0.00  0.00    -0.308 N 
ATOM     13  C   UNL     1       2.901  -0.334   0.553  0.00  0.00    +0.229 C 
ATOM     14  O   UNL     1       2.591  -1.186   1.358  0.00  0.00    -0.274 OA
ATOM     15  H   UNL     1       2.364   0.719  -1.211  0.00  0.00    +0.149 HD
BRANCH  12  16
ATOM     16  C   UNL     1       0.819  -0.780  -0.633  0.00  0.00    +0.100 C 
ATOM     17  C   UNL     1      -0.293   0.204  -1.000  0.00  0.00    +0.033 C 
BRANCH  16  22
ATOM     18  C   UNL     1       1.357  -4.730  -4.817  0.00  0.00    +0.044 C 
ATOM     19  C   UNL     1       1.217  -3.699  -3.726  0.00  0.00    -0.047 A 
ATOM     20  C   UNL     1       0.200  -3.812  -2.796  0.00  0.00    +0.007 A 
ATOM     21  C   UNL     1       0.072  -2.868  -1.795  0.00  0.00    -0.045 A 
ATOM     22  C   UNL     1       0.960  -1.810  -1.724  0.00  0.00    -0.024 A 
ATOM     23  C   UNL     1       1.972  -1.695  -2.657  0.00  0.00    +0.009 A 
ATOM     24  C   UNL     1       2.104  -2.642  -3.655  0.00  0.00    -0.047 A 
ATOM     25  C   UNL     1       3.213  -2.520  -4.669  0.00  0.00    +0.044 C 
ATOM     26  C   UNL     1      -1.037  -2.990  -0.781  0.00  0.00    +0.044 C 
ENDBRANCH  16  22
ENDBRANCH  12  16
ENDBRANCH  11  13
ENDBRANCH   1  11
BRANCH   1  27
ATOM     27  C   UNL     1       4.608   0.514   3.212  0.00  0.00    +0.146 C 
BRANCH  27  28
ATOM     28  C   UNL     1       3.289  -0.016   3.714  0.00  0.00    -0.013 A 
ATOM     29  C   UNL     1       3.260  -1.114   4.553  0.00  0.00    +0.008 A 
ATOM     30  C   UNL     1       2.051  -1.599   5.014  0.00  0.00    +0.020 A 
ATOM     31  C   UNL     1       0.869  -0.987   4.636  0.00  0.00    +0.042 A 
ATOM     32  C   UNL     1       0.898   0.112   3.797  0.00  0.00    +0.040 A 
ATOM     33  C   UNL     1       2.109   0.601   3.340  0.00  0.00    +0.047 A 
ATOM     34 CL   UNL     1       2.146   1.984   2.291  0.00  0.00    -0.083 Cl
ATOM     35 CL   UNL     1      -0.649  -1.597   5.215  0.00  0.00    -0.083 Cl
ENDBRANCH  27  28
ENDBRANCH   1  27
TORSDOF 8
