REMARK  Name = ZINC63494603
REMARK  9 active torsions:
REMARK  status: ('A' for Active; 'I' for Inactive)
REMARK    1  A    between atoms: C_1  and  C_2
REMARK    2  A    between atoms: C_4  and  C_9
REMARK    3  A    between atoms: C_5  and  C_8
REMARK    4  A    between atoms: C_9  and  C_10
REMARK    5  A    between atoms: C_10  and  C_11
REMARK    6  A    between atoms: C_21  and  N_25
REMARK    7  A    between atoms: N_25  and  C_26
REMARK    8  A    between atoms: C_26  and  C_27
REMARK    9  A    between atoms: C_27  and  C_28
REMARK                            x       y       z     vdW  Elec       q    Type
REMARK                         _______ _______ _______ _____ _____    ______ ____
ROOT
ATOM      1  C   UNL     1      -4.388   1.127  -1.594  0.00  0.00    +0.090 C 
ATOM      2  N   UNL     1      -4.289   1.742  -2.747  0.00  0.00    -0.332 N 
ATOM      3  C   UNL     1      -5.469   1.734  -3.377  0.00  0.00    +0.129 C 
ATOM      4  C   UNL     1      -5.893   2.249  -4.619  0.00  0.00    +0.038 A 
ATOM      5  C   UNL     1      -4.991   2.926  -5.457  0.00  0.00    +0.013 A 
ATOM      6  C   UNL     1      -5.418   3.416  -6.654  0.00  0.00    +0.001 A 
ATOM      7  C   UNL     1      -6.736   3.264  -7.077  0.00  0.00    +0.002 A 
ATOM      8  C   UNL     1      -7.659   2.619  -6.314  0.00  0.00    +0.026 A 
ATOM      9  C   UNL     1      -7.281   2.087  -5.062  0.00  0.00    +0.048 A 
ATOM     10  N   UNL     1      -8.166   1.454  -4.304  0.00  0.00    -0.353 N 
ATOM     11  C   UNL     1      -7.750   0.909  -3.006  0.00  0.00    +0.261 C 
ATOM     12  N   UNL     1      -6.363   1.076  -2.574  0.00  0.00    -0.200 N 
ATOM     13  N   UNL     1      -5.655   0.684  -1.431  0.00  0.00    -0.249 N 
ATOM     14  H   UNL     1      -6.005   0.194  -0.671  0.00  0.00    +0.171 HD
ATOM     15  H   UNL     1      -9.082   1.352  -4.606  0.00  0.00    +0.163 HD
ATOM     16  H   UNL     1      -3.477   2.145  -3.093  0.00  0.00    +0.168 HD
ENDROOT
BRANCH  11  17
ATOM     17  N   UNL     1      -8.608   1.514  -1.978  0.00  0.00    -0.280 NA
ATOM     18  H   UNL     1      -8.191   1.430  -1.063  0.00  0.00    +0.125 HD
BRANCH  17  19
ATOM     19  C   UNL     1      -9.953   0.923  -2.000  0.00  0.00    +0.089 C 
BRANCH  19  20
ATOM     20  C   UNL     1     -10.815   1.577  -0.918  0.00  0.00    +0.050 C 
BRANCH  20  21
ATOM     21  C   UNL     1     -12.194   0.970  -0.941  0.00  0.00    -0.046 A 
ATOM     22  C   UNL     1     -13.179   1.520  -1.740  0.00  0.00    +0.003 A 
ATOM     23  C   UNL     1     -14.444   0.964  -1.761  0.00  0.00    +0.000 A 
ATOM     24  C   UNL     1     -14.725  -0.143  -0.982  0.00  0.00    +0.000 A 
ATOM     25  C   UNL     1     -13.740  -0.695  -0.183  0.00  0.00    +0.000 A 
ATOM     26  C   UNL     1     -12.474  -0.141  -0.166  0.00  0.00    +0.003 A 
ENDBRANCH  20  21
ENDBRANCH  19  20
ENDBRANCH  17  19
ENDBRANCH  11  17
BRANCH   1  27
ATOM     27  C   UNL     1      -3.265   0.937  -0.608  0.00  0.00    +0.075 C 
BRANCH  27  28
ATOM     28  C   UNL     1      -2.532  -0.371  -0.914  0.00  0.00    +0.042 C 
BRANCH  28  31
ATOM     29  C   UNL     1      -0.019   1.526   0.010  0.00  0.00    +0.039 C 
ATOM     30  C   UNL     1       0.002  -0.004   0.002  0.00  0.00    +0.153 C 
ATOM     31  C   UNL     1      -1.409  -0.561   0.072  0.00  0.00    -0.021 C 
ATOM     32  C   UNL     1      -1.423  -1.257   1.211  0.00  0.00    +0.061 C 
ATOM     33  N   UNL     1      -0.222  -1.193   1.828  0.00  0.00    -0.159 NA
ATOM     34  N   UNL     1       0.629  -0.523   1.230  0.00  0.00    -0.180 NA
ATOM     35  C   UNL     1      -2.617  -2.011   1.738  0.00  0.00    +0.067 C 
ENDBRANCH  28  31
ENDBRANCH  27  28
ENDBRANCH   1  27
TORSDOF 7
