REMARK  Name = ZINC26112061
REMARK  6 active torsions:
REMARK  status: ('A' for Active; 'I' for Inactive)
REMARK    1  A    between atoms: C_1  and  C_2
REMARK    2  A    between atoms: C_2  and  C_4
REMARK    3  A    between atoms: C_2  and  S_19
REMARK    4  A    between atoms: N_6  and  C_7
REMARK    5  A    between atoms: S_19  and  C_20
REMARK    6  A    between atoms: N_29  and  C_30
REMARK                            x       y       z     vdW  Elec       q    Type
REMARK                         _______ _______ _______ _____ _____    ______ ____
ROOT
ATOM      1  C   UNL     1      -5.106   3.800   0.044  0.00  0.00    +0.230 C 
ATOM      2  O   UNL     1      -5.341   4.884  -0.447  0.00  0.00    -0.274 OA
ATOM      3  N   UNL     1      -6.071   3.142   0.716  0.00  0.00    -0.285 N 
ATOM      4  H   UNL     1      -5.885   2.123   1.086  0.00  0.00    +0.155 HD
ENDROOT
BRANCH   3   5
ATOM      5  C   UNL     1      -7.309   3.755   0.943  0.00  0.00    +0.035 A 
ATOM      6  C   UNL     1      -8.469   2.988   0.973  0.00  0.00    +0.025 A 
ATOM      7  C   UNL     1      -9.692   3.586   1.196  0.00  0.00    +0.029 A 
ATOM      8  C   UNL     1      -9.767   4.957   1.392  0.00  0.00    +0.067 A 
ATOM      9  C   UNL     1      -8.604   5.730   1.364  0.00  0.00    +0.069 A 
ATOM     10  C   UNL     1      -7.377   5.126   1.144  0.00  0.00    +0.051 A 
ATOM     11  N   UNL     1      -8.992   7.049   1.589  0.00  0.00    -0.306 N 
ATOM     12  H   UNL     1      -8.237   7.848   1.611  0.00  0.00    +0.170 HD
ATOM     13  C   UNL     1     -10.329   7.077   1.747  0.00  0.00    +0.325 A 
ATOM     14  O   UNL     1     -10.988   8.078   1.960  0.00  0.00    -0.247 OA
ATOM     15  N   UNL     1     -10.826   5.831   1.634  0.00  0.00    -0.306 N 
ATOM     16  H   UNL     1     -11.854   5.445   1.700  0.00  0.00    +0.170 HD
ENDBRANCH   3   5
BRANCH   1  18
ATOM     17  C   UNL     1      -3.721   2.242  -1.299  0.00  0.00    +0.029 C 
ATOM     18  C   UNL     1      -3.735   3.190  -0.098  0.00  0.00    +0.137 C 
BRANCH  18  19
ATOM     19  S   UNL     1      -2.514   4.501  -0.350  0.00  0.00    -0.075 S 
BRANCH  19  20
ATOM     20  C   UNL     1      -1.032   3.547  -0.330  0.00  0.00    +0.173 A 
ATOM     21  N   UNL     1      -1.123   2.257  -0.154  0.00  0.00    -0.222 NA
ATOM     22  C   UNL     1      -0.020   1.451  -0.133  0.00  0.00    +0.086 A 
ATOM     23  C   UNL     1       0.039   0.060   0.040  0.00  0.00    +0.036 A 
ATOM     24  C   UNL     1       1.231  -0.574   0.038  0.00  0.00    +0.048 A 
ATOM     25  S   UNL     1       2.388   0.762  -0.212  0.00  0.00    -0.090 S 
ATOM     26  C   UNL     1       1.219   2.093  -0.301  0.00  0.00    +0.102 A 
ATOM     27  C   UNL     1       1.308   3.471  -0.482  0.00  0.00    +0.269 A 
ATOM     28  O   UNL     1       2.390   4.015  -0.626  0.00  0.00    -0.266 OA
ATOM     29  N   UNL     1       0.161   4.191  -0.495  0.00  0.00    -0.290 N 
ATOM     30  C   UNL     1       0.200   5.644  -0.682  0.00  0.00    +0.154 C 
ENDBRANCH  19  20
ENDBRANCH  18  19
ENDBRANCH   1  18
TORSDOF 4
