REMARK  Name = ZINC39599085
REMARK  8 active torsions:
REMARK  status: ('A' for Active; 'I' for Inactive)
REMARK    1  A    between atoms: C_1  and  O_2
REMARK    2  A    between atoms: O_2  and  C_3
REMARK    3  A    between atoms: C_9  and  C_12
REMARK    4  A    between atoms: C_12  and  C_13
REMARK    5  A    between atoms: C_13  and  N_14
REMARK    6  A    between atoms: C_15  and  C_17
REMARK    7  A    between atoms: C_28  and  C_30
REMARK    8  A    between atoms: C_30  and  C_31
REMARK                            x       y       z     vdW  Elec       q    Type
REMARK                         _______ _______ _______ _____ _____    ______ ____
ROOT
ATOM      1  C   UNL     1      -2.429  -8.487  -0.823  0.00  0.00    +0.100 C 
ATOM      2  C   UNL     1      -2.288  -8.242   0.696  0.00  0.00    +0.121 C 
ATOM      3  N   UNL     1      -3.636  -7.808   1.133  0.00  0.00    -0.300 N 
ATOM      4  C   UNL     1      -4.567  -8.663   0.358  0.00  0.00    +0.115 C 
ATOM      5  C   UNL     1      -3.926  -8.766  -1.040  0.00  0.00    -0.004 C 
ATOM      6  C   UNL     1      -4.124 -10.168  -1.610  0.00  0.00    -0.010 C 
ATOM      7  C   UNL     1      -5.614 -10.401  -1.873  0.00  0.00    -0.082 C 
ATOM      8  N   UNL     1      -6.111  -9.392  -2.817  0.00  0.00    +0.379 N 
ATOM      9  C   UNL     1      -6.002  -8.054  -2.223  0.00  0.00    -0.082 C 
ATOM     10  C   UNL     1      -4.528  -7.722  -1.975  0.00  0.00    -0.010 C 
ATOM     11  C   UNL     1      -3.946  -6.853   2.031  0.00  0.00    +0.220 C 
ATOM     12  O   UNL     1      -5.107  -6.612   2.284  0.00  0.00    -0.275 OA
ATOM     13  H   UNL     1      -5.564  -9.428  -3.664  0.00  0.00    -0.086 HD
ATOM     14  H   UNL     1      -7.077  -9.584  -3.035  0.00  0.00    -0.086 HD
ENDROOT
BRANCH   1  16
ATOM     15  N   UNL     1      -1.508  -7.388  -2.838  0.00  0.00    -0.315 N 
ATOM     16  C   UNL     1      -2.007  -7.262  -1.593  0.00  0.00    +0.218 C 
ATOM     17  O   UNL     1      -2.116  -6.163  -1.092  0.00  0.00    -0.275 OA
ATOM     18  H   UNL     1      -1.420  -8.267  -3.239  0.00  0.00    +0.149 HD
BRANCH  15  19
ATOM     19  C   UNL     1      -1.097  -6.198  -3.587  0.00  0.00    +0.109 C 
BRANCH  19  20
ATOM     20  C   UNL     1      -0.570  -6.616  -4.961  0.00  0.00    +0.056 C 
BRANCH  20  27
ATOM     21  C   UNL     1       3.401  -4.105  -5.084  0.00  0.00    +0.121 A 
ATOM     22  C   UNL     1       3.328  -3.031  -5.967  0.00  0.00    +0.047 A 
ATOM     23  C   UNL     1       2.181  -2.795  -6.692  0.00  0.00    +0.030 A 
ATOM     24  C   UNL     1       1.081  -3.633  -6.546  0.00  0.00    +0.047 A 
ATOM     25  N   UNL     1      -0.174  -3.657  -7.115  0.00  0.00    -0.360 N 
ATOM     26  C   UNL     1      -0.891  -4.711  -6.618  0.00  0.00    +0.087 A 
ATOM     27  C   UNL     1      -0.148  -5.392  -5.731  0.00  0.00    -0.021 A 
ATOM     28  C   UNL     1       1.151  -4.719  -5.654  0.00  0.00    +0.006 A 
ATOM     29  C   UNL     1       2.321  -4.952  -4.928  0.00  0.00    +0.056 A 
ATOM     30  H   UNL     1      -0.501  -3.021  -7.771  0.00  0.00    +0.165 HD
BRANCH  21  32
ATOM     31  C   UNL     1       5.622  -3.413  -4.590  0.00  0.00    +0.277 C 
ATOM     32  O   UNL     1       4.541  -4.323  -4.377  0.00  0.00    -0.495 OA
ENDBRANCH  21  32
ENDBRANCH  20  27
ENDBRANCH  19  20
ENDBRANCH  15  19
ENDBRANCH   1  16
BRANCH  11  33
ATOM     33  C   UNL     1      -2.849  -6.084   2.722  0.00  0.00    +0.131 C 
BRANCH  33  34
ATOM     34  C   UNL     1      -3.458  -5.083   3.670  0.00  0.00    -0.039 A 
ATOM     35  C   UNL     1      -3.763  -3.809   3.228  0.00  0.00    +0.005 A 
ATOM     36  C   UNL     1      -4.321  -2.891   4.097  0.00  0.00    +0.020 A 
ATOM     37  C   UNL     1      -4.575  -3.246   5.410  0.00  0.00    +0.041 A 
ATOM     38  C   UNL     1      -4.269  -4.521   5.852  0.00  0.00    +0.020 A 
ATOM     39  C   UNL     1      -3.716  -5.440   4.980  0.00  0.00    +0.005 A 
ATOM     40 CL   UNL     1      -5.275  -2.093   6.502  0.00  0.00    -0.084 Cl
ENDBRANCH  33  34
ENDBRANCH  11  33
TORSDOF 7
