REMARK  Name = ZINC33937285
REMARK  13 active torsions:
REMARK  status: ('A' for Active; 'I' for Inactive)
REMARK    1  A    between atoms: C_1  and  C_2
REMARK    2  A    between atoms: C_2  and  C_3
REMARK    3  A    between atoms: C_3  and  C_4
REMARK    4  A    between atoms: C_4  and  C_6
REMARK    5  A    between atoms: C_4  and  N_18
REMARK    6  A    between atoms: N_10  and  C_11
REMARK    7  A    between atoms: C_11  and  C_12
REMARK    8  A    between atoms: N_18  and  C_19
REMARK    9  A    between atoms: N_18  and  C_26
REMARK   10  A    between atoms: C_19  and  C_20
REMARK   11  A    between atoms: C_26  and  C_27
REMARK   12  A    between atoms: C_32  and  C_40
REMARK   13  A    between atoms: C_33  and  C_39
REMARK                            x       y       z     vdW  Elec       q    Type
REMARK                         _______ _______ _______ _____ _____    ______ ____
ROOT
ATOM      1  N   UNL     1       2.015  -2.583   0.461  0.00  0.00    +0.392 N 
ATOM      2  H   UNL     1       2.925  -2.176   0.306  0.00  0.00    -0.080 HD
ENDROOT
BRANCH   1   3
ATOM      3  C   UNL     1       1.071  -2.067  -0.539  0.00  0.00    +0.003 C 
BRANCH   3   4
ATOM      4  C   UNL     1      -0.296  -2.650  -0.288  0.00  0.00    +0.138 A 
ATOM      5  N   UNL     1      -0.572  -3.894   0.016  0.00  0.00    -0.115 NA
ATOM      6  N   UNL     1      -1.849  -3.997   0.152  0.00  0.00    -0.023 NA
ATOM      7  N   UNL     1      -2.395  -2.850  -0.058  0.00  0.00    -0.044 NA
ATOM      8  N   UNL     1      -1.470  -1.992  -0.327  0.00  0.00    -0.228 N 
BRANCH   8   9
ATOM      9  C   UNL     1      -1.661  -0.570  -0.623  0.00  0.00    +0.178 C 
BRANCH   9  10
ATOM     10  C   UNL     1      -2.015  -0.400  -2.101  0.00  0.00    +0.140 C 
ATOM     11  C   UNL     1      -2.310   1.089  -2.416  0.00  0.00    +0.035 C 
ATOM     12  C   UNL     1      -1.996   1.137  -3.936  0.00  0.00    +0.031 C 
ATOM     13  C   UNL     1      -0.834   0.129  -4.063  0.00  0.00    +0.160 C 
ATOM     14  O   UNL     1      -0.890  -0.743  -2.926  0.00  0.00    -0.375 OA
ENDBRANCH   9  10
ENDBRANCH   8   9
ENDBRANCH   3   4
BRANCH   3  15
ATOM     15  C   UNL     1       1.544  -2.463  -1.939  0.00  0.00    -0.008 C 
BRANCH  15  17
ATOM     16  C   UNL     1       3.425  -2.295  -3.576  0.00  0.00    +0.004 C 
ATOM     17  C   UNL     1       2.900  -1.812  -2.222  0.00  0.00    -0.005 C 
ENDBRANCH  15  17
ENDBRANCH   3  15
ENDBRANCH   1   3
BRANCH   1  18
ATOM     18  C   UNL     1       1.543  -2.232   1.807  0.00  0.00    -0.042 C 
BRANCH  18  19
ATOM     19  C   UNL     1       1.599  -0.736   1.984  0.00  0.00    -0.064 A 
ATOM     20  C   UNL     1       2.784  -0.127   2.350  0.00  0.00    +0.002 A 
ATOM     21  C   UNL     1       2.836   1.245   2.512  0.00  0.00    +0.000 A 
ATOM     22  C   UNL     1       1.701   2.008   2.308  0.00  0.00    +0.000 A 
ATOM     23  C   UNL     1       0.515   1.399   1.941  0.00  0.00    +0.000 A 
ATOM     24  C   UNL     1       0.466   0.027   1.774  0.00  0.00    +0.002 A 
ENDBRANCH  18  19
ENDBRANCH   1  18
BRANCH   1  25
ATOM     25  C   UNL     1       2.106  -4.045   0.340  0.00  0.00    -0.036 C 
BRANCH  25  26
ATOM     26  C   UNL     1       3.181  -4.559   1.262  0.00  0.00    +0.001 A 
ATOM     27  C   UNL     1       2.850  -5.031   2.489  0.00  0.00    +0.017 A 
ATOM     28  C   UNL     1       3.919  -5.524   3.360  0.00  0.00    -0.001 A 
ATOM     29  C   UNL     1       3.640  -6.024   4.636  0.00  0.00    +0.010 A 
ATOM     30  C   UNL     1       4.659  -6.477   5.425  0.00  0.00    +0.004 A 
ATOM     31  C   UNL     1       5.971  -6.445   4.970  0.00  0.00    -0.046 A 
ATOM     32  C   UNL     1       6.269  -5.957   3.717  0.00  0.00    -0.024 A 
ATOM     33  C   UNL     1       5.247  -5.491   2.896  0.00  0.00    +0.052 A 
ATOM     34  N   UNL     1       5.517  -4.998   1.637  0.00  0.00    -0.322 N 
ATOM     35  H   UNL     1       6.433  -4.976   1.319  0.00  0.00    +0.169 HD
ATOM     36  C   UNL     1       4.529  -4.553   0.842  0.00  0.00    +0.251 A 
ATOM     37  O   UNL     1       4.804  -4.129  -0.267  0.00  0.00    -0.268 OA
ATOM     38  C   UNL     1       7.698  -5.928   3.237  0.00  0.00    +0.046 C 
ATOM     39  C   UNL     1       7.080  -6.950   5.858  0.00  0.00    +0.044 C 
ENDBRANCH  25  26
ENDBRANCH   1  25
TORSDOF 10
