REMARK  Name = ZINC56945507
REMARK  8 active torsions:
REMARK  status: ('A' for Active; 'I' for Inactive)
REMARK    1  A    between atoms: C_1  and  C_2
REMARK    2  A    between atoms: C_5  and  C_30
REMARK    3  A    between atoms: N_8  and  C_10
REMARK    4  A    between atoms: C_10  and  C_11
REMARK    5  A    between atoms: C_11  and  C_13
REMARK    6  A    between atoms: C_11  and  N_14
REMARK    7  A    between atoms: N_20  and  C_23
REMARK    8  A    between atoms: C_28  and  O_29
REMARK                            x       y       z     vdW  Elec       q    Type
REMARK                         _______ _______ _______ _____ _____    ______ ____
ROOT
ATOM      1  N   UNL     1       2.110   1.674   3.489  0.00  0.00    -0.298 N 
ATOM      2  C   UNL     1       1.173   2.414   4.115  0.00  0.00    +0.302 C 
ATOM      3  O   UNL     1       0.295   1.868   4.756  0.00  0.00    -0.253 OA
ATOM      4  N   UNL     1       1.208   3.758   4.031  0.00  0.00    -0.283 N 
ATOM      5  C   UNL     1       0.266   4.581   4.802  0.00  0.00    +0.128 C 
ATOM      6  C   UNL     1       1.065   5.578   5.650  0.00  0.00    +0.124 C 
ATOM      7  N   UNL     1       2.047   6.248   4.787  0.00  0.00    -0.324 N 
ATOM      8  C   UNL     1       2.990   5.425   4.016  0.00  0.00    +0.124 C 
ATOM      9  C   UNL     1       2.195   4.428   3.172  0.00  0.00    +0.128 C 
ATOM     10  H   UNL     1       2.766   2.105   2.919  0.00  0.00    +0.150 HD
ENDROOT
BRANCH   7  11
ATOM     11  C   UNL     1       2.084   7.644   4.699  0.00  0.00    +0.072 A 
ATOM     12  C   UNL     1       2.885   8.374   5.566  0.00  0.00    +0.027 A 
ATOM     13  C   UNL     1       2.920   9.753   5.477  0.00  0.00    +0.002 A 
ATOM     14  C   UNL     1       2.159  10.408   4.527  0.00  0.00    +0.004 A 
ATOM     15  C   UNL     1       1.358   9.687   3.660  0.00  0.00    +0.047 A 
ATOM     16  C   UNL     1       1.322   8.304   3.739  0.00  0.00    +0.138 A 
BRANCH  16  17
ATOM     17  O   UNL     1       0.539   7.593   2.883  0.00  0.00    -0.505 OA
ATOM     18  H   UNL     1      -0.360   7.441   3.207  0.00  0.00    +0.292 HD
ENDBRANCH  16  17
ENDBRANCH   7  11
BRANCH   1  19
ATOM     19  C   UNL     1       2.138   0.221   3.671  0.00  0.00    +0.055 C 
ATOM     20  C   UNL     1       2.925  -0.120   4.938  0.00  0.00    +0.026 C 
BRANCH  19  21
ATOM     21  C   UNL     1       2.810  -0.431   2.461  0.00  0.00    -0.057 C 
BRANCH  21  27
ATOM     22  C   UNL     1      -0.016   1.521   0.011  0.00  0.00    +0.005 C 
ATOM     23  C   UNL     1       0.006  -0.008   0.004  0.00  0.00    -0.031 C 
ATOM     24  C   UNL     1       0.725  -0.504  -1.254  0.00  0.00    +0.003 C 
ATOM     25  C   UNL     1       2.181  -0.031  -1.217  0.00  0.00    -0.031 C 
ATOM     26  C   UNL     1       2.843  -0.536   0.067  0.00  0.00    -0.076 C 
ATOM     27  N   UNL     1       2.126  -0.007   1.233  0.00  0.00    +0.381 N 
ATOM     28  C   UNL     1       0.747  -0.515   1.243  0.00  0.00    -0.076 C 
ATOM     29  C   UNL     1       2.929  -0.585  -2.431  0.00  0.00    +0.005 C 
ATOM     30  H   UNL     1       2.111   1.001   1.188  0.00  0.00    -0.082 HD
ENDBRANCH  21  27
ENDBRANCH  19  21
ENDBRANCH   1  19
TORSDOF 5
