REMARK  Name = ZINC13165332
REMARK  8 active torsions:
REMARK  status: ('A' for Active; 'I' for Inactive)
REMARK    1  A    between atoms: C_1  and  C_2
REMARK    2  A    between atoms: N_11  and  C_15
REMARK    3  A    between atoms: C_15  and  C_16
REMARK    4  A    between atoms: N_18  and  C_19
REMARK    5  A    between atoms: C_23  and  S_25
REMARK    6  A    between atoms: S_25  and  N_28
REMARK    7  A    between atoms: N_28  and  C_29
REMARK    8  A    between atoms: N_28  and  C_30
REMARK                            x       y       z     vdW  Elec       q    Type
REMARK                         _______ _______ _______ _____ _____    ______ ____
ROOT
ATOM      1  C   UNL     1      -3.291  -2.054   3.076  0.00  0.00    +0.235 C 
ATOM      2  O   UNL     1      -2.200  -2.442   2.713  0.00  0.00    -0.274 OA
ATOM      3  N   UNL     1      -4.354  -2.880   3.015  0.00  0.00    -0.284 N 
ATOM      4  H   UNL     1      -5.212  -2.592   3.364  0.00  0.00    +0.155 HD
ENDROOT
BRANCH   3   5
ATOM      5  C   UNL     1      -4.221  -4.152   2.447  0.00  0.00    +0.035 A 
ATOM      6  C   UNL     1      -3.364  -4.348   1.372  0.00  0.00    +0.023 A 
ATOM      7  C   UNL     1      -3.231  -5.606   0.818  0.00  0.00    +0.004 A 
ATOM      8  C   UNL     1      -3.957  -6.668   1.326  0.00  0.00    +0.029 A 
ATOM      9  C   UNL     1      -4.814  -6.475   2.393  0.00  0.00    +0.110 A 
ATOM     10  C   UNL     1      -4.949  -5.220   2.955  0.00  0.00    +0.052 A 
BRANCH   9  11
ATOM     11  S   UNL     1      -5.738  -7.831   3.036  0.00  0.00    +0.075 S 
ATOM     12  O   UNL     1      -5.109  -9.012   2.559  0.00  0.00    -0.150 OA
ATOM     13  O   UNL     1      -5.926  -7.574   4.420  0.00  0.00    -0.150 OA
BRANCH  11  14
ATOM     14  N   UNL     1      -7.238  -7.777   2.336  0.00  0.00    -0.206 N 
ATOM     15  C   UNL     1      -8.309  -6.996   2.959  0.00  0.00    +0.157 C 
BRANCH  14  16
ATOM     16  C   UNL     1      -7.482  -8.477   1.152  0.00  0.00    +0.051 A 
ATOM     17  C   UNL     1      -6.442  -8.732   0.267  0.00  0.00    +0.025 A 
ATOM     18  C   UNL     1      -6.686  -9.428  -0.900  0.00  0.00    +0.002 A 
ATOM     19  C   UNL     1      -7.965  -9.863  -1.193  0.00  0.00    +0.000 A 
ATOM     20  C   UNL     1      -9.004  -9.606  -0.317  0.00  0.00    +0.002 A 
ATOM     21  C   UNL     1      -8.766  -8.915   0.855  0.00  0.00    +0.025 A 
ENDBRANCH  14  16
ENDBRANCH  11  14
ENDBRANCH   9  11
ENDBRANCH   3   5
BRANCH   1  22
ATOM     22  C   UNL     1      -3.457  -0.649   3.595  0.00  0.00    +0.214 C 
BRANCH  22  32
ATOM     23  C   UNL     1      -1.464   3.306   3.848  0.00  0.00    +0.010 C 
ATOM     24  C   UNL     1      -0.349   2.796   2.932  0.00  0.00    +0.018 C 
ATOM     25  C   UNL     1      -0.578   3.316   1.511  0.00  0.00    +0.006 C 
ATOM     26  C   UNL     1       0.526   2.789   0.592  0.00  0.00    +0.000 C 
ATOM     27  C   UNL     1       0.494   1.260   0.578  0.00  0.00    +0.003 C 
ATOM     28  C   UNL     1       0.727   0.732   1.996  0.00  0.00    +0.035 C 
ATOM     29  C   UNL     1      -0.356   1.272   2.924  0.00  0.00    +0.115 C 
ATOM     30  C   UNL     1      -1.713   0.753   2.508  0.00  0.00    +0.247 C 
ATOM     31  O   UNL     1      -2.277   0.938   1.451  0.00  0.00    -0.273 OA
ATOM     32  N   UNL     1      -2.164   0.040   3.560  0.00  0.00    -0.215 N 
ATOM     33  C   UNL     1      -1.285   0.040   4.570  0.00  0.00    +0.310 C 
ATOM     34  O   UNL     1      -1.467  -0.534   5.625  0.00  0.00    -0.252 OA
ATOM     35  N   UNL     1      -0.176   0.749   4.284  0.00  0.00    -0.285 N 
ATOM     36  H   UNL     1       0.591   0.886   4.862  0.00  0.00    +0.151 HD
ENDBRANCH  22  32
ENDBRANCH   1  22
TORSDOF 6
