REMARK  Name = ZINC33557422
REMARK  7 active torsions:
REMARK  status: ('A' for Active; 'I' for Inactive)
REMARK    1  A    between atoms: C_1  and  N_2
REMARK    2  A    between atoms: C_5  and  C_10
REMARK    3  A    between atoms: C_13  and  O_16
REMARK    4  A    between atoms: O_16  and  C_17
REMARK    5  A    between atoms: N_20  and  C_22
REMARK    6  A    between atoms: N_25  and  C_28
REMARK    7  A    between atoms: C_28  and  C_29
REMARK                            x       y       z     vdW  Elec       q    Type
REMARK                         _______ _______ _______ _____ _____    ______ ____
ROOT
ATOM      1  C   UNL     1      -1.802  -4.813  -1.144  0.00  0.00    +0.139 C 
ATOM      2  N   UNL     1      -1.627  -3.412  -0.754  0.00  0.00    -0.260 N 
ATOM      3  C   UNL     1      -1.774  -2.451  -1.713  0.00  0.00    +0.042 C 
ATOM      4  C   UNL     1      -1.627  -1.143  -1.421  0.00  0.00    +0.058 C 
ATOM      5  C   UNL     1      -1.293  -0.774   0.010  0.00  0.00    +0.142 C 
ATOM      6  N   UNL     1      -1.156  -1.883   0.969  0.00  0.00    -0.288 N 
ATOM      7  C   UNL     1      -1.333  -3.143   0.525  0.00  0.00    +0.307 C 
ATOM      8  O   UNL     1      -1.222  -4.064   1.310  0.00  0.00    -0.252 OA
ATOM      9  C   UNL     1      -1.827  -0.357  -2.575  0.00  0.00    +0.247 C 
ATOM     10  O   UNL     1      -1.755   0.858  -2.600  0.00  0.00    -0.270 OA
ATOM     11  N   UNL     1      -2.107  -1.125  -3.643  0.00  0.00    -0.289 N 
ATOM     12  C   UNL     1      -2.098  -2.524  -3.189  0.00  0.00    +0.159 C 
ATOM     13  H   UNL     1      -0.915  -1.674   2.022  0.00  0.00    +0.151 HD
ENDROOT
BRANCH  11  14
ATOM     14  C   UNL     1      -2.372  -0.656  -5.005  0.00  0.00    +0.073 C 
ATOM     15  C   UNL     1      -1.156   0.115  -5.526  0.00  0.00    +0.004 C 
ATOM     16  C   UNL     1      -1.462   0.656  -6.925  0.00  0.00    -0.077 C 
ATOM     17  N   UNL     1      -2.636   1.537  -6.866  0.00  0.00    +0.382 N 
ATOM     18  C   UNL     1      -3.826   0.806  -6.414  0.00  0.00    -0.077 C 
ATOM     19  C   UNL     1      -3.591   0.271  -4.999  0.00  0.00    +0.004 C 
ATOM     20  H   UNL     1      -2.426   2.325  -6.128  0.00  0.00    -0.081 HD
BRANCH  17  21
ATOM     21  C   UNL     1      -2.876   2.182  -8.163  0.00  0.00    -0.043 C 
BRANCH  21  22
ATOM     22  C   UNL     1      -1.574   2.711  -8.710  0.00  0.00    -0.064 A 
ATOM     23  C   UNL     1      -1.171   3.999  -8.410  0.00  0.00    +0.002 A 
ATOM     24  C   UNL     1       0.025   4.482  -8.908  0.00  0.00    +0.000 A 
ATOM     25  C   UNL     1       0.812   3.681  -9.712  0.00  0.00    +0.000 A 
ATOM     26  C   UNL     1       0.407   2.394 -10.016  0.00  0.00    +0.000 A 
ATOM     27  C   UNL     1      -0.786   1.909  -9.514  0.00  0.00    +0.002 A 
ENDBRANCH  21  22
ENDBRANCH  17  21
ENDBRANCH  11  14
BRANCH   5  28
ATOM     28  C   UNL     1       0.002  -0.004   0.002  0.00  0.00    -0.022 A 
ATOM     29  C   UNL     1      -0.017   1.378   0.010  0.00  0.00    +0.009 A 
ATOM     30  C   UNL     1       1.169   2.087   0.002  0.00  0.00    +0.046 A 
ATOM     31  C   UNL     1       2.380   1.409  -0.013  0.00  0.00    +0.120 A 
ATOM     32  C   UNL     1       2.396   0.022  -0.020  0.00  0.00    +0.046 A 
ATOM     33  C   UNL     1       1.207  -0.681  -0.013  0.00  0.00    +0.009 A 
BRANCH  31  34
ATOM     34  O   UNL     1       3.548   2.104  -0.021  0.00  0.00    -0.495 OA
ATOM     35  C   UNL     1       3.456   3.530  -0.013  0.00  0.00    +0.277 C 
ENDBRANCH  31  34
ENDBRANCH   5  28
TORSDOF 5
