REMARK  Name = ZINC18939564
REMARK  9 active torsions:
REMARK  status: ('A' for Active; 'I' for Inactive)
REMARK    1  A    between atoms: C_2  and  C_3
REMARK    2  A    between atoms: C_3  and  N_55
REMARK    3  A    between atoms: C_4  and  C_5
REMARK    4  A    between atoms: C_4  and  N_55
REMARK    5  A    between atoms: C_11  and  C_12
REMARK    6  A    between atoms: C_11  and  N_55
REMARK    7  A    between atoms: N_14  and  C_15
REMARK    8  A    between atoms: C_20  and  C_21
REMARK    9  A    between atoms: N_23  and  C_24
REMARK                            x       y       z     vdW  Elec       q    Type
REMARK                         _______ _______ _______ _____ _____    ______ ____
ROOT
ATOM      1  C   UNL     1       8.799  -1.591  -4.515  0.00  0.00    +0.046 A 
ATOM      2  C   UNL     1       8.062  -1.240  -5.638  0.00  0.00    +0.024 A 
ATOM      3  C   UNL     1       8.708  -0.874  -6.802  0.00  0.00    +0.002 A 
ATOM      4  C   UNL     1      10.092  -0.865  -6.863  0.00  0.00    +0.001 A 
ATOM      5  C   UNL     1      10.840  -1.216  -5.760  0.00  0.00    +0.015 A 
ATOM      6  C   UNL     1      10.200  -1.583  -4.573  0.00  0.00    +0.058 A 
ENDROOT
BRANCH   1   9
ATOM      7  C   UNL     1       6.990  -1.359  -2.995  0.00  0.00    +0.201 C 
ATOM      8  O   UNL     1       6.473  -0.561  -3.749  0.00  0.00    -0.278 OA
ATOM      9  N   UNL     1       8.149  -1.955  -3.337  0.00  0.00    -0.286 N 
ATOM     10  H   UNL     1       8.531  -2.637  -2.764  0.00  0.00    +0.155 HD
BRANCH   7  11
ATOM     11  C   UNL     1       6.336  -1.683  -1.677  0.00  0.00    +0.020 C 
BRANCH  11  12
ATOM     12  N   UNL     1       5.150  -0.818  -1.510  0.00  0.00    +0.391 N 
ATOM     13  H   UNL     1       4.619  -0.806  -2.389  0.00  0.00    -0.080 HD
BRANCH  12  14
ATOM     14  C   UNL     1       5.572   0.561  -1.186  0.00  0.00    -0.051 C 
BRANCH  14  16
ATOM     15  C   UNL     1       7.494   1.099   0.220  0.00  0.00    +0.002 C 
ATOM     16  C   UNL     1       6.286   0.598   0.140  0.00  0.00    -0.053 C 
ENDBRANCH  14  16
ENDBRANCH  12  14
BRANCH  12  17
ATOM     17  C   UNL     1       4.285  -1.347  -0.434  0.00  0.00    -0.034 C 
BRANCH  17  18
ATOM     18  C   UNL     1       2.987  -0.582  -0.433  0.00  0.00    -0.025 A 
ATOM     19  C   UNL     1       1.846  -0.837  -1.118  0.00  0.00    +0.011 A 
ATOM     20  C   UNL     1       0.766   0.012  -0.961  0.00  0.00    +0.028 A 
ATOM     21  C   UNL     1       0.881   1.074  -0.125  0.00  0.00    +0.078 A 
ATOM     22  S   UNL     1       2.554   0.895   0.471  0.00  0.00    -0.084 S 
ATOM     23 CL   UNL     1      -0.292   2.295   0.259  0.00  0.00    -0.076 Cl
ENDBRANCH  17  18
ENDBRANCH  12  17
ENDBRANCH  11  12
ENDBRANCH   7  11
ENDBRANCH   1   9
BRANCH   6  24
ATOM     24  C   UNL     1      10.994  -1.959  -3.388  0.00  0.00    +0.250 C 
ATOM     25  O   UNL     1      10.437  -2.357  -2.384  0.00  0.00    -0.270 OA
ATOM     26  N   UNL     1      12.338  -1.861  -3.419  0.00  0.00    -0.281 N 
ATOM     27  H   UNL     1      12.779  -1.473  -4.191  0.00  0.00    +0.155 HD
BRANCH  26  28
ATOM     28  C   UNL     1      13.098  -2.321  -2.336  0.00  0.00    +0.037 A 
ATOM     29  C   UNL     1      14.322  -2.939  -2.559  0.00  0.00    +0.027 A 
ATOM     30  C   UNL     1      15.075  -3.388  -1.492  0.00  0.00    +0.051 A 
ATOM     31  C   UNL     1      14.608  -3.233  -0.197  0.00  0.00    +0.166 A 
ATOM     32  C   UNL     1      13.379  -2.617   0.030  0.00  0.00    +0.168 A 
ATOM     33  C   UNL     1      12.627  -2.163  -1.040  0.00  0.00    +0.072 A 
ATOM     34  O   UNL     1      13.148  -2.586   1.375  0.00  0.00    -0.453 OA
ATOM     35  C   UNL     1      14.053  -3.551   1.943  0.00  0.00    +0.466 C 
ATOM     36  O   UNL     1      15.147  -3.587   1.007  0.00  0.00    -0.453 OA
ENDBRANCH  26  28
ENDBRANCH   6  24
TORSDOF 9
