REMARK  Name = ZINC09781447
REMARK  5 active torsions:
REMARK  status: ('A' for Active; 'I' for Inactive)
REMARK    1  A    between atoms: C_4  and  C_7
REMARK    2  A    between atoms: C_10  and  S_19
REMARK    3  A    between atoms: N_11  and  C_12
REMARK    4  A    between atoms: S_19  and  C_20
REMARK    5  A    between atoms: C_20  and  C_21
REMARK                            x       y       z     vdW  Elec       q    Type
REMARK                         _______ _______ _______ _____ _____    ______ ____
ROOT
ATOM      1  C   UNL     1      -4.313  -4.523   0.018  0.00  0.00    +0.169 A 
ATOM      2  N   UNL     1      -4.709  -3.272   0.029  0.00  0.00    -0.128 NA
ATOM      3  N   UNL     1      -3.690  -2.488   0.024  0.00  0.00    -0.122 NA
ATOM      4  C   UNL     1      -2.579  -3.190   0.010  0.00  0.00    +0.197 A 
ATOM      5  N   UNL     1      -2.935  -4.511   0.000  0.00  0.00    -0.270 N 
ENDROOT
BRANCH   5   6
ATOM      6  C   UNL     1      -2.078  -5.621  -0.021  0.00  0.00    +0.051 A 
ATOM      7  C   UNL     1      -2.071  -6.473  -1.117  0.00  0.00    +0.029 A 
ATOM      8  C   UNL     1      -1.222  -7.562  -1.138  0.00  0.00    +0.040 A 
ATOM      9  C   UNL     1      -0.386  -7.811  -0.062  0.00  0.00    +0.124 A 
ATOM     10  C   UNL     1      -0.395  -6.964   1.034  0.00  0.00    +0.040 A 
ATOM     11  C   UNL     1      -1.239  -5.871   1.056  0.00  0.00    +0.029 A 
ATOM     12  F   UNL     1       0.439  -8.880  -0.082  0.00  0.00    -0.205 F 
ENDBRANCH   5   6
BRANCH   1  16
ATOM     13  C   UNL     1      -6.808  -7.961   0.021  0.00  0.00    +0.000 A 
ATOM     14  C   UNL     1      -7.344  -6.721  -0.277  0.00  0.00    +0.001 A 
ATOM     15  C   UNL     1      -6.539  -5.600  -0.280  0.00  0.00    +0.011 A 
ATOM     16  C   UNL     1      -5.181  -5.720   0.020  0.00  0.00    +0.020 A 
ATOM     17  C   UNL     1      -4.645  -6.974   0.314  0.00  0.00    +0.011 A 
ATOM     18  C   UNL     1      -5.462  -8.086   0.319  0.00  0.00    +0.001 A 
ENDBRANCH   1  16
BRANCH   4  19
ATOM     19  S   UNL     1      -0.938  -2.550  -0.003  0.00  0.00    -0.076 S 
BRANCH  19  20
ATOM     20  C   UNL     1      -1.293  -0.775   0.010  0.00  0.00    +0.173 C 
BRANCH  20  21
ATOM     21  C   UNL     1       0.002  -0.004   0.002  0.00  0.00    +0.231 C 
ATOM     22  O   UNL     1       1.061  -0.596  -0.011  0.00  0.00    -0.274 OA
ATOM     23  N   UNL     1      -0.016   1.344   0.009  0.00  0.00    -0.260 N 
ATOM     24  C   UNL     1      -1.286   2.085   0.019  0.00  0.00    +0.209 C 
ATOM     25  C   UNL     1      -1.185   3.253  -0.922  0.00  0.00    +0.235 C 
ATOM     26  O   UNL     1      -2.184   3.669  -1.469  0.00  0.00    -0.274 OA
ATOM     27  N   UNL     1       0.001   3.841  -1.168  0.00  0.00    -0.283 N 
ATOM     28  C   UNL     1       1.176   3.349  -0.589  0.00  0.00    +0.055 A 
ATOM     29  C   UNL     1       1.176   2.084   0.002  0.00  0.00    +0.058 A 
ATOM     30  C   UNL     1       2.333   1.580   0.567  0.00  0.00    +0.025 A 
ATOM     31  C   UNL     1       3.492   2.337   0.548  0.00  0.00    +0.002 A 
ATOM     32  C   UNL     1       3.494   3.591  -0.033  0.00  0.00    +0.002 A 
ATOM     33  C   UNL     1       2.340   4.100  -0.601  0.00  0.00    +0.025 A 
ATOM     34  H   UNL     1       0.042   4.613  -1.753  0.00  0.00    +0.155 HD
ENDBRANCH  20  21
ENDBRANCH  19  20
ENDBRANCH   4  19
TORSDOF 5
