REMARK  Name = ZINC63710305
REMARK  7 active torsions:
REMARK  status: ('A' for Active; 'I' for Inactive)
REMARK    1  A    between atoms: C_6  and  C_10
REMARK    2  A    between atoms: C_13  and  N_16
REMARK    3  A    between atoms: C_17  and  C_19
REMARK    4  A    between atoms: C_19  and  C_20
REMARK    5  A    between atoms: C_20  and  C_21
REMARK    6  A    between atoms: C_21  and  S_22
REMARK    7  A    between atoms: S_22  and  C_25
REMARK                            x       y       z     vdW  Elec       q    Type
REMARK                         _______ _______ _______ _____ _____    ______ ____
ROOT
ATOM      1  C   UNL     1       3.546  -2.788  -1.272  0.00  0.00    -0.005 A 
ATOM      2  C   UNL     1       3.336  -4.148  -1.408  0.00  0.00    +0.009 A 
ATOM      3  C   UNL     1       3.756  -4.801  -2.551  0.00  0.00    +0.024 A 
ATOM      4  C   UNL     1       4.388  -4.091  -3.563  0.00  0.00    +0.033 A 
ATOM      5  C   UNL     1       4.596  -2.725  -3.423  0.00  0.00    +0.024 A 
ATOM      6  C   UNL     1       4.170  -2.076  -2.280  0.00  0.00    +0.009 A 
ENDROOT
BRANCH   1  12
ATOM      7  C   UNL     1       5.824  -0.986   3.504  0.00  0.00    +0.002 A 
ATOM      8  C   UNL     1       5.304  -2.195   4.001  0.00  0.00    +0.002 A 
ATOM      9  C   UNL     1       4.417  -2.941   3.314  0.00  0.00    +0.027 A 
ATOM     10  C   UNL     1       3.961  -2.491   1.991  0.00  0.00    +0.060 A 
ATOM     11  N   UNL     1       3.132  -2.994   1.123  0.00  0.00    -0.360 N 
ATOM     12  C   UNL     1       3.087  -2.078  -0.024  0.00  0.00    +0.206 C 
ATOM     13  N   UNL     1       4.001  -0.973   0.292  0.00  0.00    -0.360 N 
ATOM     14  C   UNL     1       4.511  -1.212   1.466  0.00  0.00    +0.060 A 
ATOM     15  C   UNL     1       5.473  -0.483   2.304  0.00  0.00    +0.027 A 
ATOM     16  H   UNL     1       2.636  -3.822   1.216  0.00  0.00    +0.162 HD
ATOM     17  H   UNL     1       4.190  -0.206  -0.270  0.00  0.00    +0.162 HD
ENDBRANCH   1  12
BRANCH   4  18
ATOM     18  N   UNL     1       4.814  -4.750  -4.721  0.00  0.00    -0.285 N 
ATOM     19  C   UNL     1       4.111  -5.795  -5.199  0.00  0.00    +0.217 C 
ATOM     20  O   UNL     1       3.058  -6.105  -4.682  0.00  0.00    -0.275 OA
ATOM     21  H   UNL     1       5.616  -4.454  -5.180  0.00  0.00    +0.155 HD
BRANCH  19  22
ATOM     22  C   UNL     1       4.633  -6.579  -6.376  0.00  0.00    +0.098 C 
BRANCH  22  23
ATOM     23  C   UNL     1       3.652  -7.704  -6.714  0.00  0.00    +0.032 C 
BRANCH  23  24
ATOM     24  C   UNL     1       4.181  -8.500  -7.909  0.00  0.00    +0.172 C 
BRANCH  24  25
ATOM     25  S   UNL     1       3.018  -9.833  -8.310  0.00  0.00    -0.003 S 
ATOM     26  O   UNL     1       3.005 -10.801  -7.270  0.00  0.00    -0.169 OA
ATOM     27  O   UNL     1       1.804  -9.289  -8.810  0.00  0.00    -0.169 OA
BRANCH  25  28
ATOM     28  C   UNL     1       3.739 -10.663  -9.687  0.00  0.00    +0.088 A 
ATOM     29  C   UNL     1       3.443 -10.252 -10.974  0.00  0.00    +0.028 A 
ATOM     30  C   UNL     1       4.008 -10.903 -12.054  0.00  0.00    +0.022 A 
ATOM     31  C   UNL     1       4.870 -11.966 -11.848  0.00  0.00    +0.041 A 
ATOM     32  C   UNL     1       5.165 -12.377 -10.561  0.00  0.00    +0.022 A 
ATOM     33  C   UNL     1       4.604 -11.721  -9.481  0.00  0.00    +0.028 A 
ATOM     34 CL   UNL     1       5.579 -12.784 -13.205  0.00  0.00    -0.084 Cl
ENDBRANCH  25  28
ENDBRANCH  24  25
ENDBRANCH  23  24
ENDBRANCH  22  23
ENDBRANCH  19  22
ENDBRANCH   4  18
TORSDOF 7
