REMARK  Name = ZINC36597793
REMARK  14 active torsions:
REMARK  status: ('A' for Active; 'I' for Inactive)
REMARK    1  A    between atoms: C_1  and  C_2
REMARK    2  A    between atoms: C_3  and  C_4
REMARK    3  A    between atoms: C_4  and  C_6
REMARK    4  A    between atoms: C_4  and  N_20
REMARK    5  A    between atoms: N_8  and  C_9
REMARK    6  A    between atoms: C_9  and  S_10
REMARK    7  A    between atoms: S_10  and  C_13
REMARK    8  A    between atoms: C_16  and  C_19
REMARK    9  A    between atoms: N_20  and  C_21
REMARK   10  A    between atoms: C_21  and  C_22
REMARK   11  A    between atoms: C_25  and  C_27
REMARK   12  A    between atoms: C_28  and  C_30
REMARK   13  A    between atoms: C_34  and  O_37
REMARK   14  A    between atoms: C_35  and  O_36
REMARK                            x       y       z     vdW  Elec       q    Type
REMARK                         _______ _______ _______ _____ _____    ______ ____
ROOT
ATOM      1  N   UNL     1       0.089  -4.116  -0.490  0.00  0.00    -0.275 N 
ATOM      2  C   UNL     1      -0.377  -5.098  -1.286  0.00  0.00    +0.251 C 
ATOM      3  O   UNL     1      -1.563  -5.365  -1.291  0.00  0.00    -0.270 OA
ENDROOT
BRANCH   2   4
ATOM      4  C   UNL     1       0.552  -5.850  -2.151  0.00  0.00    +0.082 A 
ATOM      5  C   UNL     1       1.506  -5.170  -2.914  0.00  0.00    +0.017 A 
ATOM      6  C   UNL     1       2.372  -5.875  -3.721  0.00  0.00    +0.005 A 
ATOM      7  C   UNL     1       2.304  -7.258  -3.781  0.00  0.00    +0.049 A 
ATOM      8  C   UNL     1       1.364  -7.945  -3.032  0.00  0.00    +0.159 A 
ATOM      9  C   UNL     1       0.486  -7.247  -2.208  0.00  0.00    +0.171 A 
BRANCH   9  10
ATOM     10  O   UNL     1      -0.433  -7.917  -1.467  0.00  0.00    -0.503 OA
ATOM     11  H   UNL     1      -1.276  -8.057  -1.919  0.00  0.00    +0.292 HD
ENDBRANCH   9  10
BRANCH   8  12
ATOM     12  O   UNL     1       1.303  -9.302  -3.096  0.00  0.00    -0.503 OA
ATOM     13  H   UNL     1       1.860  -9.752  -2.447  0.00  0.00    +0.292 HD
ENDBRANCH   8  12
ENDBRANCH   2   4
BRANCH   1  14
ATOM     14  C   UNL     1      -0.802  -3.476   0.481  0.00  0.00    +0.186 C 
BRANCH  14  15
ATOM     15  C   UNL     1      -0.180  -3.541   1.853  0.00  0.00    +0.239 C 
ATOM     16  O   UNL     1       0.873  -4.121   2.014  0.00  0.00    -0.273 OA
ATOM     17  N   UNL     1      -0.794  -2.957   2.900  0.00  0.00    -0.294 N 
ATOM     18  H   UNL     1      -1.637  -2.493   2.771  0.00  0.00    +0.150 HD
BRANCH  17  19
ATOM     19  C   UNL     1      -0.190  -3.020   4.233  0.00  0.00    +0.278 C 
BRANCH  19  20
ATOM     20  S   UNL     1       0.789  -1.522   4.525  0.00  0.00    +0.013 S 
ATOM     21  O   UNL     1       1.331  -1.539   5.839  0.00  0.00    -0.168 OA
ATOM     22  O   UNL     1       1.619  -1.252   3.403  0.00  0.00    -0.168 OA
BRANCH  20  23
ATOM     23  C   UNL     1      -0.386  -0.209   4.541  0.00  0.00    +0.090 A 
ATOM     24  C   UNL     1      -0.712   0.442   3.366  0.00  0.00    +0.027 A 
ATOM     25  C   UNL     1      -1.634   1.471   3.379  0.00  0.00    +0.005 A 
ATOM     26  C   UNL     1      -2.231   1.850   4.567  0.00  0.00    -0.050 A 
ATOM     27  C   UNL     1      -1.905   1.199   5.742  0.00  0.00    +0.005 A 
ATOM     28  C   UNL     1      -0.987   0.167   5.729  0.00  0.00    +0.027 A 
ATOM     29  C   UNL     1      -3.235   2.974   4.580  0.00  0.00    +0.044 C 
ENDBRANCH  20  23
ENDBRANCH  19  20
ENDBRANCH  17  19
ENDBRANCH  14  15
BRANCH  14  32
ATOM     30  C   UNL     1      -1.229  -0.277  -1.587  0.00  0.00    +0.035 C 
ATOM     31  C   UNL     1      -1.257  -1.721  -1.154  0.00  0.00    -0.032 C 
ATOM     32  C   UNL     1      -1.014  -2.035   0.095  0.00  0.00    +0.000 C 
ENDBRANCH  14  32
ENDBRANCH   1  14
BRANCH   1  33
ATOM     33  C   UNL     1       1.486  -3.688  -0.596  0.00  0.00    +0.183 C 
BRANCH  33  34
ATOM     34  C   UNL     1       1.563  -2.421  -1.407  0.00  0.00    +0.122 A 
ATOM     35  C   UNL     1       2.346  -1.360  -1.137  0.00  0.00    +0.046 A 
ATOM     36  C   UNL     1       2.102  -0.403  -2.149  0.00  0.00    +0.045 A 
ATOM     37  C   UNL     1       1.185  -0.936  -2.976  0.00  0.00    +0.102 A 
ATOM     38  O   UNL     1       0.867  -2.160  -2.525  0.00  0.00    -0.463 OA
ATOM     39  C   UNL     1       0.615  -0.274  -4.204  0.00  0.00    +0.086 C 
ENDBRANCH  33  34
ENDBRANCH   1  33
TORSDOF 11
