REMARK  Name = ZINC14701204
REMARK  12 active torsions:
REMARK  status: ('A' for Active; 'I' for Inactive)
REMARK    1  A    between atoms: C_1  and  C_2
REMARK    2  A    between atoms: C_3  and  C_33
REMARK    3  A    between atoms: C_4  and  C_32
REMARK    4  A    between atoms: C_7  and  C_8
REMARK    5  A    between atoms: N_10  and  C_11
REMARK    6  A    between atoms: C_11  and  C_12
REMARK    7  A    between atoms: C_12  and  C_14
REMARK    8  A    between atoms: C_12  and  C_22
REMARK    9  A    between atoms: C_17  and  O_20
REMARK   10  A    between atoms: O_20  and  C_21
REMARK   11  A    between atoms: C_33  and  O_35
REMARK   12  A    between atoms: O_35  and  C_36
REMARK                            x       y       z     vdW  Elec       q    Type
REMARK                         _______ _______ _______ _____ _____    ______ ____
ROOT
ATOM      1  C   UNL     1      -3.778   3.868   0.060  0.00  0.00    +0.068 C 
ENDROOT
BRANCH   1   2
ATOM      2  C   UNL     1      -2.295   4.136   0.046  0.00  0.00    -0.013 A 
ATOM      3  C   UNL     1      -1.702   5.341   0.047  0.00  0.00    +0.088 A 
ATOM      4  N   UNL     1      -0.342   5.191   0.033  0.00  0.00    -0.360 N 
ATOM      5  H   UNL     1       0.299   5.919   0.030  0.00  0.00    +0.165 HD
ATOM      6  C   UNL     1      -0.018   3.852   0.022  0.00  0.00    +0.047 A 
ATOM      7  C   UNL     1      -1.228   3.133   0.031  0.00  0.00    +0.003 A 
ATOM      8  C   UNL     1      -1.208   1.738   0.017  0.00  0.00    +0.010 A 
ATOM      9  C   UNL     1      -0.013   1.076   0.008  0.00  0.00    +0.001 A 
ATOM     10  C   UNL     1       1.183   1.781   0.000  0.00  0.00    +0.002 A 
ATOM     11  C   UNL     1       1.187   3.158   0.007  0.00  0.00    +0.026 A 
ENDBRANCH   1   2
BRANCH   1  12
ATOM     12  C   UNL     1      -4.386   4.470   1.301  0.00  0.00    -0.038 A 
ATOM     13  C   UNL     1      -4.286   5.830   1.528  0.00  0.00    +0.008 A 
ATOM     14  C   UNL     1      -4.847   6.385   2.662  0.00  0.00    +0.046 A 
ATOM     15  C   UNL     1      -5.502   5.575   3.578  0.00  0.00    +0.120 A 
ATOM     16  C   UNL     1      -5.597   4.210   3.350  0.00  0.00    +0.046 A 
ATOM     17  C   UNL     1      -5.039   3.660   2.212  0.00  0.00    +0.008 A 
BRANCH  15  18
ATOM     18  O   UNL     1      -6.050   6.118   4.697  0.00  0.00    -0.495 OA
ATOM     19  C   UNL     1      -5.914   7.530   4.866  0.00  0.00    +0.277 C 
ENDBRANCH  15  18
ENDBRANCH   1  12
BRANCH   1  20
ATOM     20  C   UNL     1      -4.421   4.494  -1.179  0.00  0.00    +0.117 C 
BRANCH  20  23
ATOM     21  C   UNL     1      -4.348   4.213  -3.598  0.00  0.00    +0.261 C 
ATOM     22  O   UNL     1      -5.155   5.118  -3.698  0.00  0.00    -0.269 OA
ATOM     23  N   UNL     1      -3.917   3.825  -2.381  0.00  0.00    -0.309 N 
ATOM     24  H   UNL     1      -3.274   3.104  -2.301  0.00  0.00    +0.149 HD
BRANCH  21  31
ATOM     25  C   UNL     1      -5.177   4.892  -6.527  0.00  0.00    +0.047 C 
ATOM     26  C   UNL     1      -4.200   3.833  -6.086  0.00  0.00    -0.006 A 
ATOM     27  C   UNL     1      -3.477   2.954  -6.925  0.00  0.00    +0.083 A 
ATOM     28  C   UNL     1      -2.708   2.151  -6.104  0.00  0.00    +0.028 A 
ATOM     29  N   UNL     1      -2.932   2.510  -4.830  0.00  0.00    -0.354 N 
ATOM     30  H   UNL     1      -2.518   2.106  -4.051  0.00  0.00    +0.166 HD
ATOM     31  C   UNL     1      -3.843   3.543  -4.803  0.00  0.00    +0.106 A 
ATOM     32  C   UNL     1      -1.776   1.058  -6.561  0.00  0.00    +0.064 C 
BRANCH  27  33
ATOM     33  C   UNL     1      -3.537   2.901  -8.395  0.00  0.00    +0.341 C 
ATOM     34  O   UNL     1      -4.349   2.183  -8.945  0.00  0.00    -0.245 OA
BRANCH  33  35
ATOM     35  O   UNL     1      -2.690   3.648  -9.132  0.00  0.00    -0.464 OA
ATOM     36  C   UNL     1      -2.805   3.545 -10.575  0.00  0.00    +0.280 C 
ENDBRANCH  33  35
ENDBRANCH  27  33
ENDBRANCH  21  31
ENDBRANCH  20  23
ENDBRANCH   1  20
TORSDOF 8
