REMARK  Name = ZINC39947196
REMARK  8 active torsions:
REMARK  status: ('A' for Active; 'I' for Inactive)
REMARK    1  A    between atoms: C_1  and  C_2
REMARK    2  A    between atoms: C_2  and  C_4
REMARK    3  A    between atoms: C_2  and  N_13
REMARK    4  A    between atoms: C_14  and  C_16
REMARK    5  A    between atoms: C_16  and  S_17
REMARK    6  A    between atoms: S_17  and  C_18
REMARK    7  A    between atoms: C_22  and  C_27
REMARK    8  A    between atoms: N_23  and  C_24
REMARK                            x       y       z     vdW  Elec       q    Type
REMARK                         _______ _______ _______ _____ _____    ______ ____
ROOT
ATOM      1  C   UNL     1       0.645  -1.827   6.266  0.00  0.00    +0.237 C 
ATOM      2  N   UNL     1       1.791  -0.905   6.318  0.00  0.00    -0.237 N 
ATOM      3  N   UNL     1       2.943  -1.700   6.291  0.00  0.00    -0.169 NA
ATOM      4  C   UNL     1       2.642  -2.970   6.231  0.00  0.00    +0.147 C 
ATOM      5  N   UNL     1       1.255  -3.166   6.212  0.00  0.00    -0.282 N 
ATOM      6  H   UNL     1       1.755   0.063   6.361  0.00  0.00    +0.171 HD
ENDROOT
BRANCH   4   7
ATOM      7  C   UNL     1       3.587  -4.007   6.190  0.00  0.00    +0.022 C 
ATOM      8  C   UNL     1       4.973  -3.889   6.305  0.00  0.00    +0.006 A 
ATOM      9  C   UNL     1       5.823  -2.778   6.488  0.00  0.00    +0.010 A 
ATOM     10  C   UNL     1       7.166  -2.964   6.568  0.00  0.00    +0.001 A 
ATOM     11  C   UNL     1       7.735  -4.236   6.475  0.00  0.00    +0.002 A 
ATOM     12  C   UNL     1       6.978  -5.347   6.300  0.00  0.00    +0.026 A 
ATOM     13  C   UNL     1       5.567  -5.232   6.206  0.00  0.00    +0.043 A 
ATOM     14  N   UNL     1       4.627  -6.142   6.040  0.00  0.00    -0.380 N 
ATOM     15  C   UNL     1       3.317  -5.485   6.019  0.00  0.00    +0.152 C 
ATOM     16  H   UNL     1       4.779  -7.096   5.949  0.00  0.00    +0.160 HD
ENDBRANCH   4   7
BRANCH   5  17
ATOM     17  C   UNL     1       0.550  -4.448   6.149  0.00  0.00    +0.078 C 
ATOM     18  C   UNL     1      -0.977  -4.411   6.051  0.00  0.00    +0.024 C 
ATOM     19  C   UNL     1      -0.304  -4.844   7.356  0.00  0.00    +0.024 C 
ENDBRANCH   5  17
BRANCH   1  20
ATOM     20  S   UNL     1      -0.349  -1.522   4.780  0.00  0.00    -0.109 S 
BRANCH  20  21
ATOM     21  C   UNL     1       0.831  -1.716   3.416  0.00  0.00    +0.168 C 
BRANCH  21  23
ATOM     22  N   UNL     1       0.808  -1.577   0.946  0.00  0.00    -0.308 N 
ATOM     23  C   UNL     1       0.125  -1.485   2.104  0.00  0.00    +0.223 C 
ATOM     24  O   UNL     1      -1.057  -1.217   2.091  0.00  0.00    -0.275 OA
ATOM     25  H   UNL     1       1.754  -1.792   0.957  0.00  0.00    +0.149 HD
BRANCH  22  27
ATOM     26  C   UNL     1       0.092   0.145  -0.635  0.00  0.00    +0.033 C 
ATOM     27  C   UNL     1       0.122  -1.353  -0.329  0.00  0.00    +0.100 C 
BRANCH  27  28
ATOM     28  C   UNL     1       0.856  -2.076  -1.428  0.00  0.00    -0.024 A 
ATOM     29  C   UNL     1       2.238  -2.092  -1.441  0.00  0.00    +0.009 A 
ATOM     30  C   UNL     1       2.916  -2.754  -2.447  0.00  0.00    +0.050 A 
ATOM     31  C   UNL     1       2.211  -3.405  -3.446  0.00  0.00    +0.166 A 
ATOM     32  C   UNL     1       0.818  -3.389  -3.434  0.00  0.00    +0.167 A 
ATOM     33  C   UNL     1       0.145  -2.728  -2.419  0.00  0.00    +0.055 A 
ATOM     34  O   UNL     1       0.364  -4.093  -4.512  0.00  0.00    -0.453 OA
ATOM     35  C   UNL     1       1.488  -4.192  -5.407  0.00  0.00    +0.466 C 
ATOM     36  O   UNL     1       2.629  -4.118  -4.533  0.00  0.00    -0.453 OA
ENDBRANCH  27  28
ENDBRANCH  22  27
ENDBRANCH  21  23
ENDBRANCH  20  21
ENDBRANCH   1  20
TORSDOF 7
