REMARK  Name = ZINC44028946
REMARK  17 active torsions:
REMARK  status: ('A' for Active; 'I' for Inactive)
REMARK    1  A    between atoms: C_1  and  C_2
REMARK    2  A    between atoms: C_2  and  N_3
REMARK    3  A    between atoms: N_3  and  C_4
REMARK    4  A    between atoms: N_3  and  C_6
REMARK    5  A    between atoms: C_4  and  C_5
REMARK    6  A    between atoms: C_6  and  C_7
REMARK    7  A    between atoms: C_7  and  S_8
REMARK    8  A    between atoms: S_8  and  C_9
REMARK    9  A    between atoms: C_9  and  C_10
REMARK   10  A    between atoms: C_10  and  O_12
REMARK   11  A    between atoms: O_12  and  C_13
REMARK   12  A    between atoms: C_16  and  C_37
REMARK   13  A    between atoms: C_16  and  C_38
REMARK   14  A    between atoms: C_17  and  O_36
REMARK   15  A    between atoms: C_19  and  C_35
REMARK   16  A    between atoms: C_24  and  C_34
REMARK   17  A    between atoms: C_26  and  C_33
REMARK                            x       y       z     vdW  Elec       q    Type
REMARK                         _______ _______ _______ _____ _____    ______ ____
ROOT
ATOM      1  C   UNL     1       2.084  -9.059   4.935  0.00  0.00    +0.184 C 
ATOM      2  C   UNL     1       1.155 -10.044   5.645  0.00  0.00    +0.058 C 
ATOM      3  C   UNL     1       0.690 -11.196   4.721  0.00  0.00    +0.015 C 
ATOM      4  C   UNL     1       1.841 -12.063   4.355  0.00  0.00    +0.128 C 
ATOM      5  C   UNL     1       2.981 -11.427   3.635  0.00  0.00    +0.022 C 
ATOM      6  C   UNL     1       4.316 -11.509   4.339  0.00  0.00    -0.014 C 
ATOM      7  C   UNL     1       5.406 -10.910   3.451  0.00  0.00    +0.008 C 
ATOM      8  C   UNL     1       4.899  -9.566   2.925  0.00  0.00    +0.004 C 
ATOM      9  C   UNL     1       4.362  -8.621   3.983  0.00  0.00    -0.004 C 
ATOM     10  C   UNL     1       3.565  -9.292   5.111  0.00  0.00    +0.018 C 
ATOM     11  C   UNL     1       4.239 -10.516   5.551  0.00  0.00    +0.071 C 
ATOM     12  C   UNL     1       3.821 -11.349   6.711  0.00  0.00    +0.138 C 
ATOM     13  O   UNL     1       3.123 -11.070   7.651  0.00  0.00    -0.297 OA
ATOM     14  C   UNL     1       4.523 -12.687   6.481  0.00  0.00    +0.075 C 
ATOM     15  C   UNL     1       4.653 -12.852   4.948  0.00  0.00    +0.015 C 
ATOM     16  C   UNL     1       3.886  -8.318   6.262  0.00  0.00    +0.016 C 
ATOM     17  C   UNL     1       5.516  -7.821   4.593  0.00  0.00    +0.008 C 
ATOM     18  C   UNL     1       3.104 -12.161   2.269  0.00  0.00    +0.011 C 
ATOM     19  C   UNL     1      -0.008 -10.664   3.469  0.00  0.00    +0.018 C 
ENDROOT
BRANCH   4  20
ATOM     20  O   UNL     1       2.206 -12.823   5.492  0.00  0.00    -0.391 OA
ATOM     21  H   UNL     1       1.501 -13.394   5.827  0.00  0.00    +0.210 HD
ENDBRANCH   4  20
BRANCH   3  22
ATOM     22  C   UNL     1      -0.309 -12.050   5.484  0.00  0.00    -0.025 C 
ATOM     23  C   UNL     1      -0.629 -11.741   6.717  0.00  0.00    +0.004 C 
ENDBRANCH   3  22
BRANCH   1  24
ATOM     24  O   UNL     1       1.801  -7.745   5.454  0.00  0.00    -0.460 OA
BRANCH  24  25
ATOM     25  C   UNL     1       0.843  -7.038   4.834  0.00  0.00    +0.317 C 
ATOM     26  O   UNL     1       0.261  -7.511   3.886  0.00  0.00    -0.250 OA
BRANCH  25  27
ATOM     27  C   UNL     1       0.492  -5.656   5.321  0.00  0.00    +0.189 C 
BRANCH  27  28
ATOM     28  S   UNL     1      -0.829  -4.967   4.285  0.00  0.00    -0.151 S 
BRANCH  28  29
ATOM     29  C   UNL     1      -1.130  -3.324   4.993  0.00  0.00    +0.051 C 
BRANCH  29  30
ATOM     30  C   UNL     1      -2.237  -2.624   4.203  0.00  0.00    -0.068 C 
BRANCH  30  31
ATOM     31  N   UNL     1      -2.566  -1.346   4.848  0.00  0.00    +0.380 N 
ATOM     32  H   UNL     1      -2.796  -1.508   5.817  0.00  0.00    -0.082 HD
BRANCH  31  34
ATOM     33  C   UNL     1      -1.707   0.840   5.543  0.00  0.00    -0.017 C 
ATOM     34  C   UNL     1      -1.410  -0.443   4.764  0.00  0.00    -0.082 C 
ENDBRANCH  31  34
BRANCH  31  35
ATOM     35  C   UNL     1      -3.716  -0.735   4.168  0.00  0.00    -0.082 C 
ATOM     36  C   UNL     1      -4.957  -1.603   4.383  0.00  0.00    -0.017 C 
ENDBRANCH  31  35
ENDBRANCH  30  31
ENDBRANCH  29  30
ENDBRANCH  28  29
ENDBRANCH  27  28
ENDBRANCH  25  27
ENDBRANCH  24  25
ENDBRANCH   1  24
TORSDOF 11
