REMARK  Name = ZINC09074196
REMARK  6 active torsions:
REMARK  status: ('A' for Active; 'I' for Inactive)
REMARK    1  A    between atoms: C_1  and  C_2
REMARK    2  A    between atoms: C_2  and  C_4
REMARK    3  A    between atoms: C_2  and  O_16
REMARK    4  A    between atoms: N_6  and  C_7
REMARK    5  A    between atoms: O_16  and  C_17
REMARK    6  A    between atoms: C_17  and  C_19
REMARK                            x       y       z     vdW  Elec       q    Type
REMARK                         _______ _______ _______ _____ _____    ______ ____
ROOT
ATOM      1  C   UNL     1       6.562  -0.957   1.363  0.00  0.00    +0.062 C 
ATOM      2  C   UNL     1       6.099  -0.684  -0.070  0.00  0.00    +0.259 C 
ENDROOT
BRANCH   2   3
ATOM      3  C   UNL     1       7.158   0.103  -0.798  0.00  0.00    +0.258 C 
ATOM      4  O   UNL     1       6.924   1.234  -1.170  0.00  0.00    -0.271 OA
ATOM      5  N   UNL     1       8.364  -0.449  -1.036  0.00  0.00    -0.281 N 
ATOM      6  H   UNL     1       8.573  -1.327  -0.683  0.00  0.00    +0.155 HD
BRANCH   5   7
ATOM      7  C   UNL     1       9.314   0.246  -1.794  0.00  0.00    +0.053 A 
ATOM      8  C   UNL     1       9.397   1.629  -1.707  0.00  0.00    +0.046 A 
ATOM      9  C   UNL     1      10.337   2.312  -2.456  0.00  0.00    +0.061 A 
ATOM     10  C   UNL     1      11.196   1.618  -3.292  0.00  0.00    +0.061 A 
ATOM     11  C   UNL     1      11.115   0.240  -3.381  0.00  0.00    +0.043 A 
ATOM     12  C   UNL     1      10.180  -0.448  -2.630  0.00  0.00    +0.064 A 
ATOM     13 CL   UNL     1      10.084  -2.179  -2.736  0.00  0.00    -0.082 Cl
ATOM     14 CL   UNL     1      12.375   2.479  -4.231  0.00  0.00    -0.082 Cl
ATOM     15 CL   UNL     1      10.441   4.042  -2.348  0.00  0.00    -0.082 Cl
ENDBRANCH   5   7
ENDBRANCH   2   3
BRANCH   2  16
ATOM     16  O   UNL     1       4.863   0.077  -0.042  0.00  0.00    -0.449 OA
BRANCH  16  17
ATOM     17  C   UNL     1       3.712  -0.624  -0.022  0.00  0.00    +0.340 C 
ATOM     18  O   UNL     1       3.742  -1.839  -0.027  0.00  0.00    -0.245 OA
BRANCH  17  19
ATOM     19  C   UNL     1       2.419   0.081   0.007  0.00  0.00    +0.061 A 
ATOM     20  C   UNL     1       2.387   1.480   0.013  0.00  0.00    +0.016 A 
ATOM     21  C   UNL     1       1.177   2.136   0.037  0.00  0.00    +0.017 A 
ATOM     22  C   UNL     1      -0.007   1.411   0.055  0.00  0.00    +0.030 A 
ATOM     23  C   UNL     1       0.009   0.012   0.054  0.00  0.00    +0.048 A 
ATOM     24  C   UNL     1       1.228  -0.647   0.028  0.00  0.00    +0.039 A 
ATOM     25  N   UNL     1      -1.169  -0.730   0.083  0.00  0.00    -0.284 N 
ATOM     26  C   UNL     1      -2.374  -0.307  -0.286  0.00  0.00    +0.227 C 
ATOM     27  O   UNL     1      -3.302  -1.085  -0.211  0.00  0.00    -0.275 OA
ATOM     28  C   UNL     1      -2.651   1.082  -0.793  0.00  0.00    +0.170 C 
ATOM     29  S   UNL     1      -1.561   2.250   0.073  0.00  0.00    -0.114 S 
ATOM     30  H   UNL     1      -1.103  -1.643   0.404  0.00  0.00    +0.155 HD
ENDBRANCH  17  19
ENDBRANCH  16  17
ENDBRANCH   2  16
TORSDOF 5
