REMARK  Name = ZINC11953138
REMARK  11 active torsions:
REMARK  status: ('A' for Active; 'I' for Inactive)
REMARK    1  A    between atoms: C_1  and  C_2
REMARK    2  A    between atoms: C_4  and  C_14
REMARK    3  A    between atoms: C_8  and  C_13
REMARK    4  A    between atoms: C_9  and  C_12
REMARK    5  A    between atoms: C_14  and  N_51
REMARK    6  A    between atoms: C_15  and  C_17
REMARK    7  A    between atoms: C_15  and  C_18
REMARK    8  A    between atoms: C_15  and  N_51
REMARK    9  A    between atoms: C_18  and  N_19
REMARK   10  A    between atoms: C_20  and  C_25
REMARK   11  A    between atoms: C_22  and  C_24
REMARK                            x       y       z     vdW  Elec       q    Type
REMARK                         _______ _______ _______ _____ _____    ______ ____
ROOT
ATOM      1  C   UNL     1      -2.601   6.209   3.171  0.00  0.00    -0.044 C 
ENDROOT
BRANCH   1   5
ATOM      2  C   UNL     1      -1.578   9.656   6.649  0.00  0.00    +0.044 C 
ATOM      3  C   UNL     1      -1.094   8.624   5.663  0.00  0.00    -0.050 A 
ATOM      4  C   UNL     1      -2.013   7.917   4.899  0.00  0.00    +0.007 A 
ATOM      5  C   UNL     1      -1.593   6.969   3.993  0.00  0.00    -0.040 A 
ATOM      6  C   UNL     1      -0.233   6.712   3.843  0.00  0.00    +0.048 A 
ATOM      7  C   UNL     1       0.694   7.434   4.616  0.00  0.00    +0.003 A 
ATOM      8  C   UNL     1       0.245   8.391   5.528  0.00  0.00    +0.013 A 
ATOM      9  C   UNL     1       2.017   6.943   4.224  0.00  0.00    -0.022 A 
ATOM     10  C   UNL     1       1.825   6.005   3.283  0.00  0.00    +0.017 A 
ATOM     11  N   UNL     1       0.486   5.855   3.041  0.00  0.00    -0.358 N 
ATOM     12  H   UNL     1       0.102   5.236   2.401  0.00  0.00    +0.166 HD
ATOM     13  C   UNL     1       2.920   5.231   2.596  0.00  0.00    +0.063 C 
ATOM     14  C   UNL     1       3.343   7.403   4.773  0.00  0.00    +0.046 C 
ENDBRANCH   1   5
BRANCH   1  15
ATOM     15  N   UNL     1      -2.814   4.880   3.775  0.00  0.00    +0.385 N 
ATOM     16  H   UNL     1      -3.162   4.996   4.734  0.00  0.00    -0.085 HD
ATOM     17  H   UNL     1      -1.923   4.370   3.794  0.00  0.00    -0.085 HD
BRANCH  15  18
ATOM     18  C   UNL     1      -3.799   4.112   2.990  0.00  0.00    -0.053 C 
ATOM     19  C   UNL     1      -5.213   4.477   3.446  0.00  0.00    -0.012 C 
BRANCH  18  20
ATOM     20  C   UNL     1      -3.561   2.617   3.211  0.00  0.00    +0.128 C 
BRANCH  20  21
ATOM     21  N   UNL     1      -2.254   2.244   2.665  0.00  0.00    -0.270 N 
ATOM     22  C   UNL     1      -1.082   2.258   3.333  0.00  0.00    +0.036 A 
ATOM     23  C   UNL     1      -0.116   1.847   2.480  0.00  0.00    +0.047 A 
ATOM     24  C   UNL     1      -0.718   1.572   1.248  0.00  0.00    +0.060 A 
ATOM     25  N   UNL     1      -1.999   1.815   1.356  0.00  0.00    -0.176 NA
ATOM     26  C   UNL     1      -0.013   1.086   0.008  0.00  0.00    +0.067 C 
ATOM     27  C   UNL     1      -0.884   2.660   4.772  0.00  0.00    +0.065 C 
ENDBRANCH  20  21
ENDBRANCH  18  20
ENDBRANCH  15  18
ENDBRANCH   1  15
TORSDOF 5
