REMARK  Name = ZINC16807694
REMARK  7 active torsions:
REMARK  status: ('A' for Active; 'I' for Inactive)
REMARK    1  A    between atoms: C_4  and  S_7
REMARK    2  A    between atoms: S_7  and  N_10
REMARK    3  A    between atoms: C_13  and  N_22
REMARK    4  A    between atoms: N_22  and  N_23
REMARK    5  A    between atoms: C_24  and  C_26
REMARK    6  A    between atoms: C_28  and  O_33
REMARK    7  A    between atoms: C_30  and  O_32
REMARK                            x       y       z     vdW  Elec       q    Type
REMARK                         _______ _______ _______ _____ _____    ______ ____
ROOT
ATOM      1  N   UNL     1       3.727  -2.356   0.220  0.00  0.00    -0.128 NA
ATOM      2  C   UNL     1       3.700  -1.080  -0.059  0.00  0.00    +0.095 C 
ATOM      3  C   UNL     1       2.440  -0.327   0.025  0.00  0.00    +0.058 C 
ATOM      4  C   UNL     1       2.450   1.025   0.011  0.00  0.00    +0.094 C 
ATOM      5  C   UNL     1       3.727   1.761  -0.096  0.00  0.00    +0.209 C 
ATOM      6  O   UNL     1       3.770   2.955   0.133  0.00  0.00    -0.285 OA
ATOM      7  C   UNL     1       4.952   1.032  -0.477  0.00  0.00    +0.033 A 
ATOM      8  C   UNL     1       4.941  -0.375  -0.463  0.00  0.00    +0.013 A 
ATOM      9  C   UNL     1       6.081  -1.077  -0.824  0.00  0.00    +0.011 A 
ATOM     10  C   UNL     1       7.223  -0.388  -1.196  0.00  0.00    +0.001 A 
ATOM     11  C   UNL     1       7.235   0.995  -1.212  0.00  0.00    +0.001 A 
ATOM     12  C   UNL     1       6.106   1.710  -0.854  0.00  0.00    +0.012 A 
ENDROOT
BRANCH   1  13
ATOM     13  S   UNL     1       5.114  -3.047   0.805  0.00  0.00    +0.099 S 
ATOM     14  O   UNL     1       5.567  -3.953  -0.191  0.00  0.00    -0.146 OA
ATOM     15  O   UNL     1       5.922  -1.985   1.294  0.00  0.00    -0.146 OA
BRANCH  13  19
ATOM     16  C   UNL     1       3.952  -5.546   4.396  0.00  0.00    +0.000 A 
ATOM     17  C   UNL     1       3.959  -6.111   3.134  0.00  0.00    +0.002 A 
ATOM     18  C   UNL     1       4.313  -5.348   2.037  0.00  0.00    +0.029 A 
ATOM     19  C   UNL     1       4.661  -4.020   2.203  0.00  0.00    +0.112 A 
ATOM     20  C   UNL     1       4.660  -3.457   3.465  0.00  0.00    +0.029 A 
ATOM     21  C   UNL     1       4.301  -4.219   4.561  0.00  0.00    +0.002 A 
ENDBRANCH  13  19
ENDBRANCH   1  13
BRANCH   4  22
ATOM     22  N   UNL     1       1.255   1.725   0.090  0.00  0.00    -0.261 N 
ATOM     23  H   UNL     1       1.259   2.695   0.080  0.00  0.00    +0.170 HD
BRANCH  22  24
ATOM     24  N   UNL     1       0.042   1.031   0.185  0.00  0.00    -0.232 N 
ATOM     25  C   UNL     1      -1.120   1.710   0.257  0.00  0.00    +0.260 C 
ATOM     26  O   UNL     1      -1.115   2.926   0.244  0.00  0.00    -0.269 OA
ATOM     27  H   UNL     1       0.037   0.061   0.196  0.00  0.00    +0.173 HD
BRANCH  25  28
ATOM     28  C   UNL     1      -2.401   0.977   0.351  0.00  0.00    +0.045 A 
ATOM     29  C   UNL     1      -2.409  -0.418   0.360  0.00  0.00    +0.058 A 
ATOM     30  C   UNL     1      -3.611  -1.100   0.454  0.00  0.00    +0.121 A 
ATOM     31  C   UNL     1      -4.806  -0.399   0.528  0.00  0.00    +0.090 A 
ATOM     32  C   UNL     1      -4.802   0.989   0.513  0.00  0.00    +0.121 A 
ATOM     33  C   UNL     1      -3.604   1.679   0.425  0.00  0.00    +0.058 A 
BRANCH  32  34
ATOM     34  O   UNL     1      -5.975   1.671   0.585  0.00  0.00    -0.507 OA
ATOM     35  H   UNL     1      -6.374   1.859  -0.275  0.00  0.00    +0.292 HD
ENDBRANCH  32  34
BRANCH  30  36
ATOM     36  O   UNL     1      -3.620  -2.459   0.469  0.00  0.00    -0.507 OA
ATOM     37  H   UNL     1      -3.683  -2.862  -0.408  0.00  0.00    +0.292 HD
ENDBRANCH  30  36
ENDBRANCH  25  28
ENDBRANCH  22  24
ENDBRANCH   4  22
TORSDOF 7
