REMARK  Name = ZINC28286567
REMARK  7 active torsions:
REMARK  status: ('A' for Active; 'I' for Inactive)
REMARK    1  A    between atoms: C_1  and  C_2
REMARK    2  A    between atoms: C_4  and  C_26
REMARK    3  A    between atoms: C_18  and  N_21
REMARK    4  A    between atoms: N_21  and  C_22
REMARK    5  A    between atoms: C_22  and  C_23
REMARK    6  A    between atoms: C_23  and  C_24
REMARK    7  A    between atoms: C_24  and  O_25
REMARK                            x       y       z     vdW  Elec       q    Type
REMARK                         _______ _______ _______ _____ _____    ______ ____
ROOT
ATOM      1  C   UNL     1       2.596   7.227   3.107  0.00  0.00    +0.067 C 
ATOM      2  C   UNL     1       1.569   6.245   3.611  0.00  0.00    +0.061 A 
ATOM      3  C   UNL     1       0.534   6.532   4.509  0.00  0.00    +0.048 A 
ATOM      4  C   UNL     1      -0.169   5.394   4.712  0.00  0.00    +0.045 A 
ATOM      5  N   UNL     1       0.407   4.416   3.963  0.00  0.00    -0.205 N 
ATOM      6  N   UNL     1       1.498   4.980   3.289  0.00  0.00    -0.169 NA
ATOM      7  C   UNL     1      -0.007   3.095   3.886  0.00  0.00    +0.236 C 
ATOM      8  N   UNL     1      -1.054   2.697   4.584  0.00  0.00    -0.206 NA
ATOM      9  C   UNL     1      -1.471   1.425   4.421  0.00  0.00    +0.108 A 
ATOM     10  C   UNL     1      -1.038   0.562   3.435  0.00  0.00    -0.006 A 
ATOM     11  C   UNL     1      -1.566  -0.732   3.426  0.00  0.00    -0.032 A 
ATOM     12  C   UNL     1      -2.477  -1.042   4.390  0.00  0.00    -0.005 A 
ATOM     13  S   UNL     1      -2.626   0.449   5.341  0.00  0.00    -0.074 S 
ATOM     14  C   UNL     1      -3.183  -2.344   4.591  0.00  0.00    +0.043 C 
ATOM     15  C   UNL     1      -3.006  -3.192   3.323  0.00  0.00    +0.005 C 
ATOM     16  C   UNL     1      -1.530  -3.164   2.917  0.00  0.00    +0.005 C 
ATOM     17  C   UNL     1      -1.158  -1.777   2.391  0.00  0.00    +0.036 C 
ATOM     18  C   UNL     1      -0.016   1.091   2.429  0.00  0.00    +0.074 C 
ATOM     19  N   UNL     1       0.676   2.213   3.082  0.00  0.00    -0.227 NA
ATOM     20  C   UNL     1      -1.372   5.239   5.607  0.00  0.00    +0.066 C 
ENDROOT
BRANCH  18  21
ATOM     21  N   UNL     1      -0.700   1.560   1.217  0.00  0.00    +0.395 N 
ATOM     22  H   UNL     1      -1.732   1.179   1.208  0.00  0.00    -0.083 HD
ATOM     23  H   UNL     1      -0.715   2.659   1.206  0.00  0.00    -0.083 HD
BRANCH  21  24
ATOM     24  C   UNL     1      -0.013   1.086   0.008  0.00  0.00    -0.077 C 
BRANCH  24  25
ATOM     25  C   UNL     1      -0.753   1.593  -1.232  0.00  0.00    +0.009 C 
BRANCH  25  26
ATOM     26  C   UNL     1      -0.037   1.099  -2.490  0.00  0.00    +0.154 C 
BRANCH  26  27
ATOM     27  O   UNL     1      -0.728   1.573  -3.648  0.00  0.00    -0.395 OA
ATOM     28  H   UNL     1      -0.358   1.317  -4.652  0.00  0.00    +0.209 HD
ENDBRANCH  26  27
ENDBRANCH  25  26
ENDBRANCH  24  25
ENDBRANCH  21  24
ENDBRANCH  18  21
TORSDOF 5
