REMARK  Name = ZINC16371236
REMARK  10 active torsions:
REMARK  status: ('A' for Active; 'I' for Inactive)
REMARK    1  A    between atoms: C_1  and  C_2
REMARK    2  A    between atoms: C_2  and  C_4
REMARK    3  A    between atoms: C_2  and  S_19
REMARK    4  A    between atoms: N_6  and  C_7
REMARK    5  A    between atoms: C_12  and  C_13
REMARK    6  A    between atoms: S_19  and  C_20
REMARK    7  A    between atoms: C_23  and  C_26
REMARK    8  A    between atoms: N_24  and  N_25
REMARK    9  A    between atoms: C_26  and  O_27
REMARK   10  A    between atoms: O_27  and  C_28
REMARK                            x       y       z     vdW  Elec       q    Type
REMARK                         _______ _______ _______ _____ _____    ______ ____
ROOT
ATOM      1  C   UNL     1      -4.090   3.238   4.374  0.00  0.00    +0.029 C 
ATOM      2  C   UNL     1      -2.807   3.322   5.203  0.00  0.00    +0.137 C 
ENDROOT
BRANCH   2   3
ATOM      3  C   UNL     1      -3.042   4.202   6.404  0.00  0.00    +0.230 C 
ATOM      4  O   UNL     1      -2.747   5.378   6.361  0.00  0.00    -0.274 OA
ATOM      5  N   UNL     1      -3.579   3.683   7.526  0.00  0.00    -0.284 N 
ATOM      6  H   UNL     1      -3.888   2.764   7.534  0.00  0.00    +0.155 HD
BRANCH   5   7
ATOM      7  C   UNL     1      -3.690   4.469   8.676  0.00  0.00    +0.041 A 
ATOM      8  C   UNL     1      -2.837   5.545   8.868  0.00  0.00    +0.024 A 
ATOM      9  C   UNL     1      -2.952   6.325  10.003  0.00  0.00    +0.002 A 
ATOM     10  C   UNL     1      -3.909   6.030  10.959  0.00  0.00    +0.001 A 
ATOM     11  C   UNL     1      -4.761   4.959  10.783  0.00  0.00    +0.010 A 
ATOM     12  C   UNL     1      -4.659   4.169   9.640  0.00  0.00    +0.003 A 
BRANCH  12  13
ATOM     13  C   UNL     1      -5.572   3.017   9.446  0.00  0.00    -0.016 A 
ATOM     14  C   UNL     1      -6.266   2.869   8.247  0.00  0.00    +0.008 A 
ATOM     15  C   UNL     1      -7.110   1.791   8.070  0.00  0.00    +0.001 A 
ATOM     16  C   UNL     1      -7.277   0.866   9.084  0.00  0.00    +0.000 A 
ATOM     17  C   UNL     1      -6.595   1.011  10.279  0.00  0.00    +0.001 A 
ATOM     18  C   UNL     1      -5.744   2.082  10.465  0.00  0.00    +0.008 A 
ENDBRANCH  12  13
ENDBRANCH   5   7
ENDBRANCH   2   3
BRANCH   2  19
ATOM     19  S   UNL     1      -1.480   4.022   4.191  0.00  0.00    -0.072 S 
BRANCH  19  20
ATOM     20  C   UNL     1      -1.317   2.753   2.980  0.00  0.00    +0.209 A 
ATOM     21  N   UNL     1      -2.014   1.643   2.914  0.00  0.00    -0.121 NA
ATOM     22  N   UNL     1      -1.631   0.947   1.903  0.00  0.00    -0.128 NA
ATOM     23  C   UNL     1      -0.677   1.567   1.269  0.00  0.00    +0.189 A 
ATOM     24  N   UNL     1      -0.438   2.737   1.935  0.00  0.00    -0.225 N 
BRANCH  24  25
ATOM     25  N   UNL     1       0.485   3.693   1.618  0.00  0.00    -0.295 N 
ATOM     26  H   UNL     1       0.093   4.382   0.995  0.00  0.00    +0.163 HD
ATOM     27  H   UNL     1       0.856   4.127   2.450  0.00  0.00    +0.163 HD
ENDBRANCH  24  25
BRANCH  23  28
ATOM     28  C   UNL     1       0.037   1.081   0.034  0.00  0.00    +0.306 C 
BRANCH  28  29
ATOM     29  O   UNL     1      -0.651   1.546  -1.129  0.00  0.00    -0.484 OA
BRANCH  29  30
ATOM     30  C   UNL     1      -0.133   1.193  -2.335  0.00  0.00    +0.121 A 
ATOM     31  C   UNL     1       1.016   0.420  -2.398  0.00  0.00    +0.048 A 
ATOM     32  C   UNL     1       1.538   0.056  -3.624  0.00  0.00    +0.042 A 
ATOM     33  C   UNL     1       0.920   0.474  -4.791  0.00  0.00    +0.124 A 
ATOM     34  C   UNL     1      -0.224   1.251  -4.730  0.00  0.00    +0.042 A 
ATOM     35  C   UNL     1      -0.751   1.611  -3.505  0.00  0.00    +0.048 A 
ATOM     36  F   UNL     1       1.434   0.123  -5.990  0.00  0.00    -0.205 F 
ENDBRANCH  29  30
ENDBRANCH  28  29
ENDBRANCH  23  28
ENDBRANCH  19  20
ENDBRANCH   2  19
TORSDOF 9
