REMARK  Name = ZINC15509687
REMARK  12 active torsions:
REMARK  status: ('A' for Active; 'I' for Inactive)
REMARK    1  A    between atoms: C_1  and  C_2
REMARK    2  A    between atoms: C_3  and  C_30
REMARK    3  A    between atoms: C_11  and  C_13
REMARK    4  A    between atoms: C_13  and  C_15
REMARK    5  A    between atoms: C_13  and  N_16
REMARK    6  A    between atoms: N_16  and  C_17
REMARK    7  A    between atoms: C_17  and  C_19
REMARK    8  A    between atoms: C_17  and  C_20
REMARK    9  A    between atoms: C_22  and  O_28
REMARK   10  A    between atoms: C_25  and  O_26
REMARK   11  A    between atoms: O_26  and  C_27
REMARK   12  A    between atoms: O_28  and  C_29
REMARK                            x       y       z     vdW  Elec       q    Type
REMARK                         _______ _______ _______ _____ _____    ______ ____
ROOT
ATOM      1  C   UNL     1       0.090  -3.432   4.547  0.00  0.00    -0.007 C 
ATOM      2  C   UNL     1      -1.088  -3.129   5.476  0.00  0.00    -0.006 C 
ENDROOT
BRANCH   1  13
ATOM      3  C   UNL     1      -0.018   1.503   0.010  0.00  0.00    +0.045 C 
ATOM      4  C   UNL     1       0.002  -0.004   0.002  0.00  0.00    -0.026 A 
ATOM      5  C   UNL     1       0.006  -0.677  -1.160  0.00  0.00    -0.008 A 
ATOM      6  S   UNL     1       0.032  -2.385  -0.648  0.00  0.00    -0.073 S 
ATOM      7  C   UNL     1       0.037  -2.144   1.110  0.00  0.00    +0.116 A 
ATOM      8  C   UNL     1       0.024  -0.745   1.250  0.00  0.00    +0.075 A 
ATOM      9  C   UNL     1       0.029  -0.257   2.597  0.00  0.00    +0.260 A 
ATOM     10  O   UNL     1       0.014   0.942   2.821  0.00  0.00    -0.267 OA
ATOM     11  N   UNL     1       0.051  -1.142   3.611  0.00  0.00    -0.312 N 
ATOM     12  H   UNL     1       0.054  -0.817   4.525  0.00  0.00    +0.170 HD
ATOM     13  C   UNL     1       0.067  -2.480   3.380  0.00  0.00    +0.097 A 
ATOM     14  N   UNL     1       0.053  -2.956   2.163  0.00  0.00    -0.228 NA
ATOM     15  C   UNL     1      -0.009  -0.122  -2.561  0.00  0.00    +0.052 C 
ENDBRANCH   1  13
BRANCH   1  16
ATOM     16  N   UNL     1      -0.016  -4.812   4.056  0.00  0.00    +0.390 N 
ATOM     17  H   UNL     1      -0.917  -4.946   3.620  0.00  0.00    -0.084 HD
ATOM     18  H   UNL     1       0.713  -4.986   3.380  0.00  0.00    -0.084 HD
BRANCH  16  19
ATOM     19  C   UNL     1       0.126  -5.745   5.181  0.00  0.00    -0.039 C 
ATOM     20  C   UNL     1       1.537  -5.631   5.763  0.00  0.00    -0.009 C 
BRANCH  19  21
ATOM     21  C   UNL     1      -0.105  -7.154   4.698  0.00  0.00    -0.016 A 
ATOM     22  C   UNL     1       0.118  -7.475   3.373  0.00  0.00    +0.051 A 
ATOM     23  C   UNL     1      -0.094  -8.772   2.929  0.00  0.00    +0.121 A 
ATOM     24  C   UNL     1      -0.530  -9.746   3.815  0.00  0.00    +0.049 A 
ATOM     25  C   UNL     1      -0.752  -9.425   5.139  0.00  0.00    +0.049 A 
ATOM     26  C   UNL     1      -0.535  -8.129   5.585  0.00  0.00    +0.122 A 
BRANCH  26  27
ATOM     27  O   UNL     1      -0.749  -7.815   6.891  0.00  0.00    -0.495 OA
ATOM     28  C   UNL     1      -1.191  -8.869   7.748  0.00  0.00    +0.277 C 
ENDBRANCH  26  27
BRANCH  23  29
ATOM     29  O   UNL     1       0.124  -9.088   1.624  0.00  0.00    -0.495 OA
ATOM     30  C   UNL     1      -0.114 -10.442   1.236  0.00  0.00    +0.277 C 
ENDBRANCH  23  29
ENDBRANCH  19  21
ENDBRANCH  16  19
ENDBRANCH   1  16
TORSDOF 6
