REMARK  Name = ZINC05149807
REMARK  3 active torsions:
REMARK  status: ('A' for Active; 'I' for Inactive)
REMARK    1  A    between atoms: C_4  and  C_7
REMARK    2  A    between atoms: C_19  and  O_31
REMARK    3  A    between atoms: C_23  and  C_25
REMARK                            x       y       z     vdW  Elec       q    Type
REMARK                         _______ _______ _______ _____ _____    ______ ____
ROOT
ATOM      1  C   UNL     1      -0.016   1.335   0.009  0.00  0.00    +0.182 A 
ATOM      2  N   UNL     1       0.002  -0.004   0.002  0.00  0.00    -0.206 NA
ATOM      3  C   UNL     1       1.244  -0.425  -0.012  0.00  0.00    +0.167 A 
ATOM      4  C   UNL     1       1.818  -1.707  -0.026  0.00  0.00    +0.070 A 
ATOM      5  C   UNL     1       3.186  -1.770  -0.034  0.00  0.00    +0.230 A 
ATOM      6  N   UNL     1       3.925  -0.649  -0.035  0.00  0.00    -0.201 NA
ATOM      7  C   UNL     1       3.415   0.559  -0.026  0.00  0.00    +0.229 A 
ATOM      8  N   UNL     1       2.065   0.689  -0.014  0.00  0.00    -0.201 N 
ATOM      9  N   UNL     1       1.226   1.794   0.000  0.00  0.00    -0.143 NA
ATOM     10  O   UNL     1       3.815  -2.967  -0.040  0.00  0.00    -0.437 OA
ATOM     11  C   UNL     1       3.163  -4.081  -0.452  0.00  0.00    +0.138 A 
ATOM     12  C   UNL     1       3.898  -5.188  -0.860  0.00  0.00    +0.092 A 
ATOM     13  C   UNL     1       3.248  -6.335  -1.283  0.00  0.00    +0.120 A 
ATOM     14  C   UNL     1       1.861  -6.379  -1.300  0.00  0.00    +0.046 A 
ATOM     15  C   UNL     1       1.131  -5.278  -0.894  0.00  0.00    +0.012 A 
ATOM     16  C   UNL     1       1.778  -4.131  -0.471  0.00  0.00    +0.007 A 
ATOM     17  C   UNL     1       0.968  -2.940  -0.032  0.00  0.00    +0.091 C 
ENDROOT
BRANCH   1  21
ATOM     18  C   UNL     1      -3.522   3.741   0.039  0.00  0.00    +0.000 A 
ATOM     19  C   UNL     1      -2.275   4.340   0.036  0.00  0.00    +0.001 A 
ATOM     20  C   UNL     1      -1.134   3.564   0.027  0.00  0.00    +0.011 A 
ATOM     21  C   UNL     1      -1.240   2.175   0.020  0.00  0.00    +0.021 A 
ATOM     22  C   UNL     1      -2.498   1.577   0.017  0.00  0.00    +0.011 A 
ATOM     23  C   UNL     1      -3.633   2.363   0.033  0.00  0.00    +0.001 A 
ENDBRANCH   1  21
BRANCH  17  24
ATOM     24  C   UNL     1       0.436  -3.187   1.356  0.00  0.00    -0.035 A 
ATOM     25  C   UNL     1       1.313  -3.394   2.405  0.00  0.00    +0.004 A 
ATOM     26  C   UNL     1       0.825  -3.616   3.679  0.00  0.00    +0.000 A 
ATOM     27  C   UNL     1      -0.539  -3.641   3.903  0.00  0.00    +0.000 A 
ATOM     28  C   UNL     1      -1.415  -3.438   2.853  0.00  0.00    +0.000 A 
ATOM     29  C   UNL     1      -0.927  -3.212   1.580  0.00  0.00    +0.004 A 
ENDBRANCH  17  24
BRANCH  13  30
ATOM     30  O   UNL     1       3.967  -7.417  -1.682  0.00  0.00    -0.507 OA
ATOM     31  H   UNL     1       4.176  -7.424  -2.627  0.00  0.00    +0.292 HD
ENDBRANCH  13  30
TORSDOF 3
