REMARK  Name = ZINC05446498
REMARK  4 active torsions:
REMARK  status: ('A' for Active; 'I' for Inactive)
REMARK    1  A    between atoms: C_6  and  C_7
REMARK    2  A    between atoms: N_8  and  N_9
REMARK    3  A    between atoms: C_10  and  C_12
REMARK    4  A    between atoms: C_14  and  C_18
REMARK                            x       y       z     vdW  Elec       q    Type
REMARK                         _______ _______ _______ _____ _____    ______ ____
ROOT
ATOM      1  N   UNL     1       0.910  -2.818  -0.021  0.00  0.00    -0.202 N 
ATOM      2  C   UNL     1       1.791  -1.798  -0.025  0.00  0.00    +0.281 C 
ATOM      3  O   UNL     1       2.986  -2.027  -0.038  0.00  0.00    -0.267 OA
ATOM      4  H   UNL     1      -0.171  -2.611  -0.009  0.00  0.00    +0.178 HD
ENDROOT
BRANCH   2   5
ATOM      5  C   UNL     1       1.309  -0.408  -0.013  0.00  0.00    +0.122 A 
ATOM      6  C   UNL     1       2.089   0.727  -0.014  0.00  0.00    +0.063 A 
ATOM      7  C   UNL     1       1.227   1.835   0.000  0.00  0.00    +0.100 A 
ATOM      8  N   UNL     1      -0.017   1.396   0.010  0.00  0.00    -0.173 NA
ATOM      9  N   UNL     1       0.002  -0.004   0.002  0.00  0.00    -0.272 N 
ATOM     10  H   UNL     1      -0.805  -0.752   0.006  0.00  0.00    +0.189 HD
BRANCH   7  11
ATOM     11  C   UNL     1       1.643   3.255   0.004  0.00  0.00    +0.041 A 
ATOM     12  C   UNL     1       0.865   4.381   0.012  0.00  0.00    +0.019 A 
ATOM     13  C   UNL     1       1.483   5.613   0.018  0.00  0.00    +0.028 A 
ATOM     14  C   UNL     1       2.840   5.672   0.004  0.00  0.00    +0.079 A 
ATOM     15  S   UNL     1       3.289   3.945  -0.009  0.00  0.00    -0.075 S 
ATOM     16 CL   UNL     1       3.872   7.069   0.001  0.00  0.00    -0.076 Cl
ENDBRANCH   7  11
ENDBRANCH   2   5
BRANCH   1  18
ATOM     17  C   UNL     1       0.520  -5.123  -0.029  0.00  0.00    +0.138 C 
ATOM     18  N   UNL     1       1.369  -4.141  -0.033  0.00  0.00    -0.187 NA
BRANCH  17  24
ATOM     19  C   UNL     1       2.375  -6.782  -0.062  0.00  0.00    +0.011 A 
ATOM     20  C   UNL     1       2.821  -8.087  -0.068  0.00  0.00    +0.020 A 
ATOM     21  C   UNL     1       1.913  -9.133  -0.065  0.00  0.00    +0.041 A 
ATOM     22  C   UNL     1       0.552  -8.875  -0.049  0.00  0.00    +0.020 A 
ATOM     23  C   UNL     1       0.093  -7.575  -0.038  0.00  0.00    +0.011 A 
ATOM     24  C   UNL     1       1.004  -6.516  -0.042  0.00  0.00    -0.005 A 
ATOM     25 CL   UNL     1       2.482 -10.772  -0.080  0.00  0.00    -0.084 Cl
ENDBRANCH  17  24
ENDBRANCH   1  18
TORSDOF 4
