REMARK  Name = ZINC64813866
REMARK  8 active torsions:
REMARK  status: ('A' for Active; 'I' for Inactive)
REMARK    1  A    between atoms: C_1  and  C_2
REMARK    2  A    between atoms: C_5  and  C_8
REMARK    3  A    between atoms: N_14  and  C_33
REMARK    4  A    between atoms: C_15  and  C_32
REMARK    5  A    between atoms: C_16  and  C_19
REMARK    6  A    between atoms: C_19  and  C_20
REMARK    7  A    between atoms: N_22  and  C_23
REMARK    8  A    between atoms: C_33  and  C_34
REMARK                            x       y       z     vdW  Elec       q    Type
REMARK                         _______ _______ _______ _____ _____    ______ ____
ROOT
ATOM      1  C   UNL     1       0.446  -4.195  -0.155  0.00  0.00    +0.147 C 
ATOM      2  N   UNL     1       0.282  -4.966  -1.189  0.00  0.00    -0.158 NA
ATOM      3  N   UNL     1       0.243  -6.297  -0.808  0.00  0.00    -0.150 N 
ATOM      4  C   UNL     1       0.098  -6.297   0.669  0.00  0.00    +0.279 C 
ATOM      5  N   UNL     1       0.462  -4.924   1.032  0.00  0.00    -0.293 N 
ATOM      6  N   UNL     1       1.054  -7.296   1.163  0.00  0.00    -0.295 N 
ATOM      7  C   UNL     1       1.073  -8.511   0.513  0.00  0.00    +0.015 C 
ATOM      8  C   UNL     1       0.715  -8.605  -0.785  0.00  0.00    +0.042 C 
ATOM      9  C   UNL     1       0.337  -7.444  -1.505  0.00  0.00    +0.267 C 
ATOM     10  O   UNL     1       0.082  -7.492  -2.696  0.00  0.00    -0.268 OA
ATOM     11  C   UNL     1       1.500  -9.748   1.260  0.00  0.00    +0.061 C 
ATOM     12  H   UNL     1       0.669  -4.590   1.919  0.00  0.00    +0.151 HD
ENDROOT
BRANCH   1  17
ATOM     13  C   UNL     1       1.050   1.521  -0.447  0.00  0.00    +0.044 C 
ATOM     14  C   UNL     1       0.892   0.024  -0.371  0.00  0.00    -0.050 A 
ATOM     15  C   UNL     1       0.718  -0.710  -1.530  0.00  0.00    +0.004 A 
ATOM     16  C   UNL     1       0.572  -2.081  -1.468  0.00  0.00    +0.011 A 
ATOM     17  C   UNL     1       0.602  -2.726  -0.230  0.00  0.00    +0.016 A 
ATOM     18  C   UNL     1       0.778  -1.980   0.935  0.00  0.00    +0.011 A 
ATOM     19  C   UNL     1       0.927  -0.610   0.858  0.00  0.00    +0.004 A 
ENDBRANCH   1  17
BRANCH   8  20
ATOM     20  C   UNL     1       0.734  -9.946  -1.472  0.00  0.00    +0.137 C 
BRANCH  20  21
ATOM     21  C   UNL     1       2.052 -10.130  -2.179  0.00  0.00    +0.220 C 
ATOM     22  O   UNL     1       2.894  -9.259  -2.128  0.00  0.00    -0.275 OA
ATOM     23  N   UNL     1       2.296 -11.264  -2.866  0.00  0.00    -0.278 N 
ATOM     24  H   UNL     1       1.622 -11.961  -2.906  0.00  0.00    +0.152 HD
BRANCH  23  25
ATOM     25  C   UNL     1       3.577 -11.443  -3.552  0.00  0.00    +0.269 C 
ATOM     26  N   UNL     1       3.586 -10.685  -4.809  0.00  0.00    -0.348 N 
ATOM     27  C   UNL     1       3.752 -11.537  -5.779  0.00  0.00    +0.061 A 
ATOM     28  C   UNL     1       3.843 -11.386  -7.238  0.00  0.00    +0.027 A 
ATOM     29  C   UNL     1       4.020 -12.477  -8.010  0.00  0.00    +0.002 A 
ATOM     30  C   UNL     1       4.124 -13.774  -7.477  0.00  0.00    +0.002 A 
ATOM     31  C   UNL     1       4.053 -14.024  -6.154  0.00  0.00    +0.027 A 
ATOM     32  C   UNL     1       3.862 -12.910  -5.215  0.00  0.00    +0.061 A 
ATOM     33  N   UNL     1       3.760 -12.853  -3.918  0.00  0.00    -0.348 N 
ATOM     34  H   UNL     1       3.487  -9.724  -4.901  0.00  0.00    +0.163 HD
ATOM     35  H   UNL     1       3.798 -13.605  -3.306  0.00  0.00    +0.163 HD
ENDBRANCH  23  25
ENDBRANCH  20  21
ENDBRANCH   8  20
BRANCH   6  36
ATOM     36  C   UNL     1       1.945  -7.015   2.291  0.00  0.00    +0.135 C 
BRANCH  36  37
ATOM     37  C   UNL     1       1.269  -7.415   3.577  0.00  0.00    -0.016 C 
ATOM     38  C   UNL     1       1.861  -8.247   4.397  0.00  0.00    +0.005 C 
ENDBRANCH  36  37
ENDBRANCH   6  36
TORSDOF 6
