REMARK  Name = ZINC19534479
REMARK  12 active torsions:
REMARK  status: ('A' for Active; 'I' for Inactive)
REMARK    1  A    between atoms: C_1  and  C_2
REMARK    2  A    between atoms: C_2  and  O_3
REMARK    3  A    between atoms: O_3  and  C_4
REMARK    4  A    between atoms: C_4  and  C_6
REMARK    5  A    between atoms: C_7  and  C_22
REMARK    6  A    between atoms: C_12  and  C_14
REMARK    7  A    between atoms: C_17  and  O_20
REMARK    8  A    between atoms: O_20  and  C_21
REMARK    9  A    between atoms: C_22  and  N_23
REMARK   10  A    between atoms: N_23  and  C_24
REMARK   11  A    between atoms: N_23  and  C_25
REMARK   12  A    between atoms: C_25  and  C_26
REMARK                            x       y       z     vdW  Elec       q    Type
REMARK                         _______ _______ _______ _____ _____    ______ ____
ROOT
ATOM      1  C   UNL     1      -0.708   1.675   3.583  0.00  0.00    +0.076 C 
ATOM      2  C   UNL     1      -0.317   1.171   4.774  0.00  0.00    +0.008 C 
ATOM      3  N   UNL     1      -0.961   1.513   5.929  0.00  0.00    -0.274 N 
ATOM      4  C   UNL     1      -2.011   2.343   5.976  0.00  0.00    +0.304 C 
ATOM      5  O   UNL     1      -2.522   2.584   7.052  0.00  0.00    -0.252 OA
ATOM      6  N   UNL     1      -2.519   2.920   4.869  0.00  0.00    -0.288 N 
ATOM      7  C   UNL     1      -1.891   2.621   3.571  0.00  0.00    +0.143 C 
ATOM      8  H   UNL     1      -0.623   1.099   6.890  0.00  0.00    +0.156 HD
ATOM      9  H   UNL     1      -3.382   3.601   4.919  0.00  0.00    +0.151 HD
ENDROOT
BRANCH   7  10
ATOM     10  C   UNL     1      -1.439   3.923   2.964  0.00  0.00    -0.022 A 
ATOM     11  C   UNL     1      -0.742   4.838   3.731  0.00  0.00    +0.009 A 
ATOM     12  C   UNL     1      -0.321   6.030   3.175  0.00  0.00    +0.046 A 
ATOM     13  C   UNL     1      -0.609   6.315   1.848  0.00  0.00    +0.120 A 
ATOM     14  C   UNL     1      -1.313   5.398   1.081  0.00  0.00    +0.046 A 
ATOM     15  C   UNL     1      -1.727   4.205   1.641  0.00  0.00    +0.009 A 
BRANCH  13  16
ATOM     16  O   UNL     1      -0.200   7.489   1.300  0.00  0.00    -0.495 OA
ATOM     17  C   UNL     1       0.521   8.385   2.148  0.00  0.00    +0.277 C 
ENDBRANCH  13  16
ENDBRANCH   7  10
BRANCH   1  18
ATOM     18  C   UNL     1      -0.039   1.326   2.387  0.00  0.00    +0.339 C 
ATOM     19  O   UNL     1       0.782   2.084   1.905  0.00  0.00    -0.245 OA
BRANCH  18  20
ATOM     20  O   UNL     1      -0.310   0.152   1.779  0.00  0.00    -0.462 OA
BRANCH  20  22
ATOM     21  C   UNL     1      -0.036  -1.499   0.036  0.00  0.00    +0.048 C 
ATOM     22  C   UNL     1       0.403  -0.136   0.575  0.00  0.00    +0.229 C 
ENDBRANCH  20  22
ENDBRANCH  18  20
ENDBRANCH   1  18
BRANCH   2  23
ATOM     23  C   UNL     1       0.852   0.222   4.830  0.00  0.00    -0.026 C 
BRANCH  23  24
ATOM     24  N   UNL     1       1.945   0.836   5.596  0.00  0.00    +0.384 N 
ATOM     25  C   UNL     1       2.482   2.012   4.898  0.00  0.00    -0.095 C 
ATOM     26  H   UNL     1       1.534   1.173   6.559  0.00  0.00    -0.081 HD
BRANCH  24  27
ATOM     27  C   UNL     1       3.006  -0.141   5.875  0.00  0.00    -0.043 C 
BRANCH  27  28
ATOM     28  C   UNL     1       3.983   0.446   6.861  0.00  0.00    -0.061 A 
ATOM     29  C   UNL     1       5.080   1.154   6.408  0.00  0.00    +0.002 A 
ATOM     30  C   UNL     1       5.975   1.698   7.311  0.00  0.00    +0.003 A 
ATOM     31  C   UNL     1       5.778   1.524   8.668  0.00  0.00    +0.038 A 
ATOM     32  C   UNL     1       4.682   0.811   9.123  0.00  0.00    +0.124 A 
ATOM     33  C   UNL     1       3.784   0.272   8.217  0.00  0.00    +0.040 A 
ATOM     34  F   UNL     1       4.490   0.641  10.449  0.00  0.00    -0.205 F 
ENDBRANCH  27  28
ENDBRANCH  24  27
ENDBRANCH  23  24
ENDBRANCH   2  23
TORSDOF 9
