REMARK  Name = ZINC27669463
REMARK  11 active torsions:
REMARK  status: ('A' for Active; 'I' for Inactive)
REMARK    1  A    between atoms: C_1  and  O_2
REMARK    2  A    between atoms: O_2  and  C_3
REMARK    3  A    between atoms: C_6  and  C_9
REMARK    4  A    between atoms: C_9  and  C_11
REMARK    5  A    between atoms: C_9  and  N_28
REMARK    6  A    between atoms: C_11  and  N_12
REMARK    7  A    between atoms: C_13  and  C_15
REMARK    8  A    between atoms: C_15  and  C_16
REMARK    9  A    between atoms: C_16  and  C_17
REMARK   10  A    between atoms: C_17  and  N_18
REMARK   11  A    between atoms: N_21  and  C_22
REMARK                            x       y       z     vdW  Elec       q    Type
REMARK                         _______ _______ _______ _____ _____    ______ ____
ROOT
ATOM      1  N   UNL     1       4.515  -3.653  -5.121  0.00  0.00    -0.317 N 
ATOM      2  C   UNL     1       5.771  -4.127  -4.998  0.00  0.00    +0.213 C 
ATOM      3  O   UNL     1       6.433  -3.844  -4.023  0.00  0.00    -0.276 OA
ATOM      4  H   UNL     1       3.985  -3.879  -5.901  0.00  0.00    +0.149 HD
ENDROOT
BRANCH   1   5
ATOM      5  C   UNL     1       3.951  -2.795  -4.075  0.00  0.00    +0.093 C 
BRANCH   5   6
ATOM      6  C   UNL     1       2.575  -2.291  -4.517  0.00  0.00    -0.020 C 
BRANCH   6   7
ATOM      7  N   UNL     1       1.975  -1.496  -3.437  0.00  0.00    +0.385 N 
ATOM      8  C   UNL     1       1.785  -2.345  -2.254  0.00  0.00    -0.078 C 
ATOM      9  C   UNL     1       1.236  -1.504  -1.101  0.00  0.00    -0.019 C 
ATOM     10  C   UNL     1      -0.107  -0.895  -1.514  0.00  0.00    -0.004 C 
ATOM     11  C   UNL     1       0.089  -0.072  -2.791  0.00  0.00    -0.019 C 
ATOM     12  C   UNL     1       0.681  -0.966  -3.882  0.00  0.00    -0.078 C 
ATOM     13  H   UNL     1       2.589  -0.730  -3.203  0.00  0.00    -0.081 HD
ENDBRANCH   6   7
BRANCH   6  17
ATOM     14  C   UNL     1       3.001   0.140  -8.005  0.00  0.00    +0.120 A 
ATOM     15  C   UNL     1       2.594  -1.181  -8.124  0.00  0.00    +0.046 A 
ATOM     16  C   UNL     1       2.458  -1.965  -6.995  0.00  0.00    +0.005 A 
ATOM     17  C   UNL     1       2.726  -1.434  -5.747  0.00  0.00    -0.059 A 
ATOM     18  C   UNL     1       3.131  -0.117  -5.626  0.00  0.00    +0.005 A 
ATOM     19  C   UNL     1       3.275   0.669  -6.752  0.00  0.00    +0.046 A 
BRANCH  14  21
ATOM     20  C   UNL     1       2.838   0.303 -10.372  0.00  0.00    +0.277 C 
ATOM     21  O   UNL     1       3.137   0.913  -9.115  0.00  0.00    -0.495 OA
ENDBRANCH  14  21
ENDBRANCH   6  17
ENDBRANCH   5   6
ENDBRANCH   1   5
BRANCH   2  22
ATOM     22  C   UNL     1       6.351  -5.009  -6.074  0.00  0.00    +0.097 C 
BRANCH  22  23
ATOM     23  C   UNL     1       7.778  -5.406  -5.692  0.00  0.00    +0.028 C 
BRANCH  23  24
ATOM     24  C   UNL     1       8.368  -6.302  -6.784  0.00  0.00    +0.106 C 
BRANCH  24  25
ATOM     25  N   UNL     1       9.735  -6.682  -6.418  0.00  0.00    -0.299 N 
ATOM     26  C   UNL     1      10.455  -7.475  -7.236  0.00  0.00    +0.300 C 
ATOM     27  O   UNL     1       9.971  -7.873  -8.278  0.00  0.00    -0.253 OA
ATOM     28  N   UNL     1      11.712  -7.825  -6.900  0.00  0.00    -0.297 N 
ATOM     29  H   UNL     1      10.121  -6.364  -5.587  0.00  0.00    +0.150 HD
ATOM     30  H   UNL     1      12.099  -7.506  -6.069  0.00  0.00    +0.151 HD
BRANCH  28  31
ATOM     31  C   UNL     1      12.496  -8.686  -7.789  0.00  0.00    +0.074 C 
ATOM     32  C   UNL     1      12.167 -10.152  -7.500  0.00  0.00    +0.022 C 
ATOM     33  C   UNL     1      12.985 -11.051  -8.428  0.00  0.00    +0.002 C 
ATOM     34  C   UNL     1      14.476 -10.807  -8.191  0.00  0.00    +0.000 C 
ATOM     35  C   UNL     1      14.805  -9.341  -8.481  0.00  0.00    +0.002 C 
ATOM     36  C   UNL     1      13.987  -8.442  -7.552  0.00  0.00    +0.022 C 
ENDBRANCH  28  31
ENDBRANCH  24  25
ENDBRANCH  23  24
ENDBRANCH  22  23
ENDBRANCH   2  22
TORSDOF 10
