REMARK  Name = ZINC01168199
REMARK  7 active torsions:
REMARK  status: ('A' for Active; 'I' for Inactive)
REMARK    1  A    between atoms: C_1  and  C_2
REMARK    2  A    between atoms: C_2  and  O_4
REMARK    3  A    between atoms: O_4  and  C_5
REMARK    4  A    between atoms: C_8  and  C_13
REMARK    5  A    between atoms: C_10  and  O_11
REMARK    6  A    between atoms: O_11  and  C_12
REMARK    7  A    between atoms: C_18  and  C_23
REMARK                            x       y       z     vdW  Elec       q    Type
REMARK                         _______ _______ _______ _____ _____    ______ ____
ROOT
ATOM      1  C   UNL     1      -2.510   1.033  -0.594  0.00  0.00    +0.136 C 
ATOM      2  C   UNL     1      -2.611   0.559  -2.025  0.00  0.00    +0.036 C 
ATOM      3  C   UNL     1      -2.506  -0.713  -2.444  0.00  0.00    +0.017 C 
ATOM      4  C   UNL     1      -2.601  -1.047  -3.923  0.00  0.00    +0.059 C 
ATOM      5  C   UNL     1      -3.552  -0.073  -4.617  0.00  0.00    +0.032 C 
ATOM      6  C   UNL     1      -2.994   1.342  -4.425  0.00  0.00    +0.088 C 
ATOM      7  C   UNL     1      -2.840   1.600  -2.956  0.00  0.00    +0.163 C 
ATOM      8  O   UNL     1      -2.915   2.743  -2.551  0.00  0.00    -0.292 OA
ATOM      9  N   UNL     1      -2.309  -1.784  -1.633  0.00  0.00    -0.316 N 
ATOM     10  C   UNL     1      -1.365  -1.844  -0.614  0.00  0.00    +0.052 A 
ATOM     11  C   UNL     1      -0.299  -2.726  -0.645  0.00  0.00    +0.025 A 
ATOM     12  C   UNL     1       0.580  -2.765   0.425  0.00  0.00    +0.002 A 
ATOM     13  C   UNL     1       0.391  -1.933   1.513  0.00  0.00    +0.002 A 
ATOM     14  C   UNL     1      -0.665  -1.039   1.538  0.00  0.00    +0.025 A 
ATOM     15  C   UNL     1      -1.534  -0.983   0.460  0.00  0.00    +0.049 A 
ATOM     16  N   UNL     1      -2.545  -0.029   0.389  0.00  0.00    -0.331 N 
ATOM     17  H   UNL     1      -2.868  -2.564  -1.776  0.00  0.00    +0.152 HD
ATOM     18  H   UNL     1      -3.285  -0.076   1.013  0.00  0.00    +0.147 HD
ENDROOT
BRANCH   5  19
ATOM     19  C   UNL     1      -3.633  -0.396  -6.087  0.00  0.00    -0.040 A 
ATOM     20  C   UNL     1      -2.486  -0.387  -6.859  0.00  0.00    +0.008 A 
ATOM     21  C   UNL     1      -2.555  -0.682  -8.207  0.00  0.00    +0.050 A 
ATOM     22  C   UNL     1      -3.774  -0.989  -8.789  0.00  0.00    +0.166 A 
ATOM     23  C   UNL     1      -4.929  -0.999  -8.011  0.00  0.00    +0.166 A 
ATOM     24  C   UNL     1      -4.852  -0.706  -6.659  0.00  0.00    +0.053 A 
ATOM     25  O   UNL     1      -5.989  -1.327  -8.807  0.00  0.00    -0.453 OA
ATOM     26  C   UNL     1      -5.534  -1.119 -10.157  0.00  0.00    +0.466 C 
ATOM     27  O   UNL     1      -4.109  -1.312 -10.072  0.00  0.00    -0.453 OA
ENDBRANCH   5  19
BRANCH   1  31
ATOM     28  C   UNL     1       1.159   3.183  -0.141  0.00  0.00    +0.173 A 
ATOM     29  C   UNL     1       1.178   1.836  -0.464  0.00  0.00    +0.050 A 
ATOM     30  C   UNL     1      -0.009   1.143  -0.606  0.00  0.00    +0.009 A 
ATOM     31  C   UNL     1      -1.218   1.792  -0.432  0.00  0.00    -0.019 A 
ATOM     32  C   UNL     1      -1.243   3.135  -0.104  0.00  0.00    +0.055 A 
ATOM     33  C   UNL     1      -0.057   3.836   0.039  0.00  0.00    +0.163 A 
BRANCH  33  34
ATOM     34  O   UNL     1      -0.080   5.158   0.356  0.00  0.00    -0.491 OA
ATOM     35  C   UNL     1      -1.364   5.761   0.526  0.00  0.00    +0.277 C 
ENDBRANCH  33  34
BRANCH  28  36
ATOM     36  O   UNL     1       2.327   3.867  -0.002  0.00  0.00    -0.422 OA
BRANCH  36  38
ATOM     37  C   UNL     1       4.008   4.888   1.490  0.00  0.00    +0.136 C 
ATOM     38  C   UNL     1       2.784   4.043   1.248  0.00  0.00    +0.309 C 
ATOM     39  O   UNL     1       2.215   3.523   2.179  0.00  0.00    -0.251 OA
ENDBRANCH  36  38
ENDBRANCH  28  36
ENDBRANCH   1  31
TORSDOF 5
