REMARK  Name = ZINC21237498
REMARK  5 active torsions:
REMARK  status: ('A' for Active; 'I' for Inactive)
REMARK    1  A    between atoms: C_1  and  C_2
REMARK    2  A    between atoms: C_2  and  C_4
REMARK    3  A    between atoms: C_2  and  N_12
REMARK    4  A    between atoms: C_13  and  C_15
REMARK    5  A    between atoms: C_15  and  N_16
REMARK                            x       y       z     vdW  Elec       q    Type
REMARK                         _______ _______ _______ _____ _____    ______ ____
ROOT
ATOM      1  N   UNL     1      -0.018  -1.985   4.488  0.00  0.00    -0.215 N 
ATOM      2  C   UNL     1      -1.052  -2.254   5.313  0.00  0.00    +0.252 C 
ATOM      3  O   UNL     1      -1.748  -1.456   5.903  0.00  0.00    -0.272 OA
ATOM      4  C   UNL     1      -1.160  -3.761   5.345  0.00  0.00    +0.144 C 
ATOM      5  C   UNL     1      -2.514  -4.212   4.805  0.00  0.00    +0.081 C 
ATOM      6  C   UNL     1      -3.576  -3.940   5.879  0.00  0.00    +0.232 C 
ATOM      7  O   UNL     1      -3.281  -4.745   7.021  0.00  0.00    -0.492 OA
ATOM      8  C   UNL     1      -2.013  -4.727   7.506  0.00  0.00    +0.126 A 
ATOM      9  C   UNL     1      -0.950  -4.268   6.744  0.00  0.00    +0.027 A 
ATOM     10  C   UNL     1       0.328  -4.273   7.275  0.00  0.00    +0.010 A 
ATOM     11  C   UNL     1       0.549  -4.729   8.560  0.00  0.00    +0.001 A 
ATOM     12  C   UNL     1      -0.510  -5.184   9.323  0.00  0.00    +0.004 A 
ATOM     13  C   UNL     1      -1.787  -5.184   8.800  0.00  0.00    +0.046 A 
ATOM     14  N   UNL     1      -0.077  -4.216   4.465  0.00  0.00    -0.281 N 
ATOM     15  C   UNL     1       0.535  -3.106   4.010  0.00  0.00    +0.310 C 
ATOM     16  O   UNL     1       1.484  -3.120   3.250  0.00  0.00    -0.252 OA
ATOM     17  H   UNL     1       0.084  -5.292   4.302  0.00  0.00    +0.152 HD
ENDROOT
BRANCH   1  18
ATOM     18  C   UNL     1       0.444  -0.634   4.162  0.00  0.00    +0.213 C 
BRANCH  18  20
ATOM     19  N   UNL     1      -0.020   1.094   2.454  0.00  0.00    -0.307 N 
ATOM     20  C   UNL     1      -0.285  -0.134   2.941  0.00  0.00    +0.231 C 
ATOM     21  O   UNL     1      -1.109  -0.838   2.397  0.00  0.00    -0.274 OA
ATOM     22  H   UNL     1       0.728   1.732   2.947  0.00  0.00    +0.149 HD
BRANCH  19  24
ATOM     23  C   UNL     1      -0.013   1.086   0.008  0.00  0.00    +0.033 C 
ATOM     24  C   UNL     1      -0.729   1.579   1.267  0.00  0.00    +0.102 C 
BRANCH  24  25
ATOM     25  C   UNL     1      -0.749   3.086   1.275  0.00  0.00    -0.009 A 
ATOM     26  C   UNL     1       0.229   3.787   1.956  0.00  0.00    +0.008 A 
ATOM     27  C   UNL     1       0.211   5.169   1.964  0.00  0.00    +0.020 A 
ATOM     28  C   UNL     1      -0.786   5.852   1.290  0.00  0.00    +0.042 A 
ATOM     29  C   UNL     1      -1.765   5.151   0.608  0.00  0.00    +0.040 A 
ATOM     30  C   UNL     1      -1.743   3.768   0.596  0.00  0.00    +0.047 A 
ATOM     31 CL   UNL     1      -2.967   2.888  -0.265  0.00  0.00    -0.083 Cl
ATOM     32 CL   UNL     1      -0.809   7.588   1.300  0.00  0.00    -0.083 Cl
ENDBRANCH  24  25
ENDBRANCH  19  24
ENDBRANCH  18  20
ENDBRANCH   1  18
TORSDOF 4
