REMARK  Name = ZINC12135954
REMARK  7 active torsions:
REMARK  status: ('A' for Active; 'I' for Inactive)
REMARK    1  A    between atoms: C_3  and  C_6
REMARK    2  A    between atoms: C_7  and  C_8
REMARK    3  A    between atoms: C_8  and  N_59
REMARK    4  A    between atoms: C_11  and  C_14
REMARK    5  A    between atoms: C_11  and  O_33
REMARK    6  A    between atoms: C_21  and  C_23
REMARK    7  A    between atoms: N_25  and  C_26
REMARK                            x       y       z     vdW  Elec       q    Type
REMARK                         _______ _______ _______ _____ _____    ______ ____
ROOT
ATOM      1  C   UNL     1      -0.077   1.491   0.230  0.00  0.00    -0.015 A 
ATOM      2  C   UNL     1       1.111   2.178   0.021  0.00  0.00    +0.010 A 
ATOM      3  C   UNL     1       1.125   3.554  -0.059  0.00  0.00    +0.047 A 
ATOM      4  C   UNL     1      -0.062   4.266   0.068  0.00  0.00    +0.136 A 
ATOM      5  C   UNL     1      -1.264   3.564   0.279  0.00  0.00    +0.021 A 
ATOM      6  C   UNL     1      -1.256   2.169   0.352  0.00  0.00    +0.018 A 
ATOM      7  C   UNL     1      -2.308   4.584   0.369  0.00  0.00    +0.063 A 
ATOM      8  C   UNL     1      -1.681   5.779   0.211  0.00  0.00    +0.191 A 
ATOM      9  O   UNL     1      -0.358   5.580   0.035  0.00  0.00    -0.450 OA
ENDROOT
BRANCH   1  12
ATOM     10  C   UNL     1       1.120  -2.090  -0.404  0.00  0.00    -0.075 C 
ATOM     11  C   UNL     1       1.076  -0.567  -0.543  0.00  0.00    +0.021 C 
ATOM     12  C   UNL     1      -0.066  -0.014   0.315  0.00  0.00    +0.088 C 
ATOM     13  C   UNL     1       0.143  -0.442   1.770  0.00  0.00    +0.021 C 
ATOM     14  C   UNL     1       0.216  -1.969   1.841  0.00  0.00    -0.075 C 
ATOM     15  N   UNL     1       1.349  -2.436   1.015  0.00  0.00    +0.382 N 
ATOM     16  H   UNL     1       2.208  -1.974   1.336  0.00  0.00    -0.081 HD
BRANCH  12  17
ATOM     17  O   UNL     1      -1.312  -0.528  -0.160  0.00  0.00    -0.384 OA
ATOM     18  H   UNL     1      -2.080  -0.220   0.340  0.00  0.00    +0.211 HD
ENDBRANCH  12  17
BRANCH  15  19
ATOM     19  C   UNL     1       1.509  -3.898   1.158  0.00  0.00    -0.051 C 
BRANCH  19  21
ATOM     20  C   UNL     1       0.614  -5.178   3.056  0.00  0.00    +0.040 C 
ATOM     21  C   UNL     1       1.470  -4.258   2.620  0.00  0.00    -0.042 C 
BRANCH  20  24
ATOM     22  C   UNL     1       0.053  -6.460   6.434  0.00  0.00    +0.042 A 
ATOM     23  C   UNL     1      -0.253  -6.446   5.059  0.00  0.00    +0.049 A 
ATOM     24  C   UNL     1       0.575  -5.530   4.483  0.00  0.00    +0.127 A 
ATOM     25  O   UNL     1       1.348  -4.998   5.450  0.00  0.00    -0.464 OA
ATOM     26  C   UNL     1       1.036  -5.558   6.630  0.00  0.00    +0.195 A 
ENDBRANCH  20  24
ENDBRANCH  19  21
ENDBRANCH  15  19
ENDBRANCH   1  12
BRANCH   8  27
ATOM     27  C   UNL     1      -2.344   7.090   0.230  0.00  0.00    +0.284 C 
ATOM     28  O   UNL     1      -3.547   7.162   0.397  0.00  0.00    -0.266 OA
ATOM     29  N   UNL     1      -1.619   8.214   0.063  0.00  0.00    -0.279 N 
ATOM     30  H   UNL     1      -0.652   8.164   0.006  0.00  0.00    +0.155 HD
BRANCH  29  31
ATOM     31  C   UNL     1      -2.262   9.453  -0.030  0.00  0.00    +0.034 A 
ATOM     32  C   UNL     1      -3.511   9.546  -0.628  0.00  0.00    +0.025 A 
ATOM     33  C   UNL     1      -4.146  10.770  -0.714  0.00  0.00    +0.022 A 
ATOM     34  C   UNL     1      -3.532  11.905  -0.214  0.00  0.00    +0.041 A 
ATOM     35  C   UNL     1      -2.284  11.816   0.378  0.00  0.00    +0.022 A 
ATOM     36  C   UNL     1      -1.648  10.594   0.471  0.00  0.00    +0.025 A 
ATOM     37 CL   UNL     1      -4.329  13.443  -0.329  0.00  0.00    -0.084 Cl
ENDBRANCH  29  31
ENDBRANCH   8  27
TORSDOF 7
