REMARK  Name = ZINC44975265
REMARK  9 active torsions:
REMARK  status: ('A' for Active; 'I' for Inactive)
REMARK    1  A    between atoms: C_1  and  C_2
REMARK    2  A    between atoms: C_2  and  C_3
REMARK    3  A    between atoms: C_2  and  C_4
REMARK    4  A    between atoms: C_2  and  O_5
REMARK    5  A    between atoms: O_5  and  C_6
REMARK    6  A    between atoms: C_21  and  C_23
REMARK    7  A    between atoms: N_25  and  C_26
REMARK    8  A    between atoms: C_26  and  C_27
REMARK    9  A    between atoms: C_27  and  C_28
REMARK                            x       y       z     vdW  Elec       q    Type
REMARK                         _______ _______ _______ _____ _____    ______ ____
ROOT
ATOM      1  C   UNL     1       2.032   1.452  -2.867  0.00  0.00    +0.404 C 
ATOM      2  O   UNL     1       2.407   2.060  -1.884  0.00  0.00    -0.226 OA
ATOM      3  N   UNL     1       2.728   0.384  -3.304  0.00  0.00    -0.250 N 
ATOM      4  C   UNL     1       2.235  -0.431  -4.428  0.00  0.00    +0.165 C 
ATOM      5  C   UNL     1       2.409  -1.884  -4.045  0.00  0.00    +0.038 A 
ATOM      6  C   UNL     1       3.126  -2.293  -2.976  0.00  0.00    -0.015 A 
ATOM      7  C   UNL     1       3.058  -3.740  -2.950  0.00  0.00    +0.003 A 
ATOM      8  C   UNL     1       3.601  -4.699  -2.089  0.00  0.00    +0.010 A 
ATOM      9  C   UNL     1       3.324  -6.014  -2.372  0.00  0.00    +0.001 A 
ATOM     10  C   UNL     1       2.546  -6.386  -3.456  0.00  0.00    +0.002 A 
ATOM     11  C   UNL     1       1.997  -5.458  -4.324  0.00  0.00    +0.026 A 
ATOM     12  C   UNL     1       2.261  -4.116  -4.062  0.00  0.00    +0.047 A 
ATOM     13  N   UNL     1       1.887  -2.968  -4.699  0.00  0.00    -0.356 N 
ATOM     14  H   UNL     1       1.334  -2.927  -5.496  0.00  0.00    +0.166 HD
ATOM     15  C   UNL     1       3.838  -1.374  -2.017  0.00  0.00    +0.069 C 
ATOM     16  C   UNL     1       4.004   0.006  -2.677  0.00  0.00    +0.170 C 
ENDROOT
BRANCH  16  17
ATOM     17  C   UNL     1       4.374   1.028  -1.632  0.00  0.00    +0.234 C 
ATOM     18  O   UNL     1       3.833   1.008  -0.546  0.00  0.00    -0.274 OA
ATOM     19  N   UNL     1       5.305   1.963  -1.904  0.00  0.00    -0.313 N 
ATOM     20  H   UNL     1       5.737   1.979  -2.772  0.00  0.00    +0.149 HD
BRANCH  19  21
ATOM     21  C   UNL     1       5.665   2.956  -0.889  0.00  0.00    +0.110 C 
BRANCH  21  22
ATOM     22  C   UNL     1       6.737   3.893  -1.449  0.00  0.00    +0.073 C 
BRANCH  22  23
ATOM     23  C   UNL     1       7.106   4.914  -0.404  0.00  0.00    +0.035 A 
ATOM     24  C   UNL     1       6.460   6.071  -0.165  0.00  0.00    +0.105 A 
ATOM     25  N   UNL     1       7.124   6.691   0.860  0.00  0.00    -0.352 N 
ATOM     26  H   UNL     1       6.897   7.545   1.259  0.00  0.00    +0.166 HD
ATOM     27  C   UNL     1       8.153   5.890   1.211  0.00  0.00    +0.171 A 
ATOM     28  N   UNL     1       8.133   4.827   0.454  0.00  0.00    -0.350 N 
ATOM     29  H   UNL     1       8.763   4.091   0.504  0.00  0.00    +0.166 HD
ENDBRANCH  22  23
ENDBRANCH  21  22
ENDBRANCH  19  21
ENDBRANCH  16  17
BRANCH   1  30
ATOM     30  O   UNL     1       0.921   1.844  -3.519  0.00  0.00    -0.445 OA
BRANCH  30  32
ATOM     31  C   UNL     1       1.168   4.195  -3.014  0.00  0.00    +0.055 C 
ATOM     32  C   UNL     1       0.233   2.984  -3.000  0.00  0.00    +0.107 C 
ATOM     33  C   UNL     1      -0.212   2.700  -1.563  0.00  0.00    +0.055 C 
ATOM     34  C   UNL     1      -0.994   3.276  -3.865  0.00  0.00    +0.055 C 
ENDBRANCH  30  32
ENDBRANCH   1  30
TORSDOF 6
