REMARK  Name = ZINC57312044
REMARK  16 active torsions:
REMARK  status: ('A' for Active; 'I' for Inactive)
REMARK    1  A    between atoms: C_1  and  C_2
REMARK    2  A    between atoms: C_2  and  C_3
REMARK    3  A    between atoms: C_6  and  C_9
REMARK    4  A    between atoms: C_11  and  C_27
REMARK    5  A    between atoms: C_13  and  C_26
REMARK    6  A    between atoms: N_15  and  C_18
REMARK    7  A    between atoms: N_29  and  C_30
REMARK    8  A    between atoms: C_30  and  C_32
REMARK    9  A    between atoms: C_30  and  C_33
REMARK   10  A    between atoms: C_33  and  C_34
REMARK   11  A    between atoms: C_34  and  C_35
REMARK   12  A    between atoms: C_35  and  N_36
REMARK   13  A    between atoms: N_36  and  C_37
REMARK   14  A    between atoms: N_36  and  C_39
REMARK   15  A    between atoms: C_37  and  C_38
REMARK   16  A    between atoms: C_39  and  C_40
REMARK                            x       y       z     vdW  Elec       q    Type
REMARK                         _______ _______ _______ _____ _____    ______ ____
ROOT
ATOM      1  C   UNL     1       2.776  -2.308  -4.941  0.00  0.00    +0.074 A 
ATOM      2  C   UNL     1       4.155  -2.411  -4.731  0.00  0.00    +0.042 A 
ATOM      3  C   UNL     1       5.018  -2.280  -5.813  0.00  0.00    +0.051 A 
ATOM      4  C   UNL     1       4.453  -2.046  -7.088  0.00  0.00    +0.054 A 
ATOM      5  C   UNL     1       4.995  -1.866  -8.377  0.00  0.00    +0.070 A 
ATOM      6  N   UNL     1       4.017  -1.681  -9.218  0.00  0.00    -0.174 NA
ATOM      7  N   UNL     1       2.794  -1.730  -8.539  0.00  0.00    -0.241 N 
ATOM      8  C   UNL     1       3.051  -1.957  -7.211  0.00  0.00    +0.160 A 
ATOM      9  N   UNL     1       2.276  -2.095  -6.146  0.00  0.00    -0.228 NA
ATOM     10  C   UNL     1       6.462  -1.882  -8.725  0.00  0.00    +0.068 C 
ENDROOT
BRANCH   7  11
ATOM     11  C   UNL     1       1.469  -1.566  -9.142  0.00  0.00    +0.132 C 
ATOM     12  C   UNL     1       1.257  -2.634 -10.228  0.00  0.00    +0.051 C 
ATOM     13  C   UNL     1       0.016  -2.280 -11.081  0.00  0.00    +0.168 C 
ATOM     14  S   UNL     1      -0.047  -0.446 -10.961  0.00  0.00    -0.029 S 
ATOM     15  O   UNL     1       0.270   0.112 -12.229  0.00  0.00    -0.174 OA
ATOM     16  O   UNL     1      -1.253  -0.067 -10.312  0.00  0.00    -0.174 OA
ATOM     17  C   UNL     1       1.367  -0.167  -9.813  0.00  0.00    +0.192 C 
ENDBRANCH   7  11
BRANCH   1  21
ATOM     18  C   UNL     1       0.134  -2.710  -1.634  0.00  0.00    -0.048 A 
ATOM     19  C   UNL     1      -0.376  -2.486  -2.900  0.00  0.00    +0.004 A 
ATOM     20  C   UNL     1       0.477  -2.354  -3.977  0.00  0.00    +0.010 A 
ATOM     21  C   UNL     1       1.855  -2.448  -3.787  0.00  0.00    +0.000 A 
ATOM     22  C   UNL     1       2.363  -2.674  -2.509  0.00  0.00    +0.010 A 
ATOM     23  C   UNL     1       1.501  -2.798  -1.439  0.00  0.00    +0.004 A 
BRANCH  18  25
ATOM     24  C   UNL     1      -1.058  -1.476   0.156  0.00  0.00    +0.009 C 
ATOM     25  C   UNL     1      -0.802  -2.852  -0.462  0.00  0.00    +0.032 C 
ENDBRANCH  18  25
ENDBRANCH   1  21
BRANCH   3  26
ATOM     26  C   UNL     1       6.483  -2.381  -5.636  0.00  0.00    +0.245 C 
ATOM     27  O   UNL     1       7.154  -2.981  -6.453  0.00  0.00    -0.270 OA
ATOM     28  N   UNL     1       7.073  -1.809  -4.568  0.00  0.00    -0.309 N 
ATOM     29  H   UNL     1       6.538  -1.331  -3.916  0.00  0.00    +0.149 HD
BRANCH  28  30
ATOM     30  C   UNL     1       8.524  -1.909  -4.392  0.00  0.00    +0.070 C 
ATOM     31  C   UNL     1       8.863  -3.225  -3.690  0.00  0.00    +0.028 C 
BRANCH  30  32
ATOM     32  C   UNL     1       9.018  -0.736  -3.543  0.00  0.00    +0.020 C 
BRANCH  32  33
ATOM     33  C   UNL     1       8.791   0.573  -4.301  0.00  0.00    -0.017 C 
BRANCH  33  34
ATOM     34  C   UNL     1       9.284   1.746  -3.452  0.00  0.00    -0.079 C 
BRANCH  34  35
ATOM     35  N   UNL     1       9.030   3.007  -4.163  0.00  0.00    +0.379 N 
ATOM     36  H   UNL     1       9.442   2.963  -5.083  0.00  0.00    -0.082 HD
BRANCH  35  37
ATOM     37  C   UNL     1       7.581   3.216  -4.285  0.00  0.00    -0.082 C 
ATOM     38  C   UNL     1       7.315   4.462  -5.132  0.00  0.00    -0.017 C 
ENDBRANCH  35  37
BRANCH  35  39
ATOM     39  C   UNL     1       9.624   4.121  -3.413  0.00  0.00    -0.082 C 
ATOM     40  C   UNL     1      11.148   3.979  -3.411  0.00  0.00    -0.017 C 
ENDBRANCH  35  39
ENDBRANCH  34  35
ENDBRANCH  33  34
ENDBRANCH  32  33
ENDBRANCH  30  32
ENDBRANCH  28  30
ENDBRANCH   3  26
TORSDOF 11
