REMARK  Name = ZINC17082570
REMARK  3 active torsions:
REMARK  status: ('A' for Active; 'I' for Inactive)
REMARK    1  A    between atoms: C_4  and  C_7
REMARK    2  A    between atoms: C_8  and  C_9
REMARK    3  A    between atoms: C_14  and  C_19
REMARK                            x       y       z     vdW  Elec       q    Type
REMARK                         _______ _______ _______ _____ _____    ______ ____
ROOT
ATOM      1  C   UNL     1       5.033  -2.743  -0.063  0.00  0.00    +0.168 C 
ATOM      2  C   UNL     1       5.140  -3.613   1.170  0.00  0.00    +0.040 C 
ATOM      3  C   UNL     1       5.014  -4.956   1.114  0.00  0.00    +0.020 C 
ATOM      4  C   UNL     1       5.127  -5.799   2.362  0.00  0.00    +0.060 C 
ATOM      5  C   UNL     1       4.632  -5.000   3.570  0.00  0.00    +0.032 C 
ATOM      6  C   UNL     1       5.475  -3.726   3.684  0.00  0.00    +0.088 C 
ATOM      7  C   UNL     1       5.378  -2.961   2.393  0.00  0.00    +0.164 C 
ATOM      8  O   UNL     1       5.507  -1.752   2.408  0.00  0.00    -0.292 OA
ATOM      9  N   UNL     1       4.787  -5.613  -0.071  0.00  0.00    -0.287 N 
ATOM     10  C   UNL     1       4.990  -4.916  -1.251  0.00  0.00    +0.218 A 
ATOM     11  N   UNL     1       5.112  -3.568  -1.262  0.00  0.00    -0.221 N 
ATOM     12  N   UNL     1       5.311  -3.202  -2.592  0.00  0.00    -0.156 NA
ATOM     13  C   UNL     1       5.293  -4.308  -3.295  0.00  0.00    +0.247 A 
ATOM     14  N   UNL     1       5.098  -5.342  -2.480  0.00  0.00    -0.201 NA
ATOM     15  H   UNL     1       4.493  -6.538  -0.081  0.00  0.00    +0.155 HD
ENDROOT
BRANCH   5  16
ATOM     16  C   UNL     1       4.785  -5.825   4.822  0.00  0.00    -0.043 A 
ATOM     17  C   UNL     1       6.037  -6.263   5.211  0.00  0.00    +0.005 A 
ATOM     18  C   UNL     1       6.178  -7.020   6.359  0.00  0.00    +0.020 A 
ATOM     19  C   UNL     1       5.066  -7.339   7.118  0.00  0.00    +0.041 A 
ATOM     20  C   UNL     1       3.814  -6.901   6.728  0.00  0.00    +0.020 A 
ATOM     21  C   UNL     1       3.674  -6.139   5.582  0.00  0.00    +0.005 A 
ATOM     22 CL   UNL     1       5.243  -8.290   8.560  0.00  0.00    -0.084 Cl
ENDBRANCH   5  16
BRANCH   1  24
ATOM     23  C   UNL     1       3.695  -0.685  -0.038  0.00  0.00    +0.006 C 
ATOM     24  C   UNL     1       3.716  -2.010  -0.046  0.00  0.00    +0.005 C 
BRANCH  23  28
ATOM     25  C   UNL     1      -0.017   1.379   0.010  0.00  0.00    +0.000 A 
ATOM     26  C   UNL     1       1.168   2.093   0.002  0.00  0.00    +0.001 A 
ATOM     27  C   UNL     1       2.377   1.429  -0.013  0.00  0.00    +0.008 A 
ATOM     28  C   UNL     1       2.403   0.034  -0.021  0.00  0.00    -0.025 A 
ATOM     29  C   UNL     1       1.204  -0.681  -0.013  0.00  0.00    +0.008 A 
ATOM     30  C   UNL     1       0.002  -0.004   0.002  0.00  0.00    +0.001 A 
ENDBRANCH  23  28
ENDBRANCH   1  24
TORSDOF 3
