REMARK  Name = ZINC12369012
REMARK  9 active torsions:
REMARK  status: ('A' for Active; 'I' for Inactive)
REMARK    1  A    between atoms: C_6  and  C_7
REMARK    2  A    between atoms: C_7  and  N_46
REMARK    3  A    between atoms: C_8  and  C_9
REMARK    4  A    between atoms: C_8  and  N_46
REMARK    5  A    between atoms: C_9  and  C_11
REMARK    6  A    between atoms: C_9  and  O_27
REMARK    7  A    between atoms: C_11  and  O_12
REMARK    8  A    between atoms: O_12  and  N_13
REMARK    9  A    between atoms: C_14  and  C_15
REMARK                            x       y       z     vdW  Elec       q    Type
REMARK                         _______ _______ _______ _____ _____    ______ ____
ROOT
ATOM      1  C   UNL     1       6.136   7.179   0.346  0.00  0.00    +0.292 C 
ENDROOT
BRANCH   1   2
ATOM      2  C   UNL     1       7.545   7.774   0.303  0.00  0.00    +0.138 C 
BRANCH   2   3
ATOM      3  O   UNL     1       8.021   7.773  -1.044  0.00  0.00    -0.390 OA
ATOM      4  H   UNL     1       7.476   8.287  -1.655  0.00  0.00    +0.210 HD
ENDBRANCH   2   3
BRANCH   2   5
ATOM      5  C   UNL     1       7.508   9.210   0.830  0.00  0.00    -0.047 C 
BRANCH   5   6
ATOM      6  N   UNL     1       8.869   9.777   0.785  0.00  0.00    +0.383 N 
ATOM      7  H   UNL     1       9.493   9.207   1.369  0.00  0.00    -0.085 HD
ATOM      8  H   UNL     1       9.207   9.770  -0.184  0.00  0.00    -0.085 HD
BRANCH   6   9
ATOM      9  C   UNL     1       8.864  11.163   1.288  0.00  0.00    -0.047 C 
BRANCH   9  15
ATOM     10  C   UNL     1      11.110  11.571   2.316  0.00  0.00    +0.003 A 
ATOM     11  C   UNL     1      12.397  12.072   2.262  0.00  0.00    +0.020 A 
ATOM     12  C   UNL     1      12.836  12.727   1.125  0.00  0.00    +0.041 A 
ATOM     13  C   UNL     1      11.989  12.876   0.042  0.00  0.00    +0.020 A 
ATOM     14  C   UNL     1      10.704  12.370   0.095  0.00  0.00    +0.003 A 
ATOM     15  C   UNL     1      10.265  11.715   1.231  0.00  0.00    -0.064 A 
ATOM     16 CL   UNL     1      14.451  13.362   1.059  0.00  0.00    -0.084 Cl
ENDBRANCH   9  15
ENDBRANCH   6   9
ENDBRANCH   5   6
ENDBRANCH   2   5
ENDBRANCH   1   2
BRANCH   1  17
ATOM     17  O   UNL     1       6.189   5.803  -0.035  0.00  0.00    -0.391 OA
BRANCH  17  18
ATOM     18  N   UNL     1       4.929   5.155  -0.029  0.00  0.00    -0.093 NA
ATOM     19  C   UNL     1       4.843   3.901  -0.356  0.00  0.00    +0.161 C 
BRANCH  19  20
ATOM     20  C   UNL     1       3.543   3.233  -0.349  0.00  0.00    +0.030 C 
ATOM     21  C   UNL     1       2.426   3.918  -0.001  0.00  0.00    +0.060 C 
ATOM     22  C   UNL     1       1.146   3.189   0.008  0.00  0.00    +0.037 A 
ATOM     23  C   UNL     1      -0.074   3.862   0.024  0.00  0.00    +0.033 A 
ATOM     24  C   UNL     1      -1.250   3.138   0.031  0.00  0.00    +0.042 A 
ATOM     25  C   UNL     1      -1.219   1.752   0.017  0.00  0.00    +0.023 A 
ATOM     26  C   UNL     1      -0.013   1.076   0.008  0.00  0.00    +0.048 A 
ATOM     27  C   UNL     1       1.175   1.785   0.000  0.00  0.00    +0.130 A 
ATOM     28  O   UNL     1       2.374   1.151  -0.014  0.00  0.00    -0.487 OA
ATOM     29  C   UNL     1       3.438   1.779  -0.729  0.00  0.00    +0.267 C 
ATOM     30 CL   UNL     1      -2.776   3.967   0.050  0.00  0.00    -0.084 Cl
ATOM     31 CL   UNL     1       2.502   5.601   0.420  0.00  0.00    -0.082 Cl
ENDBRANCH  19  20
ENDBRANCH  17  18
ENDBRANCH   1  17
TORSDOF 9
