REMARK  Name = ZINC64502621
REMARK  9 active torsions:
REMARK  status: ('A' for Active; 'I' for Inactive)
REMARK    1  A    between atoms: C_1  and  C_2
REMARK    2  A    between atoms: C_4  and  C_33
REMARK    3  A    between atoms: C_5  and  C_32
REMARK    4  A    between atoms: C_6  and  C_9
REMARK    5  A    between atoms: C_14  and  C_17
REMARK    6  A    between atoms: C_17  and  C_18
REMARK    7  A    between atoms: N_20  and  C_21
REMARK    8  A    between atoms: C_21  and  C_22
REMARK    9  A    between atoms: C_22  and  C_23
REMARK                            x       y       z     vdW  Elec       q    Type
REMARK                         _______ _______ _______ _____ _____    ______ ____
ROOT
ATOM      1  C   UNL     1      -0.355   0.463   3.102  0.00  0.00    +0.206 C 
ATOM      2  O   UNL     1       0.327   1.436   2.863  0.00  0.00    -0.277 OA
ATOM      3  N   UNL     1      -1.202   0.473   4.151  0.00  0.00    -0.303 N 
ATOM      4  C   UNL     1      -2.111  -0.655   4.390  0.00  0.00    +0.108 C 
ATOM      5  C   UNL     1      -3.542  -0.120   4.505  0.00  0.00    +0.023 C 
ATOM      6  C   UNL     1      -3.591   0.966   5.582  0.00  0.00    +0.001 C 
ATOM      7  C   UNL     1      -2.673   2.124   5.183  0.00  0.00    +0.023 C 
ATOM      8  C   UNL     1      -1.228   1.612   5.079  0.00  0.00    +0.108 C 
ENDROOT
BRANCH   1  13
ATOM      9  C   UNL     1       1.035   1.385   0.339  0.00  0.00    -0.009 C 
ATOM     10  C   UNL     1       0.740  -0.113   0.237  0.00  0.00    -0.047 C 
ATOM     11  C   UNL     1      -0.737  -0.341   0.009  0.00  0.00    -0.089 C 
ATOM     12  C   UNL     1      -1.300  -0.707   1.134  0.00  0.00    -0.081 C 
ATOM     13  C   UNL     1      -0.257  -0.760   2.226  0.00  0.00    +0.043 C 
ATOM     14  N   UNL     1       1.050  -0.786   1.521  0.00  0.00    +0.393 N 
ATOM     15  C   UNL     1      -2.762  -1.025   1.311  0.00  0.00    +0.037 C 
ATOM     16  C   UNL     1      -1.450  -0.173  -1.307  0.00  0.00    +0.037 C 
ATOM     17  H   UNL     1       1.352  -1.735   1.362  0.00  0.00    -0.083 HD
ATOM     18  H   UNL     1       1.746  -0.269   2.037  0.00  0.00    -0.083 HD
ENDBRANCH   1  13
BRANCH   6  19
ATOM     19  C   UNL     1      -5.026   1.479   5.723  0.00  0.00    +0.099 C 
BRANCH  19  20
ATOM     20  C   UNL     1      -5.098   2.459   6.866  0.00  0.00    +0.213 C 
ATOM     21  O   UNL     1      -4.101   2.722   7.504  0.00  0.00    -0.276 OA
ATOM     22  N   UNL     1      -6.271   3.044   7.178  0.00  0.00    -0.315 N 
ATOM     23  H   UNL     1      -7.069   2.834   6.668  0.00  0.00    +0.149 HD
BRANCH  22  24
ATOM     24  C   UNL     1      -6.342   3.997   8.289  0.00  0.00    +0.108 C 
BRANCH  24  25
ATOM     25  C   UNL     1      -7.777   4.510   8.430  0.00  0.00    +0.052 C 
BRANCH  25  26
ATOM     26  C   UNL     1      -7.849   5.490   9.572  0.00  0.00    -0.040 C 
ATOM     27  C   UNL     1      -7.765   6.838   9.494  0.00  0.00    -0.001 A 
ATOM     28  C   UNL     1      -7.585   7.759   8.366  0.00  0.00    +0.010 A 
ATOM     29  C   UNL     1      -7.537   9.089   8.606  0.00  0.00    +0.001 A 
ATOM     30  C   UNL     1      -7.653   9.608   9.902  0.00  0.00    +0.002 A 
ATOM     31  C   UNL     1      -7.819   8.826  10.989  0.00  0.00    +0.026 A 
ATOM     32  C   UNL     1      -7.885   7.411  10.854  0.00  0.00    +0.043 A 
ATOM     33  N   UNL     1      -8.038   6.456  11.738  0.00  0.00    -0.380 N 
ATOM     34  C   UNL     1      -8.038   5.166  11.038  0.00  0.00    +0.144 C 
ATOM     35  H   UNL     1      -8.139   6.580  12.694  0.00  0.00    +0.160 HD
ENDBRANCH  25  26
ENDBRANCH  24  25
ENDBRANCH  22  24
ENDBRANCH  19  20
ENDBRANCH   6  19
TORSDOF 6
