REMARK  Name = ZINC17402279
REMARK  4 active torsions:
REMARK  status: ('A' for Active; 'I' for Inactive)
REMARK    1  A    between atoms: N_10  and  C_11
REMARK    2  A    between atoms: C_11  and  C_12
REMARK    3  A    between atoms: N_14  and  N_15
REMARK    4  A    between atoms: C_16  and  C_18
REMARK                            x       y       z     vdW  Elec       q    Type
REMARK                         _______ _______ _______ _____ _____    ______ ____
ROOT
ATOM      1  C   UNL     1       5.461   0.628   0.919  0.00  0.00    +0.246 C 
ATOM      2  O   UNL     1       4.914   0.420   1.981  0.00  0.00    -0.273 OA
ATOM      3  N   UNL     1       6.606   1.338   0.878  0.00  0.00    -0.233 N 
ATOM      4  H   UNL     1       7.044   1.504   0.029  0.00  0.00    +0.173 HD
ENDROOT
BRANCH   3   5
ATOM      5  N   UNL     1       7.164   1.835   2.063  0.00  0.00    -0.234 N 
ATOM      6  C   UNL     1       8.309   2.545   2.023  0.00  0.00    +0.235 C 
ATOM      7  O   UNL     1       8.857   2.753   0.961  0.00  0.00    -0.274 OA
ATOM      8  H   UNL     1       6.726   1.669   2.913  0.00  0.00    +0.173 HD
BRANCH   6   9
ATOM      9  C   UNL     1       8.910   3.080   3.297  0.00  0.00    +0.050 C 
ATOM     10  C   UNL     1       9.229   1.917   4.238  0.00  0.00    +0.020 C 
ATOM     11  C   UNL     1       9.838   2.460   5.532  0.00  0.00    -0.008 C 
ATOM     12  C   UNL     1      11.125   3.223   5.209  0.00  0.00    +0.007 C 
ATOM     13  C   UNL     1      10.806   4.386   4.268  0.00  0.00    -0.008 C 
ATOM     14  C   UNL     1      10.196   3.842   2.974  0.00  0.00    +0.020 C 
ATOM     15  C   UNL     1       9.810   5.330   4.944  0.00  0.00    +0.026 C 
ATOM     16  C   UNL     1       8.523   4.568   5.267  0.00  0.00    +0.047 C 
ATOM     17  C   UNL     1       8.842   3.405   6.208  0.00  0.00    +0.026 C 
ATOM     18  C   UNL     1       7.913   4.024   3.973  0.00  0.00    +0.039 C 
ATOM     19 CL   UNL     1       7.349   5.681   6.063  0.00  0.00    -0.118 Cl
ENDBRANCH   6   9
ENDBRANCH   3   5
BRANCH   1  20
ATOM     20  C   UNL     1       4.861   0.093  -0.355  0.00  0.00    +0.202 C 
BRANCH  20  30
ATOM     21  C   UNL     1      -0.017   1.377   0.010  0.00  0.00    +0.000 A 
ATOM     22  C   UNL     1       1.170   2.088   0.002  0.00  0.00    +0.002 A 
ATOM     23  C   UNL     1       2.375   1.416  -0.015  0.00  0.00    +0.023 A 
ATOM     24  C   UNL     1       2.396   0.025  -0.024  0.00  0.00    +0.033 A 
ATOM     25  C   UNL     1       1.207  -0.687  -0.013  0.00  0.00    -0.026 A 
ATOM     26  C   UNL     1       0.002  -0.004   0.002  0.00  0.00    +0.005 A 
ATOM     27  C   UNL     1       1.192  -2.192  -0.011  0.00  0.00    +0.038 C 
ATOM     28  C   UNL     1       2.521  -2.742  -0.528  0.00  0.00    +0.024 C 
ATOM     29  C   UNL     1       3.667  -2.076   0.246  0.00  0.00    +0.106 C 
ATOM     30  N   UNL     1       3.629  -0.637  -0.046  0.00  0.00    -0.321 N 
ENDBRANCH  20  30
ENDBRANCH   1  20
TORSDOF 4
