REMARK  Name = ZINC60015972
REMARK  12 active torsions:
REMARK  status: ('A' for Active; 'I' for Inactive)
REMARK    1  A    between atoms: C_1  and  C_2
REMARK    2  A    between atoms: C_5  and  C_35
REMARK    3  A    between atoms: N_8  and  C_10
REMARK    4  A    between atoms: C_10  and  C_11
REMARK    5  A    between atoms: C_11  and  C_13
REMARK    6  A    between atoms: C_11  and  N_14
REMARK    7  A    between atoms: C_15  and  C_17
REMARK    8  A    between atoms: C_17  and  C_18
REMARK    9  A    between atoms: C_18  and  C_19
REMARK   10  A    between atoms: C_19  and  C_20
REMARK   11  A    between atoms: C_20  and  C_21
REMARK   12  A    between atoms: C_21  and  N_22
REMARK                            x       y       z     vdW  Elec       q    Type
REMARK                         _______ _______ _______ _____ _____    ______ ____
ROOT
ATOM      1  C   UNL     1       5.072  -2.332  -0.961  0.00  0.00    +0.096 C 
ENDROOT
BRANCH   1   3
ATOM      2  N   UNL     1       3.510  -2.495   0.951  0.00  0.00    -0.315 N 
ATOM      3  C   UNL     1       4.540  -1.852   0.365  0.00  0.00    +0.213 C 
ATOM      4  O   UNL     1       5.038  -0.887   0.905  0.00  0.00    -0.276 OA
ATOM      5  H   UNL     1       3.112  -3.266   0.519  0.00  0.00    +0.149 HD
BRANCH   2   6
ATOM      6  C   UNL     1       2.993  -2.028   2.239  0.00  0.00    +0.053 C 
ATOM      7  C   UNL     1       3.825  -2.634   3.372  0.00  0.00    +0.026 C 
BRANCH   6   8
ATOM      8  C   UNL     1       1.534  -2.461   2.390  0.00  0.00    -0.057 C 
BRANCH   8  14
ATOM      9  C   UNL     1      -0.019   1.526   0.010  0.00  0.00    +0.005 C 
ATOM     10  C   UNL     1       0.002  -0.004   0.002  0.00  0.00    -0.031 C 
ATOM     11  C   UNL     1      -1.434  -0.535   0.015  0.00  0.00    +0.003 C 
ATOM     12  C   UNL     1      -1.402  -2.064   0.086  0.00  0.00    -0.031 C 
ATOM     13  C   UNL     1      -0.613  -2.496   1.324  0.00  0.00    -0.076 C 
ATOM     14  N   UNL     1       0.758  -1.980   1.239  0.00  0.00    +0.381 N 
ATOM     15  C   UNL     1       0.740  -0.512   1.242  0.00  0.00    -0.076 C 
ATOM     16  C   UNL     1      -0.728  -2.620  -1.170  0.00  0.00    +0.005 C 
ATOM     17  H   UNL     1       1.188  -2.307   0.386  0.00  0.00    -0.082 HD
ENDBRANCH   8  14
ENDBRANCH   6   8
ENDBRANCH   2   6
ENDBRANCH   1   3
BRANCH   1  18
ATOM     18  C   UNL     1       6.230  -1.434  -1.401  0.00  0.00    +0.009 C 
BRANCH  18  19
ATOM     19  C   UNL     1       6.771  -1.922  -2.747  0.00  0.00    +0.002 C 
BRANCH  19  20
ATOM     20  C   UNL     1       7.929  -1.024  -3.187  0.00  0.00    +0.022 C 
BRANCH  20  21
ATOM     21  C   UNL     1       8.469  -1.512  -4.532  0.00  0.00    +0.127 C 
BRANCH  21  22
ATOM     22  N   UNL     1       9.578  -0.652  -4.954  0.00  0.00    -0.288 N 
ATOM     23  C   UNL     1       9.321   0.444  -5.699  0.00  0.00    +0.262 A 
ATOM     24  O   UNL     1       8.183   0.725  -6.023  0.00  0.00    -0.267 OA
ATOM     25  C   UNL     1      10.455   1.292  -6.110  0.00  0.00    +0.063 A 
ATOM     26  C   UNL     1      10.272   2.439  -6.878  0.00  0.00    +0.015 A 
ATOM     27  C   UNL     1      11.366   3.199  -7.236  0.00  0.00    +0.001 A 
ATOM     28  C   UNL     1      12.640   2.826  -6.836  0.00  0.00    +0.002 A 
ATOM     29  C   UNL     1      12.835   1.692  -6.074  0.00  0.00    +0.026 A 
ATOM     30  C   UNL     1      11.747   0.916  -5.704  0.00  0.00    +0.053 A 
ATOM     31  N   UNL     1      11.899  -0.231  -4.939  0.00  0.00    -0.335 N 
ATOM     32  H   UNL     1      12.785  -0.503  -4.651  0.00  0.00    +0.168 HD
ATOM     33  C   UNL     1      10.831  -0.967  -4.587  0.00  0.00    +0.161 A 
ATOM     34  S   UNL     1      11.078  -2.368  -3.635  0.00  0.00    -0.013 S 
ENDBRANCH  21  22
ENDBRANCH  20  21
ENDBRANCH  19  20
ENDBRANCH  18  19
ENDBRANCH   1  18
TORSDOF 9
