REMARK  Name = ZINC06565343
REMARK  5 active torsions:
REMARK  status: ('A' for Active; 'I' for Inactive)
REMARK    1  A    between atoms: C_1  and  C_2
REMARK    2  A    between atoms: C_5  and  N_8
REMARK    3  A    between atoms: C_9  and  C_11
REMARK    4  A    between atoms: C_11  and  S_12
REMARK    5  A    between atoms: S_12  and  C_13
REMARK                            x       y       z     vdW  Elec       q    Type
REMARK                         _______ _______ _______ _____ _____    ______ ____
ROOT
ATOM      1  C   UNL     1       5.162   4.629  -0.010  0.00  0.00    +0.170 A 
ATOM      2  N   UNL     1       4.164   5.558   0.005  0.00  0.00    -0.301 N 
ATOM      3  H   UNL     1       4.398   6.530   0.001  0.00  0.00    +0.171 HD
ATOM      4  C   UNL     1       2.870   5.190   0.024  0.00  0.00    +0.261 A 
ATOM      5  O   UNL     1       1.988   6.032   0.037  0.00  0.00    -0.267 OA
ATOM      6  C   UNL     1       2.543   3.801   0.029  0.00  0.00    +0.080 A 
ATOM      7  C   UNL     1       1.200   3.187   0.049  0.00  0.00    +0.004 A 
ATOM      8  C   UNL     1      -0.046   3.852   0.066  0.00  0.00    +0.010 A 
ATOM      9  C   UNL     1      -1.218   3.139   0.083  0.00  0.00    +0.001 A 
ATOM     10  C   UNL     1      -1.216   1.752   0.078  0.00  0.00    +0.001 A 
ATOM     11  C   UNL     1      -0.012   1.075   0.067  0.00  0.00    +0.016 A 
ATOM     12  C   UNL     1       1.171   1.784   0.049  0.00  0.00    +0.022 A 
ATOM     13  S   UNL     1       2.879   1.304   0.025  0.00  0.00    -0.068 S 
ATOM     14  C   UNL     1       3.626   2.913   0.014  0.00  0.00    +0.117 A 
ATOM     15  N   UNL     1       4.884   3.340  -0.005  0.00  0.00    -0.216 NA
ENDROOT
BRANCH   1  16
ATOM     16  S   UNL     1       6.842   5.157  -0.035  0.00  0.00    -0.078 S 
BRANCH  16  17
ATOM     17  C   UNL     1       7.676   3.550  -0.047  0.00  0.00    +0.173 C 
BRANCH  17  19
ATOM     18  N   UNL     1       9.998   2.697  -0.081  0.00  0.00    -0.285 N 
ATOM     19  C   UNL     1       9.169   3.759  -0.069  0.00  0.00    +0.227 C 
ATOM     20  O   UNL     1       9.624   4.883  -0.077  0.00  0.00    -0.275 OA
ATOM     21  H   UNL     1       9.637   1.799  -0.007  0.00  0.00    +0.155 HD
BRANCH  18  26
ATOM     22  C   UNL     1      15.597   3.473  -0.562  0.00  0.00    +0.044 C 
ATOM     23  C   UNL     1      14.110   3.267  -0.434  0.00  0.00    -0.050 A 
ATOM     24  C   UNL     1      13.345   4.177   0.272  0.00  0.00    +0.005 A 
ATOM     25  C   UNL     1      11.982   3.991   0.391  0.00  0.00    +0.023 A 
ATOM     26  C   UNL     1      11.379   2.888  -0.200  0.00  0.00    +0.033 A 
ATOM     27  C   UNL     1      12.150   1.973  -0.903  0.00  0.00    +0.023 A 
ATOM     28  C   UNL     1      13.512   2.168  -1.024  0.00  0.00    +0.005 A 
ENDBRANCH  18  26
ENDBRANCH  17  19
ENDBRANCH  16  17
ENDBRANCH   1  16
TORSDOF 4
