REMARK  Name = ZINC09380361
REMARK  11 active torsions:
REMARK  status: ('A' for Active; 'I' for Inactive)
REMARK    1  A    between atoms: C_1  and  C_2
REMARK    2  A    between atoms: C_2  and  O_3
REMARK    3  A    between atoms: O_3  and  C_4
REMARK    4  A    between atoms: C_4  and  C_6
REMARK    5  A    between atoms: C_11  and  C_13
REMARK    6  A    between atoms: C_11  and  C_14
REMARK    7  A    between atoms: C_11  and  N_56
REMARK    8  A    between atoms: N_16  and  C_17
REMARK    9  A    between atoms: C_26  and  C_27
REMARK   10  A    between atoms: C_27  and  O_29
REMARK   11  A    between atoms: O_29  and  C_30
REMARK                            x       y       z     vdW  Elec       q    Type
REMARK                         _______ _______ _______ _____ _____    ______ ____
ROOT
ATOM      1  C   UNL     1      -1.362   5.113   7.429  0.00  0.00    +0.203 C 
ATOM      2  O   UNL     1      -1.330   5.706   6.372  0.00  0.00    -0.277 OA
ATOM      3  N   UNL     1      -1.260   5.795   8.587  0.00  0.00    -0.284 N 
ATOM      4  H   UNL     1      -1.208   5.316   9.429  0.00  0.00    +0.155 HD
ENDROOT
BRANCH   3   5
ATOM      5  C   UNL     1      -1.228   7.186   8.575  0.00  0.00    +0.073 A 
ATOM      6  C   UNL     1      -0.541   8.037   7.601  0.00  0.00    +0.023 A 
ATOM      7  C   UNL     1       0.237   7.771   6.470  0.00  0.00    +0.031 A 
ATOM      8  C   UNL     1       0.756   8.805   5.744  0.00  0.00    +0.042 A 
ATOM      9  C   UNL     1       0.517  10.122   6.122  0.00  0.00    +0.022 A 
ATOM     10  C   UNL     1      -0.253  10.407   7.227  0.00  0.00    +0.028 A 
ATOM     11  C   UNL     1      -0.789   9.368   7.986  0.00  0.00    +0.049 A 
ATOM     12  N   UNL     1      -1.565   9.344   9.121  0.00  0.00    -0.348 N 
ATOM     13  H   UNL     1      -1.877  10.128   9.599  0.00  0.00    +0.166 HD
ATOM     14  C   UNL     1      -1.833   8.032   9.482  0.00  0.00    +0.147 A 
ATOM     15 CL   UNL     1       1.721   8.474   4.340  0.00  0.00    -0.084 Cl
BRANCH  14  16
ATOM     16  C   UNL     1      -2.603   7.626  10.601  0.00  0.00    +0.357 C 
ATOM     17  O   UNL     1      -2.696   6.445  10.880  0.00  0.00    -0.243 OA
BRANCH  16  18
ATOM     18  O   UNL     1      -3.233   8.549  11.357  0.00  0.00    -0.463 OA
ATOM     19  C   UNL     1      -3.991   8.069  12.470  0.00  0.00    +0.280 C 
ENDBRANCH  16  18
ENDBRANCH  14  16
ENDBRANCH   3   5
BRANCH   1  20
ATOM     20  C   UNL     1      -1.517   3.614   7.449  0.00  0.00    +0.016 C 
ATOM     21  C   UNL     1      -2.917   3.253   7.950  0.00  0.00    -0.004 C 
BRANCH  20  27
ATOM     22  C   UNL     1      -1.946   1.497   3.759  0.00  0.00    +0.094 C 
ATOM     23  C   UNL     1      -2.167   3.012   3.788  0.00  0.00    -0.004 C 
ATOM     24  C   UNL     1      -2.459   3.452   5.224  0.00  0.00    -0.077 C 
ATOM     25  C   UNL     1      -1.131   1.631   6.115  0.00  0.00    -0.077 C 
ATOM     26  C   UNL     1      -0.798   1.137   4.706  0.00  0.00    -0.004 C 
ATOM     27  N   UNL     1      -1.306   3.098   6.080  0.00  0.00    +0.387 N 
ATOM     28  H   UNL     1      -0.458   3.526   5.690  0.00  0.00    -0.081 HD
BRANCH  22  29
ATOM     29  C   UNL     1      -1.597   1.066   2.358  0.00  0.00    +0.310 C 
ATOM     30  O   UNL     1      -0.539   0.524   2.138  0.00  0.00    -0.251 OA
BRANCH  29  31
ATOM     31  O   UNL     1      -2.460   1.284   1.353  0.00  0.00    -0.465 OA
BRANCH  31  33
ATOM     32  C   UNL     1      -3.162   1.174  -0.976  0.00  0.00    +0.048 C 
ATOM     33  C   UNL     1      -2.058   0.843   0.030  0.00  0.00    +0.229 C 
ENDBRANCH  31  33
ENDBRANCH  29  31
ENDBRANCH  22  29
ENDBRANCH  20  27
ENDBRANCH   1  20
TORSDOF 8
