REMARK  Name = ZINC33394763
REMARK  13 active torsions:
REMARK  status: ('A' for Active; 'I' for Inactive)
REMARK    1  A    between atoms: C_1  and  C_2
REMARK    2  A    between atoms: C_2  and  C_3
REMARK    3  A    between atoms: C_3  and  C_4
REMARK    4  A    between atoms: C_4  and  O_5
REMARK    5  A    between atoms: O_5  and  C_6
REMARK    6  A    between atoms: C_6  and  C_8
REMARK    7  A    between atoms: C_11  and  O_29
REMARK    8  A    between atoms: N_15  and  C_22
REMARK    9  A    between atoms: C_16  and  C_17
REMARK   10  A    between atoms: C_17  and  S_18
REMARK   11  A    between atoms: S_18  and  C_19
REMARK   12  A    between atoms: O_29  and  C_30
REMARK   13  A    between atoms: C_30  and  C_32
REMARK                            x       y       z     vdW  Elec       q    Type
REMARK                         _______ _______ _______ _____ _____    ______ ____
ROOT
ATOM      1  C   UNL     1       1.498  -4.122  -0.741  0.00  0.00    +0.089 A 
ATOM      2  C   UNL     1       0.928  -4.189   0.618  0.00  0.00    +0.018 A 
ATOM      3  C   UNL     1       0.557  -5.234   1.459  0.00  0.00    +0.058 A 
ATOM      4  C   UNL     1       0.053  -4.955   2.716  0.00  0.00    +0.146 A 
ATOM      5  C   UNL     1      -0.095  -3.635   3.133  0.00  0.00    +0.062 A 
ATOM      6  C   UNL     1       0.264  -2.594   2.304  0.00  0.00    +0.045 A 
ATOM      7  C   UNL     1       0.781  -2.858   1.040  0.00  0.00    +0.056 A 
ATOM      8  N   UNL     1       1.220  -2.046   0.011  0.00  0.00    -0.311 N 
ATOM      9  C   UNL     1       1.645  -2.797  -1.035  0.00  0.00    +0.049 A 
ATOM     10 BR   UNL     1      -0.796  -3.268   4.850  0.00  0.00    -0.046 Br
ENDROOT
BRANCH   8  11
ATOM     11  C   UNL     1       1.231  -0.646   0.046  0.00  0.00    +0.047 A 
ATOM     12  C   UNL     1       0.035   0.058   0.111  0.00  0.00    +0.026 A 
ATOM     13  C   UNL     1       0.049   1.438   0.146  0.00  0.00    +0.002 A 
ATOM     14  C   UNL     1       1.251   2.120   0.117  0.00  0.00    +0.000 A 
ATOM     15  C   UNL     1       2.443   1.423   0.052  0.00  0.00    +0.002 A 
ATOM     16  C   UNL     1       2.437   0.042   0.017  0.00  0.00    +0.026 A 
ENDBRANCH   8  11
BRANCH   1  17
ATOM     17  C   UNL     1       1.840  -5.256  -1.606  0.00  0.00    +0.342 C 
ATOM     18  O   UNL     1       2.953  -5.743  -1.558  0.00  0.00    -0.245 OA
BRANCH  17  19
ATOM     19  O   UNL     1       0.920  -5.758  -2.455  0.00  0.00    -0.461 OA
BRANCH  19  20
ATOM     20  C   UNL     1       1.328  -6.880  -3.281  0.00  0.00    +0.232 C 
BRANCH  20  21
ATOM     21  C   UNL     1       0.160  -7.309  -4.172  0.00  0.00    +0.041 C 
BRANCH  21  23
ATOM     22  C   UNL     1      -0.578  -8.920  -5.933  0.00  0.00    +0.004 C 
ATOM     23  C   UNL     1       0.590  -8.492  -5.042  0.00  0.00    -0.000 C 
ENDBRANCH  21  23
ENDBRANCH  20  21
ENDBRANCH  19  20
ENDBRANCH  17  19
ENDBRANCH   1  17
BRANCH   9  24
ATOM     24  C   UNL     1       2.196  -2.251  -2.327  0.00  0.00    +0.131 C 
BRANCH  24  25
ATOM     25  S   UNL     1       3.990  -2.061  -2.186  0.00  0.00    -0.087 S 
BRANCH  25  26
ATOM     26  C   UNL     1       4.358  -1.427  -3.788  0.00  0.00    +0.123 C 
ATOM     27  N   UNL     1       3.399  -1.241  -4.652  0.00  0.00    -0.382 N 
ATOM     28  N   UNL     1       5.657  -1.127  -4.128  0.00  0.00    -0.340 N 
ATOM     29  H   UNL     1       3.628  -0.846  -5.652  0.00  0.00    +0.158 HD
ATOM     30  H   UNL     1       5.886  -0.732  -5.128  0.00  0.00    +0.144 HD
ATOM     31  H   UNL     1       6.466  -1.284  -3.399  0.00  0.00    +0.144 HD
ATOM     32  H   UNL     1       2.360  -1.481  -4.380  0.00  0.00    +0.158 HD
ENDBRANCH  25  26
ENDBRANCH  24  25
ENDBRANCH   9  24
BRANCH   4  33
ATOM     33  O   UNL     1      -0.306  -5.973   3.543  0.00  0.00    -0.425 OA
BRANCH  33  34
ATOM     34  C   UNL     1      -1.609  -6.294   3.584  0.00  0.00    +0.309 C 
ATOM     35  O   UNL     1      -2.387  -5.759   2.831  0.00  0.00    -0.251 OA
ATOM     36  C   UNL     1      -2.100  -7.324   4.569  0.00  0.00    +0.136 C 
ENDBRANCH  33  34
ENDBRANCH   4  33
TORSDOF 11
