REMARK  Name = ZINC04452923
REMARK  9 active torsions:
REMARK  status: ('A' for Active; 'I' for Inactive)
REMARK    1  A    between atoms: C_1  and  C_2
REMARK    2  A    between atoms: C_2  and  C_3
REMARK    3  A    between atoms: C_2  and  C_4
REMARK    4  A    between atoms: C_2  and  C_5
REMARK    5  A    between atoms: C_12  and  N_29
REMARK    6  A    between atoms: C_13  and  C_27
REMARK    7  A    between atoms: C_14  and  C_16
REMARK    8  A    between atoms: C_19  and  O_22
REMARK    9  A    between atoms: O_22  and  C_23
REMARK                            x       y       z     vdW  Elec       q    Type
REMARK                         _______ _______ _______ _____ _____    ______ ____
ROOT
ATOM      1  C   UNL     1       1.404  -0.946  -1.968  0.00  0.00    +0.076 A 
ATOM      2  C   UNL     1       1.034  -2.269  -2.165  0.00  0.00    +0.050 A 
ATOM      3  C   UNL     1       1.408  -2.631  -3.429  0.00  0.00    +0.222 A 
ATOM      4  N   UNL     1       1.993  -1.565  -3.999  0.00  0.00    -0.246 N 
ATOM      5  H   UNL     1       2.359  -1.527  -4.897  0.00  0.00    +0.192 HD
ATOM      6  N   UNL     1       1.976  -0.515  -3.068  0.00  0.00    -0.175 NA
ATOM      7  O   UNL     1       1.183  -3.869  -3.934  0.00  0.00    -0.423 OA
ATOM      8  C   UNL     1       0.333  -4.672  -3.262  0.00  0.00    +0.200 C 
ATOM      9  C   UNL     1      -0.098  -4.428  -2.005  0.00  0.00    +0.098 C 
ATOM     10  C   UNL     1       0.342  -3.218  -1.220  0.00  0.00    +0.101 C 
ENDROOT
BRANCH  10  11
ATOM     11  C   UNL     1       1.297  -3.637  -0.131  0.00  0.00    -0.034 A 
ATOM     12  C   UNL     1       2.625  -3.877  -0.433  0.00  0.00    +0.008 A 
ATOM     13  C   UNL     1       3.502  -4.262   0.562  0.00  0.00    +0.046 A 
ATOM     14  C   UNL     1       3.050  -4.406   1.866  0.00  0.00    +0.130 A 
ATOM     15  C   UNL     1       1.717  -4.164   2.166  0.00  0.00    +0.046 A 
ATOM     16  C   UNL     1       0.845  -3.774   1.168  0.00  0.00    +0.008 A 
BRANCH  14  17
ATOM     17  O   UNL     1       3.910  -4.785   2.847  0.00  0.00    -0.406 OA
BRANCH  17  18
ATOM     18  C   UNL     1       3.375  -4.913   4.166  0.00  0.00    +0.575 C 
ATOM     19  F   UNL     1       2.359  -5.875   4.165  0.00  0.00    -0.133 F 
ATOM     20  F   UNL     1       4.390  -5.307   5.045  0.00  0.00    -0.133 F 
ATOM     21  F   UNL     1       2.852  -3.683   4.579  0.00  0.00    -0.133 F 
ENDBRANCH  17  18
ENDBRANCH  14  17
ENDBRANCH  10  11
BRANCH   1  23
ATOM     22  C   UNL     1       1.596   1.310  -0.958  0.00  0.00    +0.017 C 
ATOM     23  C   UNL     1       1.183  -0.142  -0.713  0.00  0.00    +0.007 C 
ATOM     24  C   UNL     1       2.025  -0.728   0.422  0.00  0.00    +0.017 C 
ATOM     25  C   UNL     1      -0.297  -0.194  -0.329  0.00  0.00    +0.017 C 
ENDBRANCH   1  23
BRANCH   8  26
ATOM     26  N   UNL     1      -0.121  -5.804  -3.892  0.00  0.00    -0.328 N 
ATOM     27  H   UNL     1       0.170  -6.006  -4.795  0.00  0.00    +0.145 HD
ATOM     28  H   UNL     1      -0.734  -6.401  -3.435  0.00  0.00    +0.145 HD
ENDBRANCH   8  26
BRANCH   9  29
ATOM     29  C   UNL     1      -1.006  -5.352  -1.395  0.00  0.00    +0.101 C 
ATOM     30  N   UNL     1      -1.726  -6.086  -0.911  0.00  0.00    -0.191 NA
ENDBRANCH   9  29
TORSDOF 6
