REMARK  Name = ZINC16886057
REMARK  12 active torsions:
REMARK  status: ('A' for Active; 'I' for Inactive)
REMARK    1  A    between atoms: C_1  and  C_2
REMARK    2  A    between atoms: C_4  and  C_31
REMARK    3  A    between atoms: C_5  and  C_20
REMARK    4  A    between atoms: N_8  and  C_9
REMARK    5  A    between atoms: C_9  and  C_10
REMARK    6  A    between atoms: C_13  and  O_18
REMARK    7  A    between atoms: C_14  and  O_16
REMARK    8  A    between atoms: O_16  and  C_17
REMARK    9  A    between atoms: O_18  and  C_19
REMARK   10  A    between atoms: C_20  and  C_21
REMARK   11  A    between atoms: C_32  and  C_33
REMARK   12  A    between atoms: C_38  and  O_39
REMARK                            x       y       z     vdW  Elec       q    Type
REMARK                         _______ _______ _______ _____ _____    ______ ____
ROOT
ATOM      1  C   UNL     1      -0.846   4.030   0.303  0.00  0.00    +0.086 C 
ATOM      2  C   UNL     1      -1.547   3.216   1.359  0.00  0.00    +0.110 A 
ATOM      3  N   UNL     1      -1.538   3.635   2.593  0.00  0.00    -0.234 NA
ATOM      4  C   UNL     1      -2.152   2.942   3.572  0.00  0.00    +0.074 A 
ATOM      5  C   UNL     1      -2.809   1.756   3.262  0.00  0.00    +0.047 A 
ATOM      6  C   UNL     1      -2.813   1.324   1.927  0.00  0.00    +0.258 A 
ATOM      7  O   UNL     1      -3.382   0.292   1.609  0.00  0.00    -0.267 OA
ATOM      8  N   UNL     1      -2.172   2.069   1.002  0.00  0.00    -0.292 N 
ENDROOT
BRANCH   4   9
ATOM      9  C   UNL     1      -2.127   3.434   4.955  0.00  0.00    +0.029 C 
ATOM     10  C   UNL     1      -1.490   4.584   5.250  0.00  0.00    +0.013 C 
BRANCH  10  11
ATOM     11  C   UNL     1      -1.465   5.077   6.635  0.00  0.00    +0.016 A 
ATOM     12  C   UNL     1      -2.103   4.357   7.650  0.00  0.00    +0.011 A 
ATOM     13  C   UNL     1      -2.076   4.825   8.946  0.00  0.00    +0.001 A 
ATOM     14  C   UNL     1      -1.419   6.007   9.248  0.00  0.00    +0.004 A 
ATOM     15  C   UNL     1      -0.785   6.729   8.255  0.00  0.00    +0.046 A 
ATOM     16  C   UNL     1      -0.797   6.271   6.947  0.00  0.00    +0.124 A 
BRANCH  16  17
ATOM     17  O   UNL     1      -0.170   6.977   5.972  0.00  0.00    -0.506 OA
ATOM     18  H   UNL     1      -0.731   7.636   5.541  0.00  0.00    +0.292 HD
ENDBRANCH  16  17
ENDBRANCH  10  11
ENDBRANCH   4   9
BRANCH   8  19
ATOM     19  C   UNL     1      -2.157   1.637  -0.398  0.00  0.00    +0.161 C 
BRANCH  19  20
ATOM     20  C   UNL     1      -3.347   2.218  -1.116  0.00  0.00    -0.024 A 
ATOM     21  C   UNL     1      -3.219   3.403  -1.817  0.00  0.00    +0.009 A 
ATOM     22  C   UNL     1      -4.307   3.937  -2.482  0.00  0.00    +0.050 A 
ATOM     23  C   UNL     1      -5.529   3.285  -2.447  0.00  0.00    +0.162 A 
ATOM     24  C   UNL     1      -5.658   2.092  -1.742  0.00  0.00    +0.162 A 
ATOM     25  C   UNL     1      -4.564   1.562  -1.078  0.00  0.00    +0.054 A 
BRANCH  24  26
ATOM     26  O   UNL     1      -6.856   1.448  -1.705  0.00  0.00    -0.491 OA
ATOM     27  C   UNL     1      -6.914   0.229  -0.962  0.00  0.00    +0.277 C 
ENDBRANCH  24  26
BRANCH  23  28
ATOM     28  O   UNL     1      -6.601   3.809  -3.101  0.00  0.00    -0.491 OA
ATOM     29  C   UNL     1      -6.395   5.036  -3.804  0.00  0.00    +0.277 C 
ENDBRANCH  23  28
ENDBRANCH  19  20
ENDBRANCH   8  19
BRANCH   5  30
ATOM     30  C   UNL     1      -3.505   0.957   4.333  0.00  0.00    +0.078 C 
BRANCH  30  31
ATOM     31  C   UNL     1      -4.961   1.341   4.381  0.00  0.00    -0.035 A 
ATOM     32  C   UNL     1      -5.426   2.360   3.606  0.00  0.00    +0.004 A 
ATOM     33  C   UNL     1      -6.769   2.729   3.636  0.00  0.00    +0.001 A 
ATOM     34  C   UNL     1      -7.656   2.083   4.441  0.00  0.00    +0.008 A 
ATOM     35  C   UNL     1      -7.213   1.026   5.255  0.00  0.00    -0.018 A 
ATOM     36  C   UNL     1      -5.848   0.647   5.221  0.00  0.00    -0.014 A 
ATOM     37  C   UNL     1      -5.405  -0.406   6.039  0.00  0.00    +0.009 A 
ATOM     38  C   UNL     1      -6.292  -1.052   6.844  0.00  0.00    +0.001 A 
ATOM     39  C   UNL     1      -7.635  -0.682   6.875  0.00  0.00    +0.001 A 
ATOM     40  C   UNL     1      -8.099   0.336   6.100  0.00  0.00    +0.008 A 
ENDBRANCH  30  31
ENDBRANCH   5  30
TORSDOF 9
