REMARK  Name = ZINC35652327
REMARK  3 active torsions:
REMARK  status: ('A' for Active; 'I' for Inactive)
REMARK    1  A    between atoms: C_9  and  C_12
REMARK    2  A    between atoms: C_12  and  N_13
REMARK    3  A    between atoms: N_13  and  C_14
REMARK                            x       y       z     vdW  Elec       q    Type
REMARK                         _______ _______ _______ _____ _____    ______ ____
ROOT
ATOM      1  C   UNL     1       4.918  -2.649  -0.077  0.00  0.00    -0.034 C 
ENDROOT
BRANCH   1  10
ATOM      2  C   UNL     1      -0.017   1.378   0.010  0.00  0.00    +0.004 A 
ATOM      3  C   UNL     1       1.170   2.088   0.002  0.00  0.00    +0.004 A 
ATOM      4  C   UNL     1       2.378   1.418  -0.014  0.00  0.00    +0.049 A 
ATOM      5  C   UNL     1       2.404   0.031  -0.023  0.00  0.00    +0.162 A 
ATOM      6  C   UNL     1       1.212  -0.683  -0.013  0.00  0.00    +0.162 A 
ATOM      7  C   UNL     1       0.002  -0.004   0.002  0.00  0.00    +0.049 A 
ATOM      8  O   UNL     1       1.214  -2.044  -0.013  0.00  0.00    -0.485 OA
ATOM      9  C   UNL     1       2.434  -2.685  -0.404  0.00  0.00    +0.271 C 
ATOM     10  C   UNL     1       3.594  -1.997   0.328  0.00  0.00    +0.194 C 
ATOM     11  O   UNL     1       3.602  -0.615  -0.043  0.00  0.00    -0.484 OA
ENDBRANCH   1  10
BRANCH   1  12
ATOM     12  N   UNL     1       6.011  -2.069   0.714  0.00  0.00    +0.383 N 
ATOM     13  H   UNL     1       6.060  -1.076   0.544  0.00  0.00    -0.085 HD
ATOM     14  H   UNL     1       5.841  -2.235   1.695  0.00  0.00    -0.085 HD
BRANCH  12  15
ATOM     15  C   UNL     1       7.282  -2.695   0.325  0.00  0.00    -0.069 C 
ATOM     16  C   UNL     1       7.238  -4.181   0.672  0.00  0.00    +0.007 C 
ATOM     17  C   UNL     1       8.430  -4.901   0.037  0.00  0.00    +0.164 C 
ATOM     18  S   UNL     1       9.965  -4.237   0.750  0.00  0.00    -0.031 S 
ATOM     19  O   UNL     1      11.061  -4.698  -0.029  0.00  0.00    -0.174 OA
ATOM     20  O   UNL     1       9.957  -4.484   2.149  0.00  0.00    -0.174 OA
ATOM     21  C   UNL     1       9.769  -2.452   0.473  0.00  0.00    +0.164 C 
ATOM     22  C   UNL     1       8.428  -2.004   1.059  0.00  0.00    +0.007 C 
ENDBRANCH  12  15
ENDBRANCH   1  12
TORSDOF 3
