REMARK  Name = ZINC07814107
REMARK  8 active torsions:
REMARK  status: ('A' for Active; 'I' for Inactive)
REMARK    1  A    between atoms: C_1  and  C_2
REMARK    2  A    between atoms: C_3  and  C_17
REMARK    3  A    between atoms: C_4  and  C_16
REMARK    4  A    between atoms: C_7  and  C_8
REMARK    5  A    between atoms: N_12  and  C_13
REMARK    6  A    between atoms: N_14  and  C_15
REMARK    7  A    between atoms: C_17  and  O_19
REMARK    8  A    between atoms: O_19  and  C_20
REMARK                            x       y       z     vdW  Elec       q    Type
REMARK                         _______ _______ _______ _____ _____    ______ ____
ROOT
ATOM      1  C   UNL     1       1.661   3.740  -0.914  0.00  0.00    +0.047 C 
ATOM      2  C   UNL     1       0.844   2.506  -0.629  0.00  0.00    -0.010 A 
ATOM      3  C   UNL     1      -0.573   2.418  -0.607  0.00  0.00    +0.083 A 
ATOM      4  C   UNL     1      -0.890   1.109  -0.312  0.00  0.00    +0.028 A 
ATOM      5  N   UNL     1       0.259   0.421  -0.150  0.00  0.00    -0.356 N 
ATOM      6  H   UNL     1       0.323  -0.522   0.067  0.00  0.00    +0.166 HD
ATOM      7  C   UNL     1       1.325   1.266  -0.345  0.00  0.00    +0.068 A 
ATOM      8  C   UNL     1      -2.282   0.545  -0.188  0.00  0.00    +0.064 C 
ENDROOT
BRANCH   7   9
ATOM      9  C   UNL     1       2.748   0.891  -0.262  0.00  0.00    +0.074 A 
ATOM     10  C   UNL     1       3.668   1.549  -1.000  0.00  0.00    +0.076 A 
ATOM     11  S   UNL     1       5.182   0.726  -0.535  0.00  0.00    -0.058 S 
ATOM     12  C   UNL     1       4.485  -0.452   0.613  0.00  0.00    +0.169 A 
ATOM     13  N   UNL     1       5.087  -1.377   1.317  0.00  0.00    -0.264 NA
ATOM     14  C   UNL     1       6.539  -1.546   1.216  0.00  0.00    +0.173 C 
ATOM     15  N   UNL     1       3.146  -0.130   0.561  0.00  0.00    -0.321 N 
ATOM     16  C   UNL     1       2.169  -0.863   1.370  0.00  0.00    +0.151 C 
ENDBRANCH   7   9
BRANCH   3  17
ATOM     17  C   UNL     1      -1.522   3.514  -0.858  0.00  0.00    +0.341 C 
ATOM     18  O   UNL     1      -1.916   3.731  -1.987  0.00  0.00    -0.245 OA
BRANCH  17  19
ATOM     19  O   UNL     1      -1.955   4.277   0.166  0.00  0.00    -0.464 OA
ATOM     20  C   UNL     1      -2.890   5.341  -0.155  0.00  0.00    +0.280 C 
ENDBRANCH  17  19
ENDBRANCH   3  17
TORSDOF 3
