REMARK  Name = ZINC09128761
REMARK  8 active torsions:
REMARK  status: ('A' for Active; 'I' for Inactive)
REMARK    1  A    between atoms: C_1  and  C_2
REMARK    2  A    between atoms: C_2  and  C_4
REMARK    3  A    between atoms: C_2  and  O_17
REMARK    4  A    between atoms: N_6  and  C_7
REMARK    5  A    between atoms: C_10  and  N_14
REMARK    6  A    between atoms: O_17  and  C_18
REMARK    7  A    between atoms: C_18  and  C_20
REMARK    8  A    between atoms: C_20  and  C_21
REMARK                            x       y       z     vdW  Elec       q    Type
REMARK                         _______ _______ _______ _____ _____    ______ ____
ROOT
ATOM      1  C   UNL     1       1.388  -4.534   3.622  0.00  0.00    +0.062 C 
ATOM      2  C   UNL     1       2.665  -3.962   3.002  0.00  0.00    +0.259 C 
ENDROOT
BRANCH   2   3
ATOM      3  C   UNL     1       3.758  -4.998   3.057  0.00  0.00    +0.258 C 
ATOM      4  O   UNL     1       4.272  -5.393   2.031  0.00  0.00    -0.271 OA
ATOM      5  N   UNL     1       4.164  -5.487   4.245  0.00  0.00    -0.281 N 
ATOM      6  H   UNL     1       3.811  -5.115   5.069  0.00  0.00    +0.155 HD
BRANCH   5   7
ATOM      7  C   UNL     1       5.096  -6.531   4.291  0.00  0.00    +0.052 A 
ATOM      8  C   UNL     1       5.222  -7.399   3.215  0.00  0.00    +0.027 A 
ATOM      9  C   UNL     1       6.142  -8.428   3.264  0.00  0.00    +0.034 A 
ATOM     10  C   UNL     1       6.937  -8.595   4.383  0.00  0.00    +0.128 A 
ATOM     11  C   UNL     1       6.815  -7.733   5.456  0.00  0.00    +0.054 A 
ATOM     12  C   UNL     1       5.900  -6.697   5.412  0.00  0.00    +0.064 A 
ATOM     13 CL   UNL     1       5.752  -5.611   6.758  0.00  0.00    -0.082 Cl
BRANCH  10  14
ATOM     14  N   UNL     1       7.922  -9.698   4.430  0.00  0.00    +0.056 N 
ATOM     15  O   UNL     1       8.032 -10.459   3.485  0.00  0.00    -0.126 OA
ATOM     16  O   UNL     1       8.624  -9.847   5.415  0.00  0.00    -0.126 OA
ENDBRANCH  10  14
ENDBRANCH   5   7
ENDBRANCH   2   3
BRANCH   2  17
ATOM     17  O   UNL     1       2.410  -3.600   1.619  0.00  0.00    -0.452 OA
BRANCH  17  18
ATOM     18  C   UNL     1       1.980  -2.350   1.386  0.00  0.00    +0.312 C 
ATOM     19  O   UNL     1       1.822  -1.584   2.306  0.00  0.00    -0.250 OA
BRANCH  18  20
ATOM     20  C   UNL     1       1.695  -1.902  -0.025  0.00  0.00    +0.159 C 
BRANCH  20  21
ATOM     21  C   UNL     1       1.230  -0.469  -0.012  0.00  0.00    +0.009 A 
ATOM     22  C   UNL     1      -0.037  -0.035   0.002  0.00  0.00    +0.200 A 
ATOM     23  O   UNL     1      -0.066   1.310   0.010  0.00  0.00    -0.463 OA
ATOM     24  C   UNL     1       1.183   1.818   0.002  0.00  0.00    +0.135 A 
ATOM     25  C   UNL     1       2.074   0.732  -0.012  0.00  0.00    +0.024 A 
ATOM     26  C   UNL     1       3.448   0.958  -0.023  0.00  0.00    +0.015 A 
ATOM     27  C   UNL     1       3.932   2.250  -0.019  0.00  0.00    -0.043 A 
ATOM     28  C   UNL     1       3.053   3.324  -0.004  0.00  0.00    -0.041 A 
ATOM     29  C   UNL     1       1.688   3.110   0.007  0.00  0.00    +0.050 A 
ATOM     30  C   UNL     1       3.835   4.621  -0.002  0.00  0.00    +0.036 C 
ATOM     31  C   UNL     1       5.257   4.237  -0.461  0.00  0.00    +0.009 C 
ATOM     32  C   UNL     1       5.358   2.759  -0.030  0.00  0.00    +0.036 C 
ENDBRANCH  20  21
ENDBRANCH  18  20
ENDBRANCH  17  18
ENDBRANCH   2  17
TORSDOF 7
