REMARK  Name = ZINC08869021
REMARK  7 active torsions:
REMARK  status: ('A' for Active; 'I' for Inactive)
REMARK    1  A    between atoms: C_1  and  C_2
REMARK    2  A    between atoms: C_2  and  N_57
REMARK    3  A    between atoms: C_8  and  N_13
REMARK    4  A    between atoms: C_9  and  C_10
REMARK    5  A    between atoms: C_14  and  C_16
REMARK    6  A    between atoms: N_21  and  S_22
REMARK    7  A    between atoms: S_22  and  C_25
REMARK                            x       y       z     vdW  Elec       q    Type
REMARK                         _______ _______ _______ _____ _____    ______ ____
ROOT
ATOM      1  N   UNL     1      -1.073  -0.880   0.008  0.00  0.00    -0.278 N 
ATOM      2  C   UNL     1      -2.332  -0.401   0.023  0.00  0.00    +0.236 C 
ATOM      3  O   UNL     1      -2.526   0.796   0.032  0.00  0.00    -0.274 OA
ATOM      4  H   UNL     1      -0.918  -1.838   0.001  0.00  0.00    +0.155 HD
ENDROOT
BRANCH   1  10
ATOM      5  C   UNL     1       4.403   2.011  -0.472  0.00  0.00    -0.074 C 
ATOM      6  C   UNL     1       3.806   0.671  -0.035  0.00  0.00    +0.018 C 
ATOM      7  C   UNL     1       2.288   0.811  -0.016  0.00  0.00    -0.027 A 
ATOM      8  C   UNL     1       1.720   2.038  -0.003  0.00  0.00    -0.021 A 
ATOM      9  S   UNL     1      -0.021   1.729   0.011  0.00  0.00    -0.079 S 
ATOM     10  C   UNL     1       0.002  -0.004   0.002  0.00  0.00    +0.084 A 
ATOM     11  C   UNL     1       1.358  -0.303  -0.013  0.00  0.00    +0.068 A 
ATOM     12  C   UNL     1       2.440   3.350  -0.001  0.00  0.00    -0.035 C 
ATOM     13  N   UNL     1       3.852   3.092   0.371  0.00  0.00    +0.383 N 
ATOM     14  H   UNL     1       3.891   2.801   1.355  0.00  0.00    -0.081 HD
BRANCH  11  15
ATOM     15  C   UNL     1       1.832  -1.690  -0.024  0.00  0.00    +0.244 C 
ATOM     16  O   UNL     1       2.019  -2.261  -1.083  0.00  0.00    -0.270 OA
ATOM     17  N   UNL     1       2.061  -2.334   1.137  0.00  0.00    -0.325 N 
ATOM     18  H   UNL     1       1.912  -1.879   1.981  0.00  0.00    +0.145 HD
ATOM     19  H   UNL     1       2.374  -3.252   1.130  0.00  0.00    +0.145 HD
ENDBRANCH  11  15
BRANCH  13  21
ATOM     20  C   UNL     1       4.207   5.351   1.244  0.00  0.00    -0.017 C 
ATOM     21  C   UNL     1       4.653   4.324   0.202  0.00  0.00    -0.082 C 
ENDBRANCH  13  21
ENDBRANCH   1  10
BRANCH   2  22
ATOM     22  C   UNL     1      -3.501  -1.353   0.030  0.00  0.00    +0.166 C 
ATOM     23  C   UNL     1      -3.460  -2.225   1.302  0.00  0.00    +0.031 C 
ATOM     24  C   UNL     1      -4.441  -1.486   2.257  0.00  0.00    +0.019 C 
ATOM     25  C   UNL     1      -5.515  -0.974   1.265  0.00  0.00    +0.110 C 
ATOM     26  N   UNL     1      -4.761  -0.597   0.054  0.00  0.00    -0.165 NA
BRANCH  26  27
ATOM     27  S   UNL     1      -5.254   0.496  -1.087  0.00  0.00    +0.062 S 
ATOM     28  O   UNL     1      -6.175   1.367  -0.446  0.00  0.00    -0.153 OA
ATOM     29  O   UNL     1      -4.078   0.971  -1.729  0.00  0.00    -0.153 OA
BRANCH  27  30
ATOM     30  C   UNL     1      -6.166  -0.395  -2.303  0.00  0.00    +0.106 A 
ATOM     31  C   UNL     1      -5.516  -0.930  -3.400  0.00  0.00    +0.030 A 
ATOM     32  C   UNL     1      -6.230  -1.634  -4.351  0.00  0.00    +0.022 A 
ATOM     33  C   UNL     1      -7.597  -1.794  -4.212  0.00  0.00    +0.041 A 
ATOM     34  C   UNL     1      -8.248  -1.253  -3.117  0.00  0.00    +0.022 A 
ATOM     35  C   UNL     1      -7.532  -0.554  -2.163  0.00  0.00    +0.030 A 
ATOM     36 CL   UNL     1      -8.495  -2.671  -5.410  0.00  0.00    -0.084 Cl
ENDBRANCH  27  30
ENDBRANCH  26  27
ENDBRANCH   2  22
TORSDOF 6
