REMARK  Name = ZINC12303890
REMARK  9 active torsions:
REMARK  status: ('A' for Active; 'I' for Inactive)
REMARK    1  A    between atoms: C_1  and  C_2
REMARK    2  A    between atoms: C_2  and  C_3
REMARK    3  A    between atoms: C_2  and  C_4
REMARK    4  A    between atoms: C_2  and  O_28
REMARK    5  A    between atoms: C_5  and  C_6
REMARK    6  A    between atoms: C_9  and  C_11
REMARK    7  A    between atoms: C_11  and  N_54
REMARK    8  A    between atoms: C_15  and  N_18
REMARK    9  A    between atoms: N_18  and  C_19
REMARK                            x       y       z     vdW  Elec       q    Type
REMARK                         _______ _______ _______ _____ _____    ______ ____
ROOT
ATOM      1  C   UNL     1      -6.487   1.877   0.825  0.00  0.00    -0.078 C 
ATOM      2  C   UNL     1      -5.450   2.794   1.477  0.00  0.00    -0.017 C 
ATOM      3  C   UNL     1      -4.085   2.100   1.471  0.00  0.00    +0.018 C 
ATOM      4  C   UNL     1      -3.705   1.754   0.029  0.00  0.00    +0.054 C 
ATOM      5  C   UNL     1      -4.792   0.866  -0.581  0.00  0.00    -0.056 C 
ATOM      6  N   UNL     1      -6.075   1.601  -0.568  0.00  0.00    +0.384 N 
ATOM      7  H   UNL     1      -5.953   2.492  -1.062  0.00  0.00    -0.081 HD
ENDROOT
BRANCH   4   8
ATOM      8  N   UNL     1      -2.426   1.038   0.019  0.00  0.00    -0.343 N 
ATOM      9  H   UNL     1      -2.413   0.068   0.013  0.00  0.00    +0.146 HD
BRANCH   8  10
ATOM     10  C   UNL     1      -1.224   1.754   0.017  0.00  0.00    +0.031 A 
ATOM     11  C   UNL     1      -1.242   3.142   0.030  0.00  0.00    +0.027 A 
ATOM     12  C   UNL     1      -0.055   3.850   0.023  0.00  0.00    +0.051 A 
ATOM     13  C   UNL     1       1.156   3.177   0.008  0.00  0.00    +0.166 A 
ATOM     14  C   UNL     1       1.177   1.785   0.000  0.00  0.00    +0.168 A 
ATOM     15  C   UNL     1      -0.013   1.076   0.008  0.00  0.00    +0.072 A 
ATOM     16  O   UNL     1       2.477   1.369  -0.014  0.00  0.00    -0.453 OA
ATOM     17  C   UNL     1       3.252   2.511   0.397  0.00  0.00    +0.466 C 
ATOM     18  O   UNL     1       2.443   3.634  -0.002  0.00  0.00    -0.453 OA
ENDBRANCH   8  10
ENDBRANCH   4   8
BRANCH   6  19
ATOM     19  C   UNL     1      -7.117   0.810  -1.254  0.00  0.00    -0.036 C 
BRANCH  19  23
ATOM     20  C   UNL     1     -10.677   3.017  -1.293  0.00  0.00    +0.062 A 
ATOM     21  C   UNL     1      -9.862   3.194  -2.382  0.00  0.00    +0.025 A 
ATOM     22  C   UNL     1      -8.672   2.505  -2.436  0.00  0.00    +0.010 A 
ATOM     23  C   UNL     1      -8.346   1.665  -1.419  0.00  0.00    -0.026 A 
ATOM     24  S   UNL     1      -9.745   1.843  -0.324  0.00  0.00    -0.087 S 
BRANCH  20  26
ATOM     25  C   UNL     1     -12.985   4.111  -0.772  0.00  0.00    -0.062 C 
ATOM     26  C   UNL     1     -11.945   3.618  -1.007  0.00  0.00    -0.056 C 
BRANCH  25  28
ATOM     27  C   UNL     1     -15.350   3.636  -0.340  0.00  0.00    +0.055 C 
ATOM     28  C   UNL     1     -14.288   4.728  -0.478  0.00  0.00    +0.121 C 
ATOM     29  C   UNL     1     -14.195   5.518   0.829  0.00  0.00    +0.055 C 
BRANCH  28  30
ATOM     30  O   UNL     1     -14.648   5.611  -1.543  0.00  0.00    -0.377 OA
ATOM     31  H   UNL     1     -14.725   5.177  -2.404  0.00  0.00    +0.211 HD
ENDBRANCH  28  30
ENDBRANCH  25  28
ENDBRANCH  20  26
ENDBRANCH  19  23
ENDBRANCH   6  19
TORSDOF 7
