REMARK  Name = ZINC39639319
REMARK  7 active torsions:
REMARK  status: ('A' for Active; 'I' for Inactive)
REMARK    1  A    between atoms: C_1  and  C_2
REMARK    2  A    between atoms: C_5  and  C_8
REMARK    3  A    between atoms: C_8  and  C_10
REMARK    4  A    between atoms: C_8  and  N_11
REMARK    5  A    between atoms: C_12  and  C_14
REMARK    6  A    between atoms: C_25  and  C_27
REMARK    7  A    between atoms: C_31  and  C_33
REMARK                            x       y       z     vdW  Elec       q    Type
REMARK                         _______ _______ _______ _____ _____    ______ ____
ROOT
ATOM      1  C   UNL     1       2.704  -6.263   1.433  0.00  0.00    +0.100 C 
ATOM      2  C   UNL     1       3.967  -5.453   1.803  0.00  0.00    +0.121 C 
ATOM      3  N   UNL     1       4.985  -6.477   2.137  0.00  0.00    -0.296 N 
ATOM      4  C   UNL     1       4.766  -7.553   1.141  0.00  0.00    +0.115 C 
ATOM      5  C   UNL     1       3.233  -7.641   0.998  0.00  0.00    -0.004 C 
ATOM      6  C   UNL     1       2.854  -7.917  -0.454  0.00  0.00    -0.010 C 
ATOM      7  C   UNL     1       3.340  -9.316  -0.846  0.00  0.00    -0.082 C 
ATOM      8  N   UNL     1       2.728 -10.314   0.040  0.00  0.00    +0.379 N 
ATOM      9  C   UNL     1       3.172 -10.097   1.422  0.00  0.00    -0.082 C 
ATOM     10  C   UNL     1       2.679  -8.731   1.910  0.00  0.00    -0.010 C 
ATOM     11  C   UNL     1       5.902  -6.439   3.124  0.00  0.00    +0.247 C 
ATOM     12  O   UNL     1       5.886  -5.533   3.934  0.00  0.00    -0.270 OA
ATOM     13  H   UNL     1       1.723 -10.232  -0.006  0.00  0.00    -0.086 HD
ATOM     14  H   UNL     1       3.001 -11.239  -0.258  0.00  0.00    -0.086 HD
ENDROOT
BRANCH  11  15
ATOM     15  C   UNL     1       6.928  -7.498   3.220  0.00  0.00    +0.037 A 
ATOM     16  C   UNL     1       7.251  -8.265   2.099  0.00  0.00    +0.014 A 
ATOM     17  C   UNL     1       8.209  -9.253   2.196  0.00  0.00    +0.016 A 
ATOM     18  C   UNL     1       8.849  -9.485   3.402  0.00  0.00    +0.021 A 
ATOM     19  C   UNL     1       8.532  -8.728   4.517  0.00  0.00    -0.036 A 
ATOM     20  C   UNL     1       7.581  -7.733   4.431  0.00  0.00    +0.017 A 
ATOM     21  C   UNL     1       9.234  -8.987   5.825  0.00  0.00    +0.045 C 
ATOM     22 BR   UNL     1      10.160 -10.842   3.526  0.00  0.00    -0.050 Br
ENDBRANCH  11  15
BRANCH   1  24
ATOM     23  N   UNL     1       0.635  -5.747   0.180  0.00  0.00    -0.308 N 
ATOM     24  C   UNL     1       1.970  -5.600   0.296  0.00  0.00    +0.219 C 
ATOM     25  O   UNL     1       2.580  -4.935  -0.513  0.00  0.00    -0.275 OA
ATOM     26  H   UNL     1       0.147  -6.279   0.828  0.00  0.00    +0.149 HD
BRANCH  23  27
ATOM     27  C   UNL     1      -0.079  -5.102  -0.925  0.00  0.00    +0.100 C 
ATOM     28  C   UNL     1      -0.020  -6.000  -2.163  0.00  0.00    +0.033 C 
BRANCH  27  33
ATOM     29  C   UNL     1      -5.595  -4.257   0.576  0.00  0.00    +0.044 C 
ATOM     30  C   UNL     1      -4.156  -4.478   0.185  0.00  0.00    -0.050 A 
ATOM     31  C   UNL     1      -3.477  -3.507  -0.527  0.00  0.00    +0.004 A 
ATOM     32  C   UNL     1      -2.158  -3.709  -0.886  0.00  0.00    +0.006 A 
ATOM     33  C   UNL     1      -1.517  -4.881  -0.533  0.00  0.00    -0.027 A 
ATOM     34  C   UNL     1      -2.196  -5.852   0.180  0.00  0.00    +0.006 A 
ATOM     35  C   UNL     1      -3.514  -5.648   0.543  0.00  0.00    +0.004 A 
ENDBRANCH  27  33
ENDBRANCH  23  27
ENDBRANCH   1  24
TORSDOF 4
