REMARK  Name = ZINC38649557
REMARK  9 active torsions:
REMARK  status: ('A' for Active; 'I' for Inactive)
REMARK    1  A    between atoms: C_1  and  C_2
REMARK    2  A    between atoms: C_2  and  C_3
REMARK    3  A    between atoms: C_2  and  C_4
REMARK    4  A    between atoms: C_7  and  C_10
REMARK    5  A    between atoms: C_15  and  O_24
REMARK    6  A    between atoms: C_19  and  N_23
REMARK    7  A    between atoms: C_20  and  C_21
REMARK    8  A    between atoms: O_24  and  C_25
REMARK    9  A    between atoms: C_25  and  C_27
REMARK                            x       y       z     vdW  Elec       q    Type
REMARK                         _______ _______ _______ _____ _____    ______ ____
ROOT
ATOM      1  C   UNL     1      -5.434  -2.003   0.050  0.00  0.00    +0.098 C 
ATOM      2  C   UNL     1      -6.154  -1.506  -1.176  0.00  0.00    +0.008 A 
ATOM      3  C   UNL     1      -6.657  -0.218  -1.193  0.00  0.00    +0.012 A 
ATOM      4  C   UNL     1      -7.321   0.255  -2.308  0.00  0.00    +0.047 A 
ATOM      5  C   UNL     1      -7.484  -0.564  -3.417  0.00  0.00    +0.135 A 
ATOM      6  C   UNL     1      -6.980  -1.854  -3.403  0.00  0.00    +0.093 A 
ATOM      7  C   UNL     1      -6.313  -2.328  -2.280  0.00  0.00    +0.138 A 
ATOM      8  O   UNL     1      -5.826  -3.594  -2.282  0.00  0.00    -0.441 OA
ATOM      9  C   UNL     1      -5.535  -4.201  -1.120  0.00  0.00    +0.199 C 
ATOM     10  C   UNL     1      -5.337  -3.503   0.020  0.00  0.00    +0.098 C 
ENDROOT
BRANCH   1  14
ATOM     11  C   UNL     1      -1.503  -0.335   0.159  0.00  0.00    -0.045 A 
ATOM     12  C   UNL     1      -2.390  -0.081   1.188  0.00  0.00    +0.004 A 
ATOM     13  C   UNL     1      -3.663  -0.621   1.153  0.00  0.00    +0.005 A 
ATOM     14  C   UNL     1      -4.047  -1.414   0.088  0.00  0.00    -0.035 A 
ATOM     15  C   UNL     1      -3.160  -1.668  -0.941  0.00  0.00    +0.005 A 
ATOM     16  C   UNL     1      -1.889  -1.125  -0.908  0.00  0.00    +0.004 A 
BRANCH  11  18
ATOM     17  C   UNL     1      -0.211   1.780   0.242  0.00  0.00    +0.012 C 
ATOM     18  C   UNL     1      -0.116   0.253   0.198  0.00  0.00    +0.013 C 
ATOM     19  C   UNL     1       0.617  -0.249   1.444  0.00  0.00    +0.012 C 
ENDBRANCH  11  18
ENDBRANCH   1  14
BRANCH   9  20
ATOM     20  N   UNL     1      -5.435  -5.570  -1.090  0.00  0.00    -0.328 N 
ATOM     21  H   UNL     1      -5.574  -6.084  -1.901  0.00  0.00    +0.145 HD
ATOM     22  H   UNL     1      -5.225  -6.023  -0.259  0.00  0.00    +0.145 HD
ENDBRANCH   9  20
BRANCH  10  23
ATOM     23  C   UNL     1      -5.028  -4.210   1.226  0.00  0.00    +0.101 C 
ATOM     24  N   UNL     1      -4.783  -4.772   2.183  0.00  0.00    -0.191 NA
ENDBRANCH  10  23
BRANCH   5  25
ATOM     25  O   UNL     1      -8.137  -0.101  -4.515  0.00  0.00    -0.422 OA
BRANCH  25  26
ATOM     26  C   UNL     1      -7.559   0.889  -5.225  0.00  0.00    +0.345 C 
ATOM     27  O   UNL     1      -6.443   1.273  -4.934  0.00  0.00    -0.245 OA
BRANCH  26  28
ATOM     28  C   UNL     1      -8.280   1.505  -6.352  0.00  0.00    +0.067 A 
ATOM     29  C   UNL     1      -9.602   1.169  -6.617  0.00  0.00    +0.015 A 
ATOM     30  C   UNL     1     -10.278   1.751  -7.680  0.00  0.00    +0.001 A 
ATOM     31  C   UNL     1      -9.684   2.665  -8.496  0.00  0.00    +0.008 A 
ATOM     32  C   UNL     1      -8.350   3.053  -8.286  0.00  0.00    -0.017 A 
ATOM     33  C   UNL     1      -7.622   2.488  -7.210  0.00  0.00    -0.004 A 
ATOM     34  C   UNL     1      -6.294   2.875  -6.995  0.00  0.00    +0.009 A 
ATOM     35  C   UNL     1      -5.718   3.795  -7.821  0.00  0.00    +0.001 A 
ATOM     36  C   UNL     1      -6.433   4.356  -8.876  0.00  0.00    +0.001 A 
ATOM     37  C   UNL     1      -7.723   3.994  -9.120  0.00  0.00    +0.008 A 
ENDBRANCH  26  28
ENDBRANCH  25  26
ENDBRANCH   5  25
TORSDOF 7
