REMARK  Name = ZINC35689032
REMARK  12 active torsions:
REMARK  status: ('A' for Active; 'I' for Inactive)
REMARK    1  A    between atoms: C_1  and  C_2
REMARK    2  A    between atoms: C_2  and  C_3
REMARK    3  A    between atoms: C_3  and  C_4
REMARK    4  A    between atoms: C_4  and  N_5
REMARK    5  A    between atoms: N_5  and  C_6
REMARK    6  A    between atoms: C_6  and  C_8
REMARK    7  A    between atoms: C_6  and  C_10
REMARK    8  A    between atoms: C_8  and  C_9
REMARK    9  A    between atoms: N_20  and  C_21
REMARK   10  A    between atoms: C_24  and  C_28
REMARK   11  A    between atoms: C_25  and  C_27
REMARK   12  A    between atoms: N_31  and  C_32
REMARK                            x       y       z     vdW  Elec       q    Type
REMARK                         _______ _______ _______ _____ _____    ______ ____
ROOT
ATOM      1  C   UNL     1       2.329  -2.239  -2.639  0.00  0.00    +0.144 C 
ENDROOT
BRANCH   1   2
ATOM      2  C   UNL     1       3.489  -1.348  -2.276  0.00  0.00    +0.138 A 
ATOM      3  N   UNL     1       3.576  -0.915  -1.055  0.00  0.00    -0.231 NA
ATOM      4  C   UNL     1       4.592  -0.109  -0.656  0.00  0.00    +0.078 A 
ATOM      5  C   UNL     1       4.686   0.356   0.657  0.00  0.00    +0.028 A 
ATOM      6  C   UNL     1       5.734   1.171   1.018  0.00  0.00    +0.002 A 
ATOM      7  C   UNL     1       6.701   1.539   0.092  0.00  0.00    +0.001 A 
ATOM      8  C   UNL     1       6.630   1.094  -1.210  0.00  0.00    +0.015 A 
ATOM      9  C   UNL     1       5.578   0.266  -1.596  0.00  0.00    +0.065 A 
ATOM     10  C   UNL     1       5.451  -0.240  -2.970  0.00  0.00    +0.266 A 
ATOM     11  O   UNL     1       6.266   0.046  -3.827  0.00  0.00    -0.267 OA
ATOM     12  N   UNL     1       4.395  -1.041  -3.244  0.00  0.00    -0.263 N 
BRANCH  12  13
ATOM     13  C   UNL     1       4.230  -1.555  -4.537  0.00  0.00    +0.051 A 
ATOM     14  C   UNL     1       3.846  -0.717  -5.575  0.00  0.00    +0.026 A 
ATOM     15  C   UNL     1       3.685  -1.226  -6.848  0.00  0.00    +0.005 A 
ATOM     16  C   UNL     1       3.906  -2.570  -7.090  0.00  0.00    -0.047 A 
ATOM     17  C   UNL     1       4.287  -3.407  -6.058  0.00  0.00    -0.046 A 
ATOM     18  C   UNL     1       4.456  -2.903  -4.784  0.00  0.00    +0.030 A 
ATOM     19  C   UNL     1       4.526  -4.871  -6.326  0.00  0.00    +0.044 C 
ATOM     20  C   UNL     1       3.729  -3.122  -8.481  0.00  0.00    +0.044 C 
ENDBRANCH  12  13
ENDBRANCH   1   2
BRANCH   1  21
ATOM     21  N   UNL     1       1.082  -1.475  -2.556  0.00  0.00    -0.276 N 
ATOM     22  C   UNL     1       0.252  -1.423  -3.617  0.00  0.00    +0.303 C 
ATOM     23  O   UNL     1       0.539  -2.010  -4.643  0.00  0.00    -0.253 OA
ATOM     24  N   UNL     1      -0.895  -0.720  -3.542  0.00  0.00    -0.294 N 
ATOM     25  H   UNL     1      -1.124  -0.252  -2.724  0.00  0.00    +0.151 HD
BRANCH  24  26
ATOM     26  C   UNL     1      -1.797  -0.664  -4.695  0.00  0.00    +0.037 C 
ATOM     27  C   UNL     1      -1.063  -0.046  -5.887  0.00  0.00    +0.029 C 
ATOM     28  C   UNL     1      -2.004   0.013  -7.091  0.00  0.00    -0.008 C 
ATOM     29  C   UNL     1      -3.224   0.869  -6.744  0.00  0.00    +0.007 C 
ATOM     30  C   UNL     1      -3.958   0.251  -5.552  0.00  0.00    -0.008 C 
ATOM     31  C   UNL     1      -3.016   0.192  -4.348  0.00  0.00    +0.029 C 
ATOM     32  C   UNL     1      -4.414  -1.164  -5.912  0.00  0.00    +0.007 C 
ATOM     33  C   UNL     1      -3.195  -2.020  -6.260  0.00  0.00    -0.008 C 
ATOM     34  C   UNL     1      -2.461  -1.402  -7.452  0.00  0.00    +0.007 C 
ATOM     35  C   UNL     1      -2.253  -2.079  -5.056  0.00  0.00    +0.029 C 
ENDBRANCH  24  26
BRANCH  21  36
ATOM     36  C   UNL     1       0.736  -0.767  -1.321  0.00  0.00    +0.110 C 
BRANCH  36  37
ATOM     37  C   UNL     1       1.167   0.696  -1.434  0.00  0.00    +0.019 C 
BRANCH  37  39
ATOM     38  C   UNL     1       1.138   2.924  -0.304  0.00  0.00    +0.004 C 
ATOM     39  C   UNL     1       0.708   1.461  -0.191  0.00  0.00    -0.002 C 
ENDBRANCH  37  39
ENDBRANCH  36  37
ENDBRANCH  21  36
ENDBRANCH   1  21
BRANCH   1  40
ATOM     40  C   UNL     1       2.269  -3.419  -1.666  0.00  0.00    +0.027 C 
ATOM     41  C   UNL     1       1.176  -4.392  -2.111  0.00  0.00    +0.006 C 
ENDBRANCH   1  40
TORSDOF 8
