REMARK  Name = ZINC33127646
REMARK  6 active torsions:
REMARK  status: ('A' for Active; 'I' for Inactive)
REMARK    1  A    between atoms: C_1  and  C_2
REMARK    2  A    between atoms: C_5  and  C_26
REMARK    3  A    between atoms: C_6  and  N_8
REMARK    4  A    between atoms: N_11  and  C_12
REMARK    5  A    between atoms: C_12  and  C_14
REMARK    6  A    between atoms: C_12  and  C_15
REMARK                            x       y       z     vdW  Elec       q    Type
REMARK                         _______ _______ _______ _____ _____    ______ ____
ROOT
ATOM      1  N   UNL     1      -2.537  -1.541   1.551  0.00  0.00    -0.269 N 
ATOM      2  C   UNL     1      -1.377  -0.901   1.309  0.00  0.00    +0.304 C 
ATOM      3  O   UNL     1      -0.739  -0.429   2.230  0.00  0.00    -0.252 OA
ATOM      4  N   UNL     1      -0.923  -0.784   0.045  0.00  0.00    -0.288 N 
ATOM      5  H   UNL     1      -3.154  -1.898   0.713  0.00  0.00    +0.156 HD
ATOM      6  H   UNL     1      -1.500  -1.211  -0.788  0.00  0.00    +0.151 HD
ENDROOT
BRANCH   1  12
ATOM      7  C   UNL     1      -1.446  -1.954   6.327  0.00  0.00    +0.044 C 
ATOM      8  C   UNL     1      -2.450  -1.958   5.204  0.00  0.00    -0.049 A 
ATOM      9  C   UNL     1      -3.789  -2.171   5.475  0.00  0.00    +0.004 A 
ATOM     10  C   UNL     1      -4.713  -2.176   4.447  0.00  0.00    +0.005 A 
ATOM     11  C   UNL     1      -4.302  -1.962   3.145  0.00  0.00    -0.029 A 
ATOM     12  C   UNL     1      -2.958  -1.753   2.869  0.00  0.00    +0.038 A 
ATOM     13  C   UNL     1      -2.032  -1.749   3.904  0.00  0.00    +0.027 A 
ATOM     14  C   UNL     1      -5.311  -1.961   2.026  0.00  0.00    +0.045 C 
ENDBRANCH   1  12
BRANCH   4  15
ATOM     15  C   UNL     1       0.339  -0.088  -0.218  0.00  0.00    +0.158 C 
ATOM     16  C   UNL     1       0.079   1.416  -0.328  0.00  0.00    +0.038 C 
BRANCH  15  17
ATOM     17  C   UNL     1       0.930  -0.591  -1.510  0.00  0.00    +0.240 C 
ATOM     18  O   UNL     1       0.233  -1.184  -2.306  0.00  0.00    -0.273 OA
ATOM     19  N   UNL     1       2.234  -0.382  -1.781  0.00  0.00    -0.269 N 
ATOM     20  C   UNL     1       3.193   0.239  -0.865  0.00  0.00    +0.118 C 
ATOM     21  C   UNL     1       4.529   0.250  -1.626  0.00  0.00    +0.056 C 
ATOM     22  C   UNL     1       4.213  -0.389  -2.959  0.00  0.00    -0.024 A 
ATOM     23  C   UNL     1       2.870  -0.733  -2.976  0.00  0.00    +0.040 A 
ATOM     24  C   UNL     1       2.340  -1.338  -4.117  0.00  0.00    +0.024 A 
ATOM     25  C   UNL     1       3.146  -1.597  -5.205  0.00  0.00    +0.002 A 
ATOM     26  C   UNL     1       4.485  -1.254  -5.176  0.00  0.00    +0.000 A 
ATOM     27  C   UNL     1       5.016  -0.650  -4.052  0.00  0.00    +0.005 A 
ENDBRANCH  15  17
ENDBRANCH   4  15
TORSDOF 3
