REMARK  Name = ZINC01795809
REMARK  7 active torsions:
REMARK  status: ('A' for Active; 'I' for Inactive)
REMARK    1  A    between atoms: C_1  and  C_2
REMARK    2  A    between atoms: C_5  and  S_8
REMARK    3  A    between atoms: S_8  and  C_9
REMARK    4  A    between atoms: C_11  and  N_20
REMARK    5  A    between atoms: C_18  and  O_19
REMARK    6  A    between atoms: N_20  and  S_21
REMARK    7  A    between atoms: S_21  and  C_24
REMARK                            x       y       z     vdW  Elec       q    Type
REMARK                         _______ _______ _______ _____ _____    ______ ____
ROOT
ATOM      1  C   UNL     1      -2.352   4.879   0.614  0.00  0.00    +0.057 A 
ATOM      2  C   UNL     1      -1.199   5.667   0.549  0.00  0.00    +0.043 A 
ATOM      3  C   UNL     1       0.023   5.102   0.262  0.00  0.00    +0.057 A 
ATOM      4  C   UNL     1       0.116   3.713   0.031  0.00  0.00    +0.008 A 
ATOM      5  C   UNL     1       1.347   3.107  -0.265  0.00  0.00    +0.010 A 
ATOM      6  C   UNL     1       1.404   1.765  -0.483  0.00  0.00    +0.001 A 
ATOM      7  C   UNL     1       0.255   0.978  -0.418  0.00  0.00    +0.001 A 
ATOM      8  C   UNL     1      -0.957   1.531  -0.140  0.00  0.00    +0.012 A 
ATOM      9  C   UNL     1      -1.053   2.914   0.097  0.00  0.00    +0.026 A 
ATOM     10  C   UNL     1      -2.289   3.516   0.393  0.00  0.00    +0.138 A 
ENDROOT
BRANCH  10  11
ATOM     11  O   UNL     1      -3.420   2.761   0.459  0.00  0.00    -0.505 OA
ATOM     12  H   UNL     1      -3.606   2.408   1.340  0.00  0.00    +0.292 HD
ENDBRANCH  10  11
BRANCH   3  13
ATOM     13  N   UNL     1       1.167   5.901   0.200  0.00  0.00    -0.216 N 
ATOM     14  H   UNL     1       1.864   5.701  -0.446  0.00  0.00    +0.174 HD
BRANCH  13  15
ATOM     15  S   UNL     1       1.335   7.188   1.227  0.00  0.00    +0.072 S 
ATOM     16  O   UNL     1       2.639   7.712   1.013  0.00  0.00    -0.150 OA
ATOM     17  O   UNL     1       0.163   7.979   1.082  0.00  0.00    -0.150 OA
BRANCH  15  18
ATOM     18  C   UNL     1       1.311   6.551   2.870  0.00  0.00    +0.109 A 
ATOM     19  C   UNL     1       0.097   6.438   3.545  0.00  0.00    +0.029 A 
ATOM     20  C   UNL     1       0.044   5.944   4.812  0.00  0.00    +0.010 A 
ATOM     21  C   UNL     1       1.229   5.553   5.456  0.00  0.00    -0.018 A 
ATOM     22  C   UNL     1       1.214   5.045   6.767  0.00  0.00    +0.008 A 
ATOM     23  C   UNL     1       2.382   4.675   7.359  0.00  0.00    +0.001 A 
ATOM     24  C   UNL     1       3.597   4.793   6.686  0.00  0.00    +0.001 A 
ATOM     25  C   UNL     1       3.650   5.280   5.416  0.00  0.00    +0.008 A 
ATOM     26  C   UNL     1       2.465   5.672   4.772  0.00  0.00    -0.016 A 
ATOM     27  C   UNL     1       2.480   6.181   3.462  0.00  0.00    +0.037 A 
ENDBRANCH  15  18
ENDBRANCH  13  15
ENDBRANCH   3  13
BRANCH   1  28
ATOM     28  S   UNL     1      -3.901   5.632   0.984  0.00  0.00    -0.086 S 
BRANCH  28  33
ATOM     29  C   UNL     1      -6.720   5.862  -4.349  0.00  0.00    +0.044 C 
ATOM     30  C   UNL     1      -6.017   5.804  -3.018  0.00  0.00    -0.050 A 
ATOM     31  C   UNL     1      -6.684   6.185  -1.868  0.00  0.00    +0.004 A 
ATOM     32  C   UNL     1      -6.042   6.134  -0.646  0.00  0.00    +0.015 A 
ATOM     33  C   UNL     1      -4.724   5.699  -0.573  0.00  0.00    +0.013 A 
ATOM     34  C   UNL     1      -4.055   5.322  -1.732  0.00  0.00    +0.015 A 
ATOM     35  C   UNL     1      -4.705   5.370  -2.949  0.00  0.00    +0.004 A 
ENDBRANCH  28  33
ENDBRANCH   1  28
TORSDOF 6
