REMARK  Name = ZINC02664369
REMARK  14 active torsions:
REMARK  status: ('A' for Active; 'I' for Inactive)
REMARK    1  A    between atoms: C_1  and  C_2
REMARK    2  A    between atoms: C_2  and  C_3
REMARK    3  A    between atoms: C_3  and  C_5
REMARK    4  A    between atoms: C_3  and  C_6
REMARK    5  A    between atoms: C_11  and  N_12
REMARK    6  A    between atoms: C_13  and  C_15
REMARK    7  A    between atoms: C_15  and  S_16
REMARK    8  A    between atoms: S_16  and  C_17
REMARK    9  A    between atoms: C_20  and  C_29
REMARK   10  A    between atoms: N_21  and  C_22
REMARK   11  A    between atoms: C_29  and  C_31
REMARK   12  A    between atoms: C_29  and  N_62
REMARK   13  A    between atoms: C_32  and  N_62
REMARK   14  A    between atoms: C_33  and  N_62
REMARK                            x       y       z     vdW  Elec       q    Type
REMARK                         _______ _______ _______ _____ _____    ______ ____
ROOT
ATOM      1  C   UNL     1      -2.681   4.460   0.067  0.00  0.00    +0.197 A 
ATOM      2  N   UNL     1      -3.773   3.731   0.073  0.00  0.00    -0.122 NA
ATOM      3  N   UNL     1      -4.808   4.492   0.091  0.00  0.00    -0.135 NA
ATOM      4  C   UNL     1      -4.444   5.744   0.097  0.00  0.00    +0.125 A 
ATOM      5  N   UNL     1      -3.075   5.769   0.087  0.00  0.00    -0.275 N 
ENDROOT
BRANCH   5   6
ATOM      6  C   UNL     1      -2.248   6.903   0.093  0.00  0.00    +0.050 A 
ATOM      7  C   UNL     1      -2.242   7.753   1.191  0.00  0.00    +0.029 A 
ATOM      8  C   UNL     1      -1.423   8.865   1.198  0.00  0.00    +0.040 A 
ATOM      9  C   UNL     1      -0.617   9.139   0.106  0.00  0.00    +0.124 A 
ATOM     10  C   UNL     1      -0.626   8.296  -0.992  0.00  0.00    +0.040 A 
ATOM     11  C   UNL     1      -1.439   7.180  -1.000  0.00  0.00    +0.029 A 
ATOM     12  F   UNL     1       0.179  10.231   0.112  0.00  0.00    -0.205 F 
ENDBRANCH   5   6
BRANCH   4  13
ATOM     13  C   UNL     1      -5.360   6.940   0.117  0.00  0.00    -0.003 C 
ATOM     14  C   UNL     1      -5.951   7.106   1.519  0.00  0.00    -0.005 C 
BRANCH  13  17
ATOM     15  C   UNL     1      -7.360   7.892  -0.860  0.00  0.00    -0.096 C 
ATOM     16  C   UNL     1      -5.911   6.485  -2.196  0.00  0.00    -0.096 C 
ATOM     17  N   UNL     1      -6.461   6.719  -0.844  0.00  0.00    +0.382 N 
ATOM     18  H   UNL     1      -6.995   5.892  -0.554  0.00  0.00    -0.082 HD
ENDBRANCH  13  17
ENDBRANCH   4  13
BRANCH   1  19
ATOM     19  S   UNL     1      -1.023   3.864   0.044  0.00  0.00    -0.076 S 
BRANCH  19  20
ATOM     20  C   UNL     1      -1.330   2.080   0.033  0.00  0.00    +0.173 C 
BRANCH  20  22
ATOM     21  N   UNL     1       0.002  -0.004   0.001  0.00  0.00    -0.285 N 
ATOM     22  C   UNL     1      -0.015   1.344   0.013  0.00  0.00    +0.227 C 
ATOM     23  O   UNL     1       1.027   1.964   0.001  0.00  0.00    -0.275 OA
ATOM     24  H   UNL     1      -0.828  -0.500   0.077  0.00  0.00    +0.155 HD
BRANCH  21  30
ATOM     25  C   UNL     1       1.278  -1.879  -0.827  0.00  0.00    -0.023 A 
ATOM     26  C   UNL     1       2.480  -2.551  -0.944  0.00  0.00    +0.006 A 
ATOM     27  C   UNL     1       3.621  -2.037  -0.357  0.00  0.00    +0.000 A 
ATOM     28  C   UNL     1       3.564  -0.849   0.348  0.00  0.00    +0.002 A 
ATOM     29  C   UNL     1       2.367  -0.169   0.464  0.00  0.00    +0.023 A 
ATOM     30  C   UNL     1       1.218  -0.686  -0.119  0.00  0.00    +0.037 A 
BRANCH  25  31
ATOM     31  C   UNL     1       0.035  -2.441  -1.467  0.00  0.00    +0.017 C 
ATOM     32  C   UNL     1       0.289  -2.674  -2.958  0.00  0.00    +0.012 C 
BRANCH  31  34
ATOM     33  C   UNL     1      -1.658  -4.276  -1.361  0.00  0.00    +0.004 C 
ATOM     34  C   UNL     1      -0.329  -3.768  -0.798  0.00  0.00    +0.004 C 
ENDBRANCH  31  34
ENDBRANCH  25  31
ENDBRANCH  21  30
ENDBRANCH  20  22
ENDBRANCH  19  20
ENDBRANCH   1  19
TORSDOF 9
