REMARK  Name = ZINC22240219
REMARK  7 active torsions:
REMARK  status: ('A' for Active; 'I' for Inactive)
REMARK    1  A    between atoms: C_1  and  C_2
REMARK    2  A    between atoms: C_2  and  C_3
REMARK    3  A    between atoms: C_3  and  C_29
REMARK    4  A    between atoms: N_6  and  C_10
REMARK    5  A    between atoms: C_10  and  C_11
REMARK    6  A    between atoms: C_14  and  C_24
REMARK    7  A    between atoms: C_17  and  C_19
REMARK                            x       y       z     vdW  Elec       q    Type
REMARK                         _______ _______ _______ _____ _____    ______ ____
ROOT
ATOM      1  C   UNL     1       0.921   8.798   0.043  0.00  0.00    +0.215 C 
ENDROOT
BRANCH   1   5
ATOM      2  C   UNL     1       1.657  12.385  -0.578  0.00  0.00    +0.138 C 
ATOM      3  C   UNL     1       1.366  10.979  -1.064  0.00  0.00    +0.251 C 
ATOM      4  O   UNL     1       1.282  10.605  -2.214  0.00  0.00    -0.272 OA
ATOM      5  N   UNL     1       1.218  10.233   0.048  0.00  0.00    -0.215 N 
ATOM      6  C   UNL     1       1.381  10.962   1.157  0.00  0.00    +0.310 C 
ATOM      7  O   UNL     1       1.299  10.509   2.282  0.00  0.00    -0.252 OA
ATOM      8  N   UNL     1       1.646  12.254   0.889  0.00  0.00    -0.281 N 
ATOM      9  H   UNL     1       1.835  13.133   1.522  0.00  0.00    +0.152 HD
BRANCH   2  10
ATOM     10  C   UNL     1       0.585  13.341  -1.033  0.00  0.00    -0.015 A 
ATOM     11  C   UNL     1       0.762  14.079  -2.188  0.00  0.00    +0.007 A 
ATOM     12  C   UNL     1      -0.224  14.952  -2.609  0.00  0.00    +0.020 A 
ATOM     13  C   UNL     1      -1.383  15.095  -1.868  0.00  0.00    +0.041 A 
ATOM     14  C   UNL     1      -1.558  14.360  -0.709  0.00  0.00    +0.020 A 
ATOM     15  C   UNL     1      -0.574  13.483  -0.292  0.00  0.00    +0.007 A 
ATOM     16 CL   UNL     1      -2.618  16.196  -2.392  0.00  0.00    -0.084 Cl
ENDBRANCH   2  10
BRANCH   2  18
ATOM     17  C   UNL     1       4.094  11.835  -0.637  0.00  0.00    +0.007 C 
ATOM     18  C   UNL     1       3.031  12.848  -1.066  0.00  0.00    +0.037 C 
ENDBRANCH   2  18
ENDBRANCH   1   5
BRANCH   1  19
ATOM     19  C   UNL     1      -0.572   8.594   0.055  0.00  0.00    +0.253 C 
ATOM     20  O   UNL     1      -1.315   9.552   0.068  0.00  0.00    -0.272 OA
ATOM     21  N   UNL     1      -1.081   7.346   0.053  0.00  0.00    -0.181 N 
ATOM     22  C   UNL     1      -2.513   7.006   0.065  0.00  0.00    +0.173 C 
ATOM     23  C   UNL     1      -2.520   5.465   0.056  0.00  0.00    +0.090 C 
ATOM     24  C   UNL     1      -1.054   5.093   0.040  0.00  0.00    +0.075 C 
ATOM     25  N   UNL     1      -0.338   6.167   0.045  0.00  0.00    -0.180 NA
BRANCH  24  26
ATOM     26  C   UNL     1      -0.528   3.724   0.027  0.00  0.00    +0.035 A 
ATOM     27  C   UNL     1       0.788   3.296   0.012  0.00  0.00    +0.017 A 
ATOM     28  C   UNL     1       1.034   1.942   0.003  0.00  0.00    +0.008 A 
ATOM     29  C   UNL     1      -0.013   1.076   0.008  0.00  0.00    +0.046 A 
ATOM     30  S   UNL     1      -1.418   2.176   0.019  0.00  0.00    -0.095 S 
ENDBRANCH  24  26
BRANCH  22  31
ATOM     31  C   UNL     1      -3.172   7.532   1.313  0.00  0.00    +0.128 A 
ATOM     32  C   UNL     1      -4.432   7.997   1.402  0.00  0.00    +0.046 A 
ATOM     33  C   UNL     1      -4.633   8.382   2.747  0.00  0.00    +0.041 A 
ATOM     34  C   UNL     1      -3.482   8.137   3.399  0.00  0.00    +0.195 A 
ATOM     35  O   UNL     1      -2.601   7.622   2.525  0.00  0.00    -0.466 OA
ENDBRANCH  22  31
ENDBRANCH   1  19
TORSDOF 6
