REMARK  Name = ZINC38702835
REMARK  5 active torsions:
REMARK  status: ('A' for Active; 'I' for Inactive)
REMARK    1  A    between atoms: C_1  and  C_2
REMARK    2  A    between atoms: C_2  and  C_3
REMARK    3  A    between atoms: C_6  and  C_9
REMARK    4  A    between atoms: C_16  and  C_25
REMARK    5  A    between atoms: C_25  and  C_26
REMARK                            x       y       z     vdW  Elec       q    Type
REMARK                         _______ _______ _______ _____ _____    ______ ____
ROOT
ATOM      1  C   UNL     1       2.797  -1.919   4.683  0.00  0.00    +0.141 C 
ATOM      2  C   UNL     1       3.026  -0.797   5.643  0.00  0.00    +0.072 A 
ATOM      3  C   UNL     1       3.779   0.454   5.505  0.00  0.00    +0.199 A 
ATOM      4  O   UNL     1       4.223   0.851   4.442  0.00  0.00    -0.287 OA
ATOM      5  C   UNL     1       3.947   1.190   6.783  0.00  0.00    +0.065 A 
ATOM      6  C   UNL     1       4.803   2.289   6.858  0.00  0.00    +0.019 A 
ATOM      7  C   UNL     1       4.951   2.953   8.044  0.00  0.00    -0.047 A 
ATOM      8  C   UNL     1       4.254   2.537   9.170  0.00  0.00    +0.007 A 
ATOM      9  C   UNL     1       3.403   1.456   9.113  0.00  0.00    +0.047 A 
ATOM     10  C   UNL     1       3.233   0.762   7.915  0.00  0.00    +0.139 A 
ATOM     11  O   UNL     1       2.385  -0.291   7.879  0.00  0.00    -0.450 OA
ATOM     12  C   UNL     1       2.380  -1.106   6.806  0.00  0.00    +0.199 A 
ATOM     13  C   UNL     1       1.731  -2.418   6.640  0.00  0.00    +0.281 C 
ATOM     14  O   UNL     1       1.077  -2.984   7.494  0.00  0.00    -0.267 OA
ATOM     15  N   UNL     1       1.969  -2.901   5.402  0.00  0.00    -0.298 N 
ATOM     16  H   UNL     1       1.651  -3.746   5.048  0.00  0.00    +0.150 HD
ENDROOT
BRANCH   1  20
ATOM     17  C   UNL     1       0.731  -0.503   1.223  0.00  0.00    -0.048 A 
ATOM     18  C   UNL     1       2.097  -0.710   1.176  0.00  0.00    +0.004 A 
ATOM     19  C   UNL     1       2.766  -1.167   2.296  0.00  0.00    +0.006 A 
ATOM     20  C   UNL     1       2.068  -1.419   3.463  0.00  0.00    -0.023 A 
ATOM     21  C   UNL     1       0.702  -1.212   3.510  0.00  0.00    +0.006 A 
ATOM     22  C   UNL     1       0.034  -0.750   2.391  0.00  0.00    +0.004 A 
BRANCH  17  24
ATOM     23  C   UNL     1      -0.019   1.526   0.010  0.00  0.00    +0.009 C 
ATOM     24  C   UNL     1       0.002  -0.004   0.002  0.00  0.00    +0.032 C 
ENDBRANCH  17  24
ENDBRANCH   1  20
BRANCH   7  25
ATOM     25  C   UNL     1       5.874   4.141   8.129  0.00  0.00    +0.032 C 
ATOM     26  C   UNL     1       5.095   5.417   7.804  0.00  0.00    +0.009 C 
ENDBRANCH   7  25
TORSDOF 3
