REMARK  Name = ZINC35779147
REMARK  19 active torsions:
REMARK  status: ('A' for Active; 'I' for Inactive)
REMARK    1  A    between atoms: C_1  and  C_2
REMARK    2  A    between atoms: C_5  and  O_9
REMARK    3  A    between atoms: C_6  and  C_8
REMARK    4  A    between atoms: O_9  and  C_10
REMARK    5  A    between atoms: C_10  and  C_11
REMARK    6  A    between atoms: C_21  and  C_23
REMARK    7  A    between atoms: C_23  and  N_24
REMARK    8  A    between atoms: N_24  and  C_25
REMARK    9  A    between atoms: N_24  and  C_34
REMARK   10  A    between atoms: C_25  and  C_26
REMARK   11  A    between atoms: C_26  and  C_28
REMARK   12  A    between atoms: C_26  and  O_33
REMARK   13  A    between atoms: C_28  and  O_29
REMARK   14  A    between atoms: O_29  and  C_30
REMARK   15  A    between atoms: C_30  and  C_31
REMARK   16  A    between atoms: C_30  and  C_32
REMARK   17  A    between atoms: C_34  and  C_35
REMARK   18  A    between atoms: C_35  and  C_36
REMARK   19  A    between atoms: C_35  and  C_37
REMARK                            x       y       z     vdW  Elec       q    Type
REMARK                         _______ _______ _______ _____ _____    ______ ____
ROOT
ATOM      1  C   UNL     1      -0.189  -5.884  -1.151  0.00  0.00    +0.144 C 
ATOM      2  C   UNL     1       0.954  -6.144  -0.172  0.00  0.00    -0.014 A 
ATOM      3  C   UNL     1       2.299  -6.022  -0.518  0.00  0.00    +0.013 A 
ATOM      4  C   UNL     1       3.259  -6.264   0.403  0.00  0.00    +0.046 A 
ATOM      5  S   UNL     1       2.289  -6.687   1.843  0.00  0.00    -0.101 S 
ATOM      6  C   UNL     1       0.684  -6.513   1.110  0.00  0.00    -0.004 A 
ATOM      7  C   UNL     1      -0.653  -6.724   1.742  0.00  0.00    +0.061 C 
ATOM      8  C   UNL     1      -1.726  -6.076   0.854  0.00  0.00    +0.113 C 
ATOM      9  N   UNL     1      -1.425  -6.403  -0.549  0.00  0.00    -0.292 N 
ATOM     10  C   UNL     1      -2.269  -7.167  -1.271  0.00  0.00    +0.200 C 
ATOM     11  O   UNL     1      -2.010  -7.431  -2.426  0.00  0.00    -0.278 OA
ENDROOT
BRANCH   1  12
ATOM     12  C   UNL     1      -0.326  -4.381  -1.402  0.00  0.00    +0.256 C 
BRANCH  12  13
ATOM     13  O   UNL     1      -0.467  -3.701  -0.153  0.00  0.00    -0.490 OA
BRANCH  13  18
ATOM     14  C   UNL     1      -1.022   1.901  -0.339  0.00  0.00    +0.044 C 
ATOM     15  C   UNL     1      -0.873   0.402  -0.289  0.00  0.00    -0.050 A 
ATOM     16  C   UNL     1      -0.732  -0.317  -1.462  0.00  0.00    +0.007 A 
ATOM     17  C   UNL     1      -0.596  -1.691  -1.419  0.00  0.00    +0.046 A 
ATOM     18  C   UNL     1      -0.600  -2.350  -0.198  0.00  0.00    +0.124 A 
ATOM     19  C   UNL     1      -0.742  -1.626   0.977  0.00  0.00    -0.009 A 
ATOM     20  C   UNL     1      -0.872  -0.251   0.929  0.00  0.00    +0.010 A 
ATOM     21  C   UNL     1      -0.747  -2.338   2.305  0.00  0.00    +0.047 C 
ENDBRANCH  13  18
ENDBRANCH  12  13
ENDBRANCH   1  12
BRANCH  10  22
ATOM     22  C   UNL     1      -3.533  -7.694  -0.642  0.00  0.00    +0.019 C 
BRANCH  22  23
ATOM     23  N   UNL     1      -4.274  -8.492  -1.628  0.00  0.00    +0.387 N 
ATOM     24  H   UNL     1      -4.430  -7.941  -2.458  0.00  0.00    -0.081 HD
BRANCH  23  25
ATOM     25  C   UNL     1      -5.567  -8.896  -1.058  0.00  0.00    -0.044 C 
BRANCH  25  26
ATOM     26  C   UNL     1      -6.453  -7.662  -0.879  0.00  0.00    +0.124 C 
BRANCH  26  27
ATOM     27  O   UNL     1      -5.911  -6.831   0.149  0.00  0.00    -0.391 OA
ATOM     28  H   UNL     1      -5.847  -7.264   1.012  0.00  0.00    +0.210 HD
ENDBRANCH  26  27
BRANCH  26  29
ATOM     29  C   UNL     1      -7.866  -8.102  -0.488  0.00  0.00    +0.189 C 
BRANCH  29  30
ATOM     30  O   UNL     1      -8.722  -6.959  -0.435  0.00  0.00    -0.375 OA
BRANCH  30  31
ATOM     31  C   UNL     1     -10.072  -7.261  -0.077  0.00  0.00    +0.112 C 
ATOM     32  C   UNL     1     -10.225  -7.187   1.444  0.00  0.00    +0.037 C 
ATOM     33  C   UNL     1     -11.013  -6.248  -0.733  0.00  0.00    +0.037 C 
ENDBRANCH  30  31
ENDBRANCH  29  30
ENDBRANCH  26  29
ENDBRANCH  25  26
ENDBRANCH  23  25
BRANCH  23  34
ATOM     34  C   UNL     1      -3.496  -9.689  -1.973  0.00  0.00    -0.075 C 
BRANCH  34  35
ATOM     35  C   UNL     1      -4.195 -10.443  -3.106  0.00  0.00    -0.034 C 
ATOM     36  C   UNL     1      -4.213  -9.571  -4.364  0.00  0.00    +0.005 C 
ATOM     37  C   UNL     1      -3.440 -11.741  -3.397  0.00  0.00    +0.005 C 
ENDBRANCH  34  35
ENDBRANCH  23  34
ENDBRANCH  22  23
ENDBRANCH  10  22
TORSDOF 13
