REMARK  Name = ZINC63491316
REMARK  10 active torsions:
REMARK  status: ('A' for Active; 'I' for Inactive)
REMARK    1  A    between atoms: C_1  and  C_2
REMARK    2  A    between atoms: C_3  and  O_32
REMARK    3  A    between atoms: C_11  and  C_16
REMARK    4  A    between atoms: C_13  and  C_15
REMARK    5  A    between atoms: C_16  and  C_17
REMARK    6  A    between atoms: N_19  and  C_20
REMARK    7  A    between atoms: C_20  and  C_21
REMARK    8  A    between atoms: C_21  and  C_22
REMARK    9  A    between atoms: O_32  and  C_33
REMARK   10  A    between atoms: C_33  and  C_35
REMARK                            x       y       z     vdW  Elec       q    Type
REMARK                         _______ _______ _______ _____ _____    ______ ____
ROOT
ATOM      1  C   UNL     1       1.989  -1.735   3.597  0.00  0.00    +0.111 C 
ENDROOT
BRANCH   1  12
ATOM      2  C   UNL     1      -0.115   1.519  -0.003  0.00  0.00    +0.051 C 
ATOM      3  C   UNL     1      -0.046   0.014   0.002  0.00  0.00    +0.034 A 
ATOM      4  C   UNL     1       0.004  -0.679  -1.197  0.00  0.00    +0.138 A 
ATOM      5  C   UNL     1       0.066  -2.065  -1.189  0.00  0.00    +0.047 A 
ATOM      6  C   UNL     1       0.074  -2.748   0.010  0.00  0.00    +0.011 A 
ATOM      7  C   UNL     1       0.022  -2.059   1.211  0.00  0.00    -0.001 A 
ATOM      8  C   UNL     1      -0.027  -0.675   1.208  0.00  0.00    +0.141 A 
ATOM      9  O   UNL     1      -0.053   0.044   2.363  0.00  0.00    -0.425 OA
ATOM     10  C   UNL     1      -0.244  -0.631   3.514  0.00  0.00    +0.317 C 
ATOM     11  O   UNL     1      -0.956  -0.200   4.391  0.00  0.00    -0.250 OA
ATOM     12  C   UNL     1       0.476  -1.957   3.656  0.00  0.00    +0.114 C 
ATOM     13  C   UNL     1       0.023  -2.852   2.494  0.00  0.00    +0.034 C 
ATOM     14  C   UNL     1      -1.386  -3.385   2.762  0.00  0.00    +0.013 C 
BRANCH   4  15
ATOM     15  O   UNL     1      -0.009  -0.003  -2.376  0.00  0.00    -0.426 OA
BRANCH  15  16
ATOM     16  C   UNL     1       1.150   0.508  -2.822  0.00  0.00    +0.309 C 
ATOM     17  O   UNL     1       2.179   0.277  -2.233  0.00  0.00    -0.251 OA
ATOM     18  C   UNL     1       1.167   1.371  -4.058  0.00  0.00    +0.136 C 
ENDBRANCH  15  16
ENDBRANCH   4  15
ENDBRANCH   1  12
BRANCH   1  19
ATOM     19  C   UNL     1       2.424  -0.920   4.787  0.00  0.00    +0.214 C 
ATOM     20  O   UNL     1       1.605  -0.553   5.603  0.00  0.00    -0.276 OA
ATOM     21  N   UNL     1       3.724  -0.599   4.945  0.00  0.00    -0.315 N 
ATOM     22  H   UNL     1       4.378  -0.893   4.293  0.00  0.00    +0.149 HD
BRANCH  21  23
ATOM     23  C   UNL     1       4.147   0.194   6.102  0.00  0.00    +0.108 C 
BRANCH  23  24
ATOM     24  C   UNL     1       5.659   0.415   6.043  0.00  0.00    +0.052 C 
BRANCH  24  25
ATOM     25  C   UNL     1       6.095   1.231   7.233  0.00  0.00    -0.040 C 
ATOM     26  C   UNL     1       6.579   0.763   8.406  0.00  0.00    +0.000 A 
ATOM     27  C   UNL     1       6.834  -0.593   8.906  0.00  0.00    +0.030 A 
ATOM     28  C   UNL     1       7.334  -0.750  10.154  0.00  0.00    +0.042 A 
ATOM     29  C   UNL     1       7.612   0.350  10.979  0.00  0.00    +0.022 A 
ATOM     30  C   UNL     1       7.404   1.625  10.590  0.00  0.00    +0.027 A 
ATOM     31  C   UNL     1       6.881   1.906   9.297  0.00  0.00    +0.043 A 
ATOM     32  N   UNL     1       6.596   3.036   8.698  0.00  0.00    -0.380 N 
ATOM     33  C   UNL     1       6.085   2.738   7.355  0.00  0.00    +0.144 C 
ATOM     34 CL   UNL     1       7.637  -2.352  10.748  0.00  0.00    -0.084 Cl
ATOM     35  H   UNL     1       6.707   3.922   9.078  0.00  0.00    +0.160 HD
ENDBRANCH  24  25
ENDBRANCH  23  24
ENDBRANCH  21  23
ENDBRANCH   1  19
TORSDOF 7
