REMARK  Name = ZINC12401317
REMARK  10 active torsions:
REMARK  status: ('A' for Active; 'I' for Inactive)
REMARK    1  A    between atoms: C_1  and  C_2
REMARK    2  A    between atoms: C_2  and  C_3
REMARK    3  A    between atoms: C_2  and  C_4
REMARK    4  A    between atoms: C_4  and  C_5
REMARK    5  A    between atoms: C_5  and  C_7
REMARK    6  A    between atoms: C_5  and  N_10
REMARK    7  A    between atoms: N_10  and  S_11
REMARK    8  A    between atoms: S_11  and  C_14
REMARK    9  A    between atoms: C_24  and  O_26
REMARK   10  A    between atoms: O_26  and  C_27
REMARK                            x       y       z     vdW  Elec       q    Type
REMARK                         _______ _______ _______ _____ _____    ______ ____
ROOT
ATOM      1  S   UNL     1       5.263  -0.456  -3.744  0.00  0.00    +0.059 S 
ATOM      2  O   UNL     1       6.543   0.037  -3.373  0.00  0.00    -0.153 OA
ATOM      3  O   UNL     1       4.965  -1.844  -3.790  0.00  0.00    -0.153 OA
ENDROOT
BRANCH   1   4
ATOM      4  C   UNL     1       4.103   0.272  -2.635  0.00  0.00    +0.106 A 
ATOM      5  C   UNL     1       4.408   1.462  -2.001  0.00  0.00    +0.030 A 
ATOM      6  C   UNL     1       3.499   2.031  -1.131  0.00  0.00    +0.026 A 
ATOM      7  C   UNL     1       2.280   1.408  -0.894  0.00  0.00    +0.043 A 
ATOM      8  C   UNL     1       1.973   0.217  -1.532  0.00  0.00    -0.024 A 
ATOM      9  C   UNL     1       2.891  -0.348  -2.402  0.00  0.00    +0.034 A 
ATOM     10  C   UNL     1       0.660  -0.483  -1.302  0.00  0.00    +0.038 C 
ATOM     11  C   UNL     1       0.029  -0.022   0.011  0.00  0.00    +0.024 C 
ATOM     12  C   UNL     1      -0.012   1.511   0.030  0.00  0.00    +0.117 C 
ATOM     13  N   UNL     1       1.374   1.998  -0.000  0.00  0.00    -0.237 N 
ATOM     14  C   UNL     1       1.768   2.995   0.816  0.00  0.00    +0.407 C 
ATOM     15  O   UNL     1       2.940   3.313   0.865  0.00  0.00    -0.226 OA
BRANCH  14  16
ATOM     16  O   UNL     1       0.864   3.639   1.578  0.00  0.00    -0.453 OA
ATOM     17  C   UNL     1       1.360   4.702   2.434  0.00  0.00    +0.282 C 
ENDBRANCH  14  16
ENDBRANCH   1   4
BRANCH   1  18
ATOM     18  N   UNL     1       4.943   0.147  -5.253  0.00  0.00    -0.178 NA
ATOM     19  H   UNL     1       4.633  -0.445  -5.956  0.00  0.00    +0.149 HD
BRANCH  18  20
ATOM     20  C   UNL     1       5.128   1.575  -5.525  0.00  0.00    +0.162 C 
BRANCH  20  21
ATOM     21  C   UNL     1       6.495   1.800  -6.119  0.00  0.00    +0.229 C 
ATOM     22  O   UNL     1       7.241   0.860  -6.297  0.00  0.00    -0.274 OA
ATOM     23  N   UNL     1       6.888   3.045  -6.453  0.00  0.00    -0.328 N 
ATOM     24  H   UNL     1       6.292   3.796  -6.311  0.00  0.00    +0.145 HD
ATOM     25  H   UNL     1       7.768   3.189  -6.835  0.00  0.00    +0.145 HD
ENDBRANCH  20  21
BRANCH  20  26
ATOM     26  C   UNL     1       4.059   2.048  -6.512  0.00  0.00    +0.032 C 
BRANCH  26  28
ATOM     27  C   UNL     1       2.593   2.902  -4.678  0.00  0.00    +0.007 C 
ATOM     28  C   UNL     1       2.679   1.936  -5.862  0.00  0.00    -0.015 C 
ATOM     29  C   UNL     1       1.601   2.291  -6.888  0.00  0.00    +0.007 C 
ENDBRANCH  26  28
ENDBRANCH  20  26
ENDBRANCH  18  20
ENDBRANCH   1  18
TORSDOF 7
