REMARK  Name = ZINC17958604
REMARK  6 active torsions:
REMARK  status: ('A' for Active; 'I' for Inactive)
REMARK    1  A    between atoms: C_1  and  C_2
REMARK    2  A    between atoms: C_7  and  N_8
REMARK    3  A    between atoms: C_9  and  C_11
REMARK    4  A    between atoms: C_11  and  N_12
REMARK    5  A    between atoms: C_13  and  C_15
REMARK    6  A    between atoms: C_20  and  N_21
REMARK                            x       y       z     vdW  Elec       q    Type
REMARK                         _______ _______ _______ _____ _____    ______ ____
ROOT
ATOM      1  N   UNL     1       3.695  -2.650  -0.870  0.00  0.00    -0.303 N 
ATOM      2  C   UNL     1       4.643  -3.390  -0.263  0.00  0.00    +0.247 C 
ATOM      3  O   UNL     1       5.744  -2.917  -0.056  0.00  0.00    -0.270 OA
ATOM      4  H   UNL     1       2.817  -3.027  -1.035  0.00  0.00    +0.150 HD
ENDROOT
BRANCH   2   5
ATOM      5  C   UNL     1       4.346  -4.777   0.151  0.00  0.00    +0.067 A 
ATOM      6  C   UNL     1       3.048  -5.280   0.036  0.00  0.00    +0.017 A 
ATOM      7  C   UNL     1       2.776  -6.575   0.424  0.00  0.00    +0.021 A 
ATOM      8  C   UNL     1       3.788  -7.377   0.926  0.00  0.00    +0.043 A 
ATOM      9  C   UNL     1       5.077  -6.884   1.042  0.00  0.00    +0.053 A 
ATOM     10  C   UNL     1       5.362  -5.592   0.652  0.00  0.00    +0.140 A 
ATOM     11 CL   UNL     1       3.439  -9.007   1.412  0.00  0.00    -0.083 Cl
BRANCH  10  12
ATOM     12  N   UNL     1       6.742  -5.069   0.770  0.00  0.00    +0.057 N 
ATOM     13  O   UNL     1       7.269  -4.522  -0.182  0.00  0.00    -0.126 OA
ATOM     14  O   UNL     1       7.350  -5.186   1.819  0.00  0.00    -0.126 OA
ENDBRANCH  10  12
ENDBRANCH   2   5
BRANCH   1  15
ATOM     15  C   UNL     1       3.990  -1.274  -1.280  0.00  0.00    +0.200 C 
BRANCH  15  17
ATOM     16  N   UNL     1       2.809   0.595  -2.389  0.00  0.00    -0.284 N 
ATOM     17  C   UNL     1       2.771  -0.672  -1.930  0.00  0.00    +0.234 C 
ATOM     18  O   UNL     1       1.756  -1.327  -2.040  0.00  0.00    -0.274 OA
ATOM     19  H   UNL     1       3.639   1.096  -2.362  0.00  0.00    +0.155 HD
BRANCH  16  26
ATOM     20  C   UNL     1       2.538   3.419  -2.181  0.00  0.00    +0.046 C 
ATOM     21  C   UNL     1       1.478   2.563  -2.824  0.00  0.00    -0.028 A 
ATOM     22  C   UNL     1       0.334   3.145  -3.334  0.00  0.00    +0.020 A 
ATOM     23  C   UNL     1      -0.640   2.359  -3.925  0.00  0.00    +0.018 A 
ATOM     24  C   UNL     1      -0.468   0.989  -4.011  0.00  0.00    +0.017 A 
ATOM     25  C   UNL     1       0.671   0.401  -3.498  0.00  0.00    +0.024 A 
ATOM     26  C   UNL     1       1.650   1.187  -2.905  0.00  0.00    +0.036 A 
ATOM     27 BR   UNL     1      -2.205   3.160  -4.622  0.00  0.00    -0.050 Br
ENDBRANCH  16  26
ENDBRANCH  15  17
ENDBRANCH   1  15
TORSDOF 5
