REMARK  Name = ZINC39638015
REMARK  10 active torsions:
REMARK  status: ('A' for Active; 'I' for Inactive)
REMARK    1  A    between atoms: C_1  and  C_2
REMARK    2  A    between atoms: C_2  and  C_3
REMARK    3  A    between atoms: C_3  and  C_5
REMARK    4  A    between atoms: C_3  and  N_8
REMARK    5  A    between atoms: C_5  and  O_6
REMARK    6  A    between atoms: O_6  and  C_7
REMARK    7  A    between atoms: C_9  and  C_11
REMARK    8  A    between atoms: C_22  and  C_24
REMARK    9  A    between atoms: C_25  and  C_37
REMARK   10  A    between atoms: C_28  and  C_29
REMARK                            x       y       z     vdW  Elec       q    Type
REMARK                         _______ _______ _______ _____ _____    ______ ____
ROOT
ATOM      1  C   UNL     1      -0.694   0.830  -3.846  0.00  0.00    +0.100 C 
ATOM      2  C   UNL     1      -0.491  -0.092  -5.069  0.00  0.00    +0.121 C 
ATOM      3  N   UNL     1      -0.337   0.834  -6.215  0.00  0.00    -0.296 N 
ATOM      4  C   UNL     1       0.478   1.951  -5.681  0.00  0.00    +0.115 C 
ATOM      5  C   UNL     1      -0.057   2.170  -4.251  0.00  0.00    -0.004 C 
ATOM      6  C   UNL     1      -1.105   3.278  -4.245  0.00  0.00    -0.010 C 
ATOM      7  C   UNL     1      -0.436   4.610  -4.596  0.00  0.00    -0.082 C 
ATOM      8  N   UNL     1       0.619   4.901  -3.618  0.00  0.00    +0.379 N 
ATOM      9  C   UNL     1       1.670   3.880  -3.696  0.00  0.00    -0.082 C 
ATOM     10  C   UNL     1       1.090   2.517  -3.307  0.00  0.00    -0.010 C 
ATOM     11  C   UNL     1      -0.829   0.693  -7.462  0.00  0.00    +0.252 C 
ATOM     12  O   UNL     1      -0.614   1.548  -8.301  0.00  0.00    -0.270 OA
ATOM     13  H   UNL     1       1.018   5.807  -3.815  0.00  0.00    -0.086 HD
ATOM     14  H   UNL     1       0.224   4.905  -2.690  0.00  0.00    -0.086 HD
ENDROOT
BRANCH  11  15
ATOM     15  C   UNL     1      -1.625  -0.496  -7.810  0.00  0.00    +0.106 A 
ATOM     16  C   UNL     1      -2.978  -0.627  -7.707  0.00  0.00    +0.147 A 
ATOM     17  O   UNL     1      -3.313  -1.853  -8.120  0.00  0.00    -0.359 OA
ATOM     18  N   UNL     1      -2.149  -2.554  -8.507  0.00  0.00    -0.077 NA
ATOM     19  C   UNL     1      -1.114  -1.769  -8.341  0.00  0.00    +0.130 A 
ATOM     20  C   UNL     1      -3.933   0.429  -7.213  0.00  0.00    +0.090 C 
BRANCH  19  21
ATOM     21  C   UNL     1       0.301  -2.102  -8.630  0.00  0.00    +0.058 A 
ATOM     22  C   UNL     1       1.092  -1.220  -9.369  0.00  0.00    +0.134 A 
ATOM     23  C   UNL     1       2.412  -1.536  -9.633  0.00  0.00    +0.039 A 
ATOM     24  C   UNL     1       2.948  -2.722  -9.167  0.00  0.00    +0.004 A 
ATOM     25  C   UNL     1       2.170  -3.600  -8.434  0.00  0.00    +0.021 A 
ATOM     26  C   UNL     1       0.851  -3.294  -8.158  0.00  0.00    +0.053 A 
ATOM     27 CL   UNL     1      -0.122  -4.393  -7.232  0.00  0.00    -0.083 Cl
ATOM     28  F   UNL     1       0.569  -0.061  -9.825  0.00  0.00    -0.205 F 
ENDBRANCH  19  21
ENDBRANCH  11  15
BRANCH   1  30
ATOM     29  N   UNL     1      -0.428   0.576  -1.400  0.00  0.00    -0.310 N 
ATOM     30  C   UNL     1       0.004   0.261  -2.638  0.00  0.00    +0.218 C 
ATOM     31  O   UNL     1       0.953  -0.480  -2.779  0.00  0.00    -0.275 OA
ATOM     32  H   UNL     1      -1.134   1.231  -1.284  0.00  0.00    +0.149 HD
BRANCH  29  33
ATOM     33  C   UNL     1       0.170  -0.071  -0.229  0.00  0.00    +0.098 C 
BRANCH  33  35
ATOM     34  C   UNL     1       2.307   1.204  -0.454  0.00  0.00    +0.006 C 
ATOM     35  C   UNL     1       1.120   0.908   0.464  0.00  0.00    +0.021 C 
ENDBRANCH  33  35
BRANCH  33  36
ATOM     36  C   UNL     1      -0.935  -0.485   0.744  0.00  0.00    +0.181 C 
BRANCH  36  37
ATOM     37  O   UNL     1      -1.587   0.682   1.249  0.00  0.00    -0.381 OA
ATOM     38  C   UNL     1      -2.642   0.404   2.172  0.00  0.00    +0.194 C 
ENDBRANCH  36  37
ENDBRANCH  33  36
ENDBRANCH  29  33
ENDBRANCH   1  30
TORSDOF 7
