REMARK  Name = ZINC20882313
REMARK  10 active torsions:
REMARK  status: ('A' for Active; 'I' for Inactive)
REMARK    1  A    between atoms: C_1  and  O_2
REMARK    2  A    between atoms: O_2  and  C_3
REMARK    3  A    between atoms: C_7  and  C_9
REMARK    4  A    between atoms: C_14  and  C_24
REMARK    5  A    between atoms: C_26  and  O_34
REMARK    6  A    between atoms: C_27  and  O_32
REMARK    7  A    between atoms: C_29  and  O_30
REMARK    8  A    between atoms: O_30  and  C_31
REMARK    9  A    between atoms: O_32  and  C_33
REMARK   10  A    between atoms: O_34  and  C_35
REMARK                            x       y       z     vdW  Elec       q    Type
REMARK                         _______ _______ _______ _____ _____    ______ ____
ROOT
ATOM      1  C   UNL     1      -1.128  -1.915   3.686  0.00  0.00    +0.032 C 
ATOM      2  C   UNL     1       0.338  -1.492   3.619  0.00  0.00    +0.059 C 
ATOM      3  C   UNL     1       0.694  -1.082   2.199  0.00  0.00    +0.017 C 
ATOM      4  C   UNL     1      -0.223  -0.494   1.413  0.00  0.00    +0.037 C 
ATOM      5  C   UNL     1       0.002  -0.004   0.002  0.00  0.00    +0.140 C 
ATOM      6  N   UNL     1       1.247  -0.443  -0.593  0.00  0.00    -0.331 N 
ATOM      7  C   UNL     1       2.475  -0.036  -0.075  0.00  0.00    +0.049 A 
ATOM      8  C   UNL     1       3.338   0.766  -0.805  0.00  0.00    +0.025 A 
ATOM      9  C   UNL     1       4.527   1.183  -0.233  0.00  0.00    +0.002 A 
ATOM     10  C   UNL     1       4.854   0.806   1.057  0.00  0.00    +0.002 A 
ATOM     11  C   UNL     1       4.001  -0.009   1.783  0.00  0.00    +0.025 A 
ATOM     12  C   UNL     1       2.821  -0.443   1.204  0.00  0.00    +0.052 A 
ATOM     13  N   UNL     1       1.974  -1.347   1.836  0.00  0.00    -0.316 N 
ATOM     14  C   UNL     1      -1.541  -0.287   1.885  0.00  0.00    +0.163 C 
ATOM     15  O   UNL     1      -2.345   0.258   1.155  0.00  0.00    -0.292 OA
ATOM     16  C   UNL     1      -1.980  -0.717   3.252  0.00  0.00    +0.088 C 
ATOM     17  H   UNL     1       1.234  -1.110  -1.467  0.00  0.00    +0.147 HD
ATOM     18  H   UNL     1       2.410  -2.336   2.039  0.00  0.00    +0.152 HD
ENDROOT
BRANCH   1  23
ATOM     19  C   UNL     1      -2.257  -3.950   6.663  0.00  0.00    +0.120 A 
ATOM     20  C   UNL     1      -2.131  -3.026   7.691  0.00  0.00    +0.045 A 
ATOM     21  C   UNL     1      -1.681  -1.749   7.418  0.00  0.00    +0.004 A 
ATOM     22  C   UNL     1      -1.357  -1.391   6.122  0.00  0.00    +0.004 A 
ATOM     23  C   UNL     1      -1.482  -2.309   5.097  0.00  0.00    -0.040 A 
ATOM     24  C   UNL     1      -1.936  -3.587   5.364  0.00  0.00    +0.049 A 
BRANCH  19  26
ATOM     25  C   UNL     1      -3.017  -5.509   8.289  0.00  0.00    +0.277 C 
ATOM     26  O   UNL     1      -2.700  -5.207   6.929  0.00  0.00    -0.495 OA
ENDBRANCH  19  26
ENDBRANCH   1  23
BRANCH   5  27
ATOM     27  C   UNL     1      -0.018   1.503   0.010  0.00  0.00    +0.023 A 
ATOM     28  C   UNL     1       0.231   2.190   1.184  0.00  0.00    +0.058 A 
ATOM     29  C   UNL     1       0.212   3.575   1.194  0.00  0.00    +0.162 A 
ATOM     30  C   UNL     1      -0.057   4.275   0.021  0.00  0.00    +0.165 A 
ATOM     31  C   UNL     1      -0.306   3.585  -1.153  0.00  0.00    +0.095 A 
ATOM     32  C   UNL     1      -0.281   2.198  -1.160  0.00  0.00    +0.129 A 
BRANCH  32  33
ATOM     33  O   UNL     1      -0.520   1.520  -2.314  0.00  0.00    -0.495 OA
ATOM     34  C   UNL     1      -0.784   2.300  -3.482  0.00  0.00    +0.277 C 
ENDBRANCH  32  33
BRANCH  30  35
ATOM     35  O   UNL     1      -0.076   5.635   0.029  0.00  0.00    -0.491 OA
ATOM     36  C   UNL     1      -0.359   6.287  -1.210  0.00  0.00    +0.277 C 
ENDBRANCH  30  35
BRANCH  29  37
ATOM     37  O   UNL     1       0.458   4.251   2.349  0.00  0.00    -0.491 OA
ATOM     38  C   UNL     1       0.727   3.468   3.514  0.00  0.00    +0.277 C 
ENDBRANCH  29  37
ENDBRANCH   5  27
TORSDOF 6
