REMARK  Name = ZINC38600402
REMARK  10 active torsions:
REMARK  status: ('A' for Active; 'I' for Inactive)
REMARK    1  A    between atoms: C_1  and  C_2
REMARK    2  A    between atoms: N_5  and  C_17
REMARK    3  A    between atoms: N_8  and  C_9
REMARK    4  A    between atoms: C_12  and  O_15
REMARK    5  A    between atoms: O_15  and  C_16
REMARK    6  A    between atoms: C_17  and  C_18
REMARK    7  A    between atoms: N_20  and  C_21
REMARK    8  A    between atoms: C_29  and  C_31
REMARK    9  A    between atoms: C_31  and  O_33
REMARK   10  A    between atoms: O_33  and  C_34
REMARK                            x       y       z     vdW  Elec       q    Type
REMARK                         _______ _______ _______ _____ _____    ______ ____
ROOT
ATOM      1  C   UNL     1      -2.302  -5.327   0.329  0.00  0.00    +0.231 C 
ATOM      2  O   UNL     1      -1.439  -4.907  -0.411  0.00  0.00    -0.274 OA
ATOM      3  N   UNL     1      -2.792  -6.571   0.154  0.00  0.00    -0.285 N 
ATOM      4  H   UNL     1      -3.532  -6.881   0.699  0.00  0.00    +0.155 HD
ENDROOT
BRANCH   3   5
ATOM      5  C   UNL     1      -2.249  -7.391  -0.788  0.00  0.00    +0.053 C 
ATOM      6  C   UNL     1      -2.692  -8.649  -1.157  0.00  0.00    +0.019 A 
ATOM      7  C   UNL     1      -3.775  -9.447  -0.715  0.00  0.00    +0.026 A 
ATOM      8  C   UNL     1      -3.976 -10.671  -1.266  0.00  0.00    +0.019 A 
ATOM      9  C   UNL     1      -3.139 -11.170  -2.267  0.00  0.00    +0.017 A 
ATOM     10  C   UNL     1      -2.085 -10.461  -2.739  0.00  0.00    +0.027 A 
ATOM     11  C   UNL     1      -1.808  -9.173  -2.212  0.00  0.00    +0.045 A 
ATOM     12  N   UNL     1      -0.862  -8.300  -2.494  0.00  0.00    -0.367 N 
ATOM     13  C   UNL     1      -1.039  -7.112  -1.653  0.00  0.00    +0.234 C 
ATOM     14 BR   UNL     1      -5.426 -11.726  -0.664  0.00  0.00    -0.050 Br
ATOM     15  H   UNL     1      -0.163  -8.422  -3.156  0.00  0.00    +0.161 HD
BRANCH  13  16
ATOM     16  C   UNL     1       0.179  -6.904  -0.791  0.00  0.00    +0.335 C 
ATOM     17  O   UNL     1       0.769  -7.857  -0.339  0.00  0.00    -0.248 OA
BRANCH  16  18
ATOM     18  O   UNL     1       0.608  -5.661  -0.525  0.00  0.00    -0.466 OA
ATOM     19  C   UNL     1       1.769  -5.538   0.300  0.00  0.00    +0.280 C 
ENDBRANCH  16  18
ENDBRANCH  13  16
ENDBRANCH   3   5
BRANCH   1  20
ATOM     20  C   UNL     1      -2.827  -4.460   1.444  0.00  0.00    +0.180 C 
BRANCH  20  24
ATOM     21  C   UNL     1      -2.700   0.135   3.208  0.00  0.00    +0.029 C 
ATOM     22  C   UNL     1      -2.150  -0.826   2.151  0.00  0.00    +0.084 C 
ATOM     23  C   UNL     1      -2.781  -2.210   2.336  0.00  0.00    +0.107 C 
ATOM     24  N   UNL     1      -2.137  -3.163   1.423  0.00  0.00    -0.291 NA
ATOM     25  C   UNL     1      -0.711  -3.321   1.735  0.00  0.00    +0.104 C 
ATOM     26  C   UNL     1       0.005  -1.982   1.525  0.00  0.00    +0.121 C 
ATOM     27  N   UNL     1      -0.692  -0.948   2.306  0.00  0.00    -0.325 N 
BRANCH  27  28
ATOM     28  C   UNL     1       0.011  -0.106   3.175  0.00  0.00    +0.030 A 
ATOM     29  C   UNL     1       0.213  -0.484   4.496  0.00  0.00    +0.027 A 
ATOM     30  C   UNL     1       0.908   0.346   5.353  0.00  0.00    +0.047 A 
ATOM     31  C   UNL     1       1.403   1.558   4.895  0.00  0.00    +0.120 A 
ATOM     32  C   UNL     1       1.202   1.937   3.576  0.00  0.00    +0.047 A 
ATOM     33  C   UNL     1       0.512   1.105   2.716  0.00  0.00    +0.027 A 
BRANCH  31  34
ATOM     34  O   UNL     1       2.087   2.375   5.740  0.00  0.00    -0.495 OA
ATOM     35  C   UNL     1       2.570   3.608   5.201  0.00  0.00    +0.277 C 
ENDBRANCH  31  34
ENDBRANCH  27  28
ENDBRANCH  20  24
ENDBRANCH   1  20
TORSDOF 7
