REMARK  Name = ZINC12418110
REMARK  11 active torsions:
REMARK  status: ('A' for Active; 'I' for Inactive)
REMARK    1  A    between atoms: C_1  and  O_2
REMARK    2  A    between atoms: O_2  and  C_3
REMARK    3  A    between atoms: C_5  and  O_37
REMARK    4  A    between atoms: C_6  and  N_34
REMARK    5  A    between atoms: C_8  and  C_9
REMARK    6  A    between atoms: N_10  and  N_11
REMARK    7  A    between atoms: C_12  and  C_14
REMARK    8  A    between atoms: C_14  and  N_25
REMARK    9  A    between atoms: C_15  and  C_16
REMARK   10  A    between atoms: C_26  and  C_28
REMARK   11  A    between atoms: O_37  and  C_38
REMARK                            x       y       z     vdW  Elec       q    Type
REMARK                         _______ _______ _______ _____ _____    ______ ____
ROOT
ATOM      1  C   UNL     1      -1.077   2.074  -0.260  0.00  0.00    +0.098 C 
ATOM      2  C   UNL     1       0.062   1.487   0.177  0.00  0.00    +0.036 C 
ENDROOT
BRANCH   2   3
ATOM      3  C   UNL     1       0.022   0.124   0.728  0.00  0.00    -0.019 A 
ATOM      4  C   UNL     1      -0.935  -0.216   1.690  0.00  0.00    +0.012 A 
ATOM      5  C   UNL     1      -0.973  -1.495   2.201  0.00  0.00    +0.050 A 
ATOM      6  C   UNL     1      -0.058  -2.447   1.772  0.00  0.00    +0.166 A 
ATOM      7  C   UNL     1       0.903  -2.114   0.816  0.00  0.00    +0.167 A 
ATOM      8  C   UNL     1       0.944  -0.835   0.295  0.00  0.00    +0.057 A 
ATOM      9  O   UNL     1       1.672  -3.214   0.569  0.00  0.00    -0.453 OA
ATOM     10  C   UNL     1       0.917  -4.331   1.076  0.00  0.00    +0.466 C 
ATOM     11  O   UNL     1       0.112  -3.755   2.121  0.00  0.00    -0.453 OA
ENDBRANCH   2   3
BRANCH   1  13
ATOM     12  N   UNL     1      -3.469   1.888  -0.703  0.00  0.00    -0.202 N 
ATOM     13  C   UNL     1      -2.303   1.279  -0.408  0.00  0.00    +0.277 C 
ATOM     14  O   UNL     1      -2.266   0.071  -0.265  0.00  0.00    -0.267 OA
ATOM     15  H   UNL     1      -3.499   2.850  -0.817  0.00  0.00    +0.178 HD
BRANCH  12  17
ATOM     16  C   UNL     1      -5.762   1.715  -1.127  0.00  0.00    +0.142 C 
ATOM     17  N   UNL     1      -4.638   1.129  -0.844  0.00  0.00    -0.187 NA
BRANCH  16  23
ATOM     18  C   UNL     1      -6.952  -0.474  -1.112  0.00  0.00    +0.132 A 
ATOM     19  C   UNL     1      -8.112  -1.216  -1.253  0.00  0.00    +0.094 A 
ATOM     20  C   UNL     1      -9.309  -0.583  -1.556  0.00  0.00    +0.154 A 
ATOM     21  C   UNL     1      -9.350   0.797  -1.719  0.00  0.00    +0.168 A 
ATOM     22  C   UNL     1      -8.204   1.547  -1.575  0.00  0.00    +0.049 A 
ATOM     23  C   UNL     1      -6.992   0.918  -1.276  0.00  0.00    +0.039 A 
BRANCH  21  24
ATOM     24  N   UNL     1     -10.632   1.463  -2.042  0.00  0.00    +0.060 N 
ATOM     25  O   UNL     1     -10.671   2.672  -2.185  0.00  0.00    -0.126 OA
ATOM     26  O   UNL     1     -11.648   0.802  -2.164  0.00  0.00    -0.126 OA
ENDBRANCH  21  24
BRANCH  18  28
ATOM     27  C   UNL     1      -5.816  -2.512  -0.662  0.00  0.00    +0.277 C 
ATOM     28  O   UNL     1      -5.780  -1.092  -0.815  0.00  0.00    -0.494 OA
ENDBRANCH  18  28
BRANCH  20  29
ATOM     29  O   UNL     1     -10.445  -1.315  -1.694  0.00  0.00    -0.493 OA
ATOM     30  C   UNL     1     -10.332  -2.728  -1.514  0.00  0.00    +0.277 C 
ENDBRANCH  20  29
ENDBRANCH  16  23
ENDBRANCH  12  17
ENDBRANCH   1  13
BRANCH   1  31
ATOM     31  N   UNL     1      -1.086   3.438  -0.571  0.00  0.00    -0.277 N 
ATOM     32  C   UNL     1      -1.403   3.843  -1.817  0.00  0.00    +0.248 C 
ATOM     33  O   UNL     1      -1.770   3.032  -2.645  0.00  0.00    -0.270 OA
ATOM     34  H   UNL     1      -0.864   4.092   0.110  0.00  0.00    +0.155 HD
BRANCH  32  35
ATOM     35  C   UNL     1      -1.306   5.273  -2.176  0.00  0.00    +0.037 A 
ATOM     36  C   UNL     1      -0.891   6.208  -1.226  0.00  0.00    +0.013 A 
ATOM     37  C   UNL     1      -0.798   7.541  -1.569  0.00  0.00    +0.001 A 
ATOM     38  C   UNL     1      -1.123   7.953  -2.849  0.00  0.00    +0.000 A 
ATOM     39  C   UNL     1      -1.540   7.033  -3.794  0.00  0.00    +0.001 A 
ATOM     40  C   UNL     1      -1.633   5.696  -3.466  0.00  0.00    +0.013 A 
ENDBRANCH  32  35
ENDBRANCH   1  31
TORSDOF 9
