REMARK  Name = ZINC39943769
REMARK  3 active torsions:
REMARK  status: ('A' for Active; 'I' for Inactive)
REMARK    1  A    between atoms: C_8  and  C_13
REMARK    2  A    between atoms: N_14  and  N_15
REMARK    3  A    between atoms: C_16  and  C_18
REMARK                            x       y       z     vdW  Elec       q    Type
REMARK                         _______ _______ _______ _____ _____    ______ ____
ROOT
ATOM      1  C   UNL     1       2.835  -3.557  -1.262  0.00  0.00    +0.120 C 
ATOM      2  N   UNL     1       2.914  -4.828  -1.135  0.00  0.00    -0.191 NA
ENDROOT
BRANCH   1  10
ATOM      3  C   UNL     1      -0.016   1.354   0.009  0.00  0.00    +0.001 A 
ATOM      4  C   UNL     1       1.165   2.097   0.002  0.00  0.00    +0.002 A 
ATOM      5  C   UNL     1       2.394   1.518  -0.013  0.00  0.00    +0.024 A 
ATOM      6  C   UNL     1       2.524   0.117  -0.021  0.00  0.00    +0.040 A 
ATOM      7  N   UNL     1       3.736  -0.439  -0.035  0.00  0.00    -0.284 N 
ATOM      8  C   UNL     1       3.929  -1.747  -0.045  0.00  0.00    +0.229 C 
ATOM      9  O   UNL     1       5.060  -2.197  -0.058  0.00  0.00    -0.274 OA
ATOM     10  C   UNL     1       2.741  -2.681  -0.039  0.00  0.00    +0.141 C 
ATOM     11  C   UNL     1       1.361  -2.054  -0.022  0.00  0.00    +0.001 C 
ATOM     12  C   UNL     1       1.294  -0.692  -0.014  0.00  0.00    -0.007 A 
ATOM     13  C   UNL     1       0.002  -0.004   0.002  0.00  0.00    +0.009 A 
ATOM     14  H   UNL     1       4.511   0.143  -0.039  0.00  0.00    +0.155 HD
ENDBRANCH   1  10
BRANCH   2  15
ATOM     15  N   UNL     1       3.002  -5.642  -2.272  0.00  0.00    -0.203 N 
ATOM     16  C   UNL     1       3.085  -6.981  -2.137  0.00  0.00    +0.263 C 
ATOM     17  O   UNL     1       3.084  -7.482  -1.029  0.00  0.00    -0.268 OA
ATOM     18  H   UNL     1       3.002  -5.242  -3.155  0.00  0.00    +0.178 HD
BRANCH  16  19
ATOM     19  C   UNL     1       3.177  -7.838  -3.335  0.00  0.00    +0.042 A 
ATOM     20  C   UNL     1       3.184  -7.263  -4.609  0.00  0.00    +0.017 A 
ATOM     21  C   UNL     1       3.270  -8.065  -5.725  0.00  0.00    +0.050 A 
ATOM     22  C   UNL     1       3.350  -9.445  -5.591  0.00  0.00    +0.166 A 
ATOM     23  C   UNL     1       3.344 -10.025  -4.322  0.00  0.00    +0.167 A 
ATOM     24  C   UNL     1       3.264  -9.226  -3.198  0.00  0.00    +0.062 A 
ATOM     25  O   UNL     1       3.431 -11.380  -4.462  0.00  0.00    -0.453 OA
ATOM     26  C   UNL     1       3.078 -11.648  -5.832  0.00  0.00    +0.466 C 
ATOM     27  O   UNL     1       3.441 -10.437  -6.522  0.00  0.00    -0.453 OA
ENDBRANCH  16  19
ENDBRANCH   2  15
TORSDOF 3
