REMARK  Name = ZINC09576252
REMARK  4 active torsions:
REMARK  status: ('A' for Active; 'I' for Inactive)
REMARK    1  A    between atoms: C_7  and  O_29
REMARK    2  A    between atoms: C_9  and  C_15
REMARK    3  A    between atoms: C_15  and  C_16
REMARK    4  A    between atoms: C_19  and  C_21
REMARK                            x       y       z     vdW  Elec       q    Type
REMARK                         _______ _______ _______ _____ _____    ______ ____
ROOT
ATOM      1  C   UNL     1       3.396  -1.163  -2.761  0.00  0.00    +0.000 A 
ATOM      2  C   UNL     1       2.539  -2.131  -2.269  0.00  0.00    +0.002 A 
ATOM      3  C   UNL     1       1.505  -1.760  -1.431  0.00  0.00    +0.029 A 
ATOM      4  C   UNL     1       1.326  -0.432  -1.089  0.00  0.00    +0.111 A 
ATOM      5  C   UNL     1       2.164   0.542  -1.587  0.00  0.00    +0.009 A 
ATOM      6  C   UNL     1       3.211   0.160  -2.423  0.00  0.00    +0.008 A 
ATOM      7  C   UNL     1       2.001   2.008  -1.312  0.00  0.00    +0.165 C 
ATOM      8  C   UNL     1       1.303   2.315   0.002  0.00  0.00    +0.117 C 
ATOM      9  N   UNL     1      -0.021   1.663   0.011  0.00  0.00    -0.184 NA
ATOM     10  S   UNL     1       0.002  -0.004   0.002  0.00  0.00    +0.059 S 
ATOM     11  O   UNL     1       0.387  -0.421   1.305  0.00  0.00    -0.153 OA
ATOM     12  O   UNL     1      -1.202  -0.432  -0.619  0.00  0.00    -0.153 OA
ATOM     13  H   UNL     1      -0.848   2.170   0.018  0.00  0.00    +0.148 HD
ENDROOT
BRANCH   7  14
ATOM     14  O   UNL     1       1.243   2.589  -2.375  0.00  0.00    -0.386 OA
ATOM     15  H   UNL     1       1.652   2.498  -3.246  0.00  0.00    +0.210 HD
ENDBRANCH   7  14
BRANCH   8  16
ATOM     16  C   UNL     1       1.129   3.828   0.147  0.00  0.00    +0.097 C 
BRANCH  16  17
ATOM     17  C   UNL     1       0.542   4.139   1.499  0.00  0.00    +0.107 A 
ATOM     18  C   UNL     1       1.243   4.372   2.626  0.00  0.00    +0.045 A 
ATOM     19  C   UNL     1       0.308   4.621   3.650  0.00  0.00    +0.050 A 
ATOM     20  C   UNL     1      -0.925   4.518   3.088  0.00  0.00    +0.137 A 
ATOM     21  O   UNL     1      -0.768   4.224   1.783  0.00  0.00    -0.460 OA
BRANCH  20  22
ATOM     22  C   UNL     1      -2.215   4.694   3.788  0.00  0.00    +0.037 A 
ATOM     23  C   UNL     1      -3.191   5.540   3.258  0.00  0.00    +0.033 A 
ATOM     24  C   UNL     1      -4.393   5.700   3.916  0.00  0.00    +0.042 A 
ATOM     25  C   UNL     1      -4.633   5.024   5.101  0.00  0.00    +0.021 A 
ATOM     26  C   UNL     1      -3.670   4.185   5.633  0.00  0.00    +0.022 A 
ATOM     27  C   UNL     1      -2.465   4.012   4.981  0.00  0.00    +0.052 A 
ATOM     28 CL   UNL     1      -1.262   2.952   5.646  0.00  0.00    -0.083 Cl
ATOM     29 CL   UNL     1      -5.608   6.751   3.258  0.00  0.00    -0.084 Cl
ENDBRANCH  20  22
ENDBRANCH  16  17
ENDBRANCH   8  16
TORSDOF 4
