REMARK  Name = ZINC08933781
REMARK  5 active torsions:
REMARK  status: ('A' for Active; 'I' for Inactive)
REMARK    1  A    between atoms: C_1  and  C_2
REMARK    2  A    between atoms: C_16  and  C_19
REMARK    3  A    between atoms: N_21  and  C_22
REMARK    4  A    between atoms: C_22  and  C_23
REMARK    5  A    between atoms: C_23  and  C_24
REMARK                            x       y       z     vdW  Elec       q    Type
REMARK                         _______ _______ _______ _____ _____    ______ ____
ROOT
ATOM      1  C   UNL     1      -0.018   1.503   0.010  0.00  0.00    +0.066 C 
ATOM      2  C   UNL     1       0.002  -0.004   0.002  0.00  0.00    +0.046 A 
ATOM      3  C   UNL     1      -1.175  -0.722   0.004  0.00  0.00    +0.095 A 
ATOM      4  C   UNL     1      -1.135  -2.116  -0.005  0.00  0.00    +0.275 A 
ATOM      5  O   UNL     1      -2.174  -2.759  -0.004  0.00  0.00    -0.266 OA
ATOM      6  N   UNL     1       0.069  -2.763  -0.014  0.00  0.00    -0.170 N 
ATOM      7  C   UNL     1       1.185  -1.974  -0.015  0.00  0.00    +0.200 A 
ATOM      8  N   UNL     1       1.156  -0.666  -0.013  0.00  0.00    -0.227 NA
ATOM      9  S   UNL     1       2.503  -3.169  -0.028  0.00  0.00    -0.013 S 
ATOM     10  C   UNL     1       1.489  -4.639  -0.031  0.00  0.00    +0.184 A 
ATOM     11  N   UNL     1       0.283  -4.138  -0.023  0.00  0.00    -0.139 NA
ATOM     12  N   UNL     1       1.880  -5.966  -0.041  0.00  0.00    -0.307 N 
ATOM     13  C   UNL     1       0.879  -7.042  -0.049  0.00  0.00    +0.107 C 
ATOM     14  C   UNL     1       1.172  -7.980  -1.223  0.00  0.00    +0.020 C 
ATOM     15  C   UNL     1       2.619  -8.470  -1.130  0.00  0.00    +0.016 C 
ATOM     16  C   UNL     1       3.571  -7.274  -1.218  0.00  0.00    +0.092 C 
ATOM     17  C   UNL     1       3.304  -6.327  -0.050  0.00  0.00    +0.119 C 
ENDROOT
BRANCH  16  18
ATOM     18  C   UNL     1       4.996  -7.760  -1.160  0.00  0.00    +0.218 C 
ATOM     19  O   UNL     1       5.229  -8.946  -1.058  0.00  0.00    -0.275 OA
ATOM     20  N   UNL     1       6.012  -6.877  -1.221  0.00  0.00    -0.315 N 
ATOM     21  H   UNL     1       5.826  -5.928  -1.302  0.00  0.00    +0.149 HD
BRANCH  20  22
ATOM     22  C   UNL     1       7.398  -7.349  -1.165  0.00  0.00    +0.109 C 
BRANCH  22  23
ATOM     23  C   UNL     1       8.348  -6.153  -1.252  0.00  0.00    +0.054 C 
BRANCH  23  24
ATOM     24  C   UNL     1       9.774  -6.639  -1.194  0.00  0.00    -0.046 A 
ATOM     25  C   UNL     1      10.410  -6.768   0.026  0.00  0.00    +0.005 A 
ATOM     26  C   UNL     1      11.718  -7.214   0.080  0.00  0.00    +0.020 A 
ATOM     27  C   UNL     1      12.389  -7.531  -1.088  0.00  0.00    +0.041 A 
ATOM     28  C   UNL     1      11.751  -7.402  -2.309  0.00  0.00    +0.020 A 
ATOM     29  C   UNL     1      10.442  -6.962  -2.361  0.00  0.00    +0.005 A 
ATOM     30 CL   UNL     1      14.031  -8.090  -1.021  0.00  0.00    -0.084 Cl
ENDBRANCH  23  24
ENDBRANCH  22  23
ENDBRANCH  20  22
ENDBRANCH  16  18
TORSDOF 4
