REMARK  Name = ZINC39686296
REMARK  12 active torsions:
REMARK  status: ('A' for Active; 'I' for Inactive)
REMARK    1  A    between atoms: C_1  and  C_2
REMARK    2  A    between atoms: C_2  and  C_3
REMARK    3  A    between atoms: C_3  and  C_4
REMARK    4  A    between atoms: C_4  and  C_5
REMARK    5  A    between atoms: C_5  and  C_7
REMARK    6  A    between atoms: C_5  and  C_8
REMARK    7  A    between atoms: C_12  and  C_21
REMARK    8  A    between atoms: N_23  and  C_24
REMARK    9  A    between atoms: C_30  and  C_32
REMARK   10  A    between atoms: C_32  and  C_33
REMARK   11  A    between atoms: C_33  and  C_34
REMARK   12  A    between atoms: C_33  and  C_35
REMARK                            x       y       z     vdW  Elec       q    Type
REMARK                         _______ _______ _______ _____ _____    ______ ____
ROOT
ATOM      1  C   UNL     1       1.890  -3.924   2.199  0.00  0.00    +0.218 C 
ATOM      2  O   UNL     1       1.621  -4.569   1.207  0.00  0.00    -0.275 OA
ATOM      3  N   UNL     1       2.334  -4.548   3.308  0.00  0.00    -0.300 N 
ATOM      4  C   UNL     1       2.602  -3.954   4.639  0.00  0.00    +0.121 C 
ATOM      5  C   UNL     1       2.098  -5.011   5.647  0.00  0.00    +0.100 C 
ATOM      6  C   UNL     1       2.143  -6.341   4.876  0.00  0.00    -0.004 C 
ATOM      7  C   UNL     1       2.658  -5.985   3.474  0.00  0.00    +0.115 C 
ATOM      8  C   UNL     1       0.745  -6.945   4.780  0.00  0.00    -0.010 C 
ATOM      9  C   UNL     1       0.825  -8.293   4.060  0.00  0.00    -0.082 C 
ATOM     10  N   UNL     1       1.718  -9.193   4.799  0.00  0.00    +0.379 N 
ATOM     11  C   UNL     1       3.082  -8.650   4.806  0.00  0.00    -0.082 C 
ATOM     12  C   UNL     1       3.098  -7.316   5.558  0.00  0.00    -0.010 C 
ATOM     13  H   UNL     1       1.390  -9.286   5.748  0.00  0.00    -0.086 HD
ATOM     14  H   UNL     1       1.721 -10.100   4.357  0.00  0.00    -0.086 HD
ENDROOT
BRANCH   5  15
ATOM     15  C   UNL     1       0.688  -4.698   6.075  0.00  0.00    +0.218 C 
ATOM     16  O   UNL     1      -0.041  -4.061   5.345  0.00  0.00    -0.275 OA
ATOM     17  N   UNL     1       0.236  -5.127   7.271  0.00  0.00    -0.312 N 
ATOM     18  H   UNL     1       0.819  -5.636   7.855  0.00  0.00    +0.149 HD
BRANCH  17  19
ATOM     19  C   UNL     1      -1.135  -4.822   7.687  0.00  0.00    +0.076 C 
ATOM     20  C   UNL     1      -2.088  -5.873   7.114  0.00  0.00    +0.041 C 
ATOM     21  C   UNL     1      -3.524  -5.532   7.522  0.00  0.00    +0.109 C 
ATOM     22  N   UNL     1      -3.581  -5.401   8.984  0.00  0.00    -0.301 N 
ATOM     23  C   UNL     1      -2.645  -4.482   9.648  0.00  0.00    +0.109 C 
ATOM     24  C   UNL     1      -1.219  -4.835   9.215  0.00  0.00    +0.041 C 
ATOM     25  C   UNL     1      -4.475  -6.108   9.703  0.00  0.00    +0.216 C 
ATOM     26  O   UNL     1      -5.243  -6.862   9.144  0.00  0.00    -0.276 OA
BRANCH  25  27
ATOM     27  C   UNL     1      -4.521  -5.961  11.203  0.00  0.00    +0.099 C 
BRANCH  27  28
ATOM     28  C   UNL     1      -5.616  -6.867  11.770  0.00  0.00    -0.008 C 
ATOM     29  C   UNL     1      -5.581  -6.813  13.299  0.00  0.00    +0.008 C 
ATOM     30  C   UNL     1      -6.982  -6.387  11.274  0.00  0.00    +0.008 C 
ENDBRANCH  27  28
ENDBRANCH  25  27
ENDBRANCH  17  19
ENDBRANCH   5  15
BRANCH   1  31
ATOM     31  C   UNL     1       1.728  -2.426   2.191  0.00  0.00    +0.072 C 
ATOM     32  C   UNL     1       0.526  -2.047   1.324  0.00  0.00    +0.017 C 
BRANCH  31  33
ATOM     33  C   UNL     1       2.992  -1.779   1.621  0.00  0.00    +0.012 C 
BRANCH  33  34
ATOM     34  C   UNL     1       2.879  -0.257   1.728  0.00  0.00    +0.000 C 
BRANCH  34  36
ATOM     35  C   UNL     1       4.030   1.911   1.264  0.00  0.00    +0.004 C 
ATOM     36  C   UNL     1       4.143   0.389   1.157  0.00  0.00    -0.003 C 
ENDBRANCH  34  36
ENDBRANCH  33  34
ENDBRANCH  31  33
ENDBRANCH   1  31
TORSDOF 8
