REMARK  Name = ZINC04777008
REMARK  5 active torsions:
REMARK  status: ('A' for Active; 'I' for Inactive)
REMARK    1  A    between atoms: C_4  and  C_7
REMARK    2  A    between atoms: C_7  and  S_8
REMARK    3  A    between atoms: S_8  and  C_9
REMARK    4  A    between atoms: C_14  and  C_24
REMARK    5  A    between atoms: C_28  and  O_30
REMARK                            x       y       z     vdW  Elec       q    Type
REMARK                         _______ _______ _______ _____ _____    ______ ____
ROOT
ATOM      1  C   UNL     1       5.786  -1.866   1.477  0.00  0.00    +0.211 A 
ATOM      2  N   UNL     1       6.362  -2.183   0.308  0.00  0.00    -0.187 NA
ATOM      3  C   UNL     1       7.485  -2.810   0.532  0.00  0.00    +0.219 A 
ATOM      4  N   UNL     1       7.650  -2.913   1.873  0.00  0.00    -0.220 N 
ATOM      5  N   UNL     1       6.549  -2.292   2.461  0.00  0.00    -0.141 NA
ATOM      6  C   UNL     1       8.797  -3.568   2.492  0.00  0.00    +0.176 C 
ATOM      7  C   UNL     1       9.886  -3.783   1.464  0.00  0.00    +0.041 C 
ATOM      8  C   UNL     1       9.656  -3.664   0.139  0.00  0.00    +0.020 C 
ATOM      9  N   UNL     1       8.420  -3.320  -0.353  0.00  0.00    -0.287 N 
ATOM     10  C   UNL     1      10.758  -3.910  -0.864  0.00  0.00    +0.052 C 
ATOM     11  C   UNL     1      12.104  -3.511  -0.257  0.00  0.00    +0.014 C 
ATOM     12  C   UNL     1      12.323  -4.337   1.015  0.00  0.00    +0.080 C 
ATOM     13  C   UNL     1      11.165  -4.115   1.947  0.00  0.00    +0.163 C 
ATOM     14  O   UNL     1      11.337  -4.225   3.145  0.00  0.00    -0.292 OA
ATOM     15  H   UNL     1       8.208  -3.432  -1.294  0.00  0.00    +0.155 HD
ENDROOT
BRANCH   6  16
ATOM     16  C   UNL     1       8.370  -4.900   3.052  0.00  0.00    -0.015 A 
ATOM     17  C   UNL     1       7.849  -5.868   2.213  0.00  0.00    +0.006 A 
ATOM     18  C   UNL     1       7.457  -7.091   2.724  0.00  0.00    +0.004 A 
ATOM     19  C   UNL     1       7.583  -7.349   4.075  0.00  0.00    +0.045 A 
ATOM     20  C   UNL     1       8.105  -6.380   4.919  0.00  0.00    +0.117 A 
ATOM     21  C   UNL     1       8.504  -5.155   4.403  0.00  0.00    +0.051 A 
BRANCH  20  22
ATOM     22  O   UNL     1       8.231  -6.631   6.249  0.00  0.00    -0.507 OA
ATOM     23  H   UNL     1       9.080  -7.022   6.497  0.00  0.00    +0.292 HD
ENDBRANCH  20  22
ENDBRANCH   6  16
BRANCH   1  24
ATOM     24  S   UNL     1       4.257  -1.011   1.666  0.00  0.00    -0.080 S 
BRANCH  24  25
ATOM     25  C   UNL     1       3.711  -0.707  -0.038  0.00  0.00    +0.112 C 
BRANCH  25  29
ATOM     26  C   UNL     1      -0.017   1.378   0.010  0.00  0.00    +0.000 A 
ATOM     27  C   UNL     1       1.171   2.086   0.002  0.00  0.00    +0.000 A 
ATOM     28  C   UNL     1       2.377   1.411  -0.013  0.00  0.00    +0.004 A 
ATOM     29  C   UNL     1       2.396   0.029  -0.020  0.00  0.00    -0.037 A 
ATOM     30  C   UNL     1       1.208  -0.679  -0.012  0.00  0.00    +0.004 A 
ATOM     31  C   UNL     1       0.002  -0.004   0.002  0.00  0.00    +0.000 A 
ENDBRANCH  25  29
ENDBRANCH  24  25
ENDBRANCH   1  24
TORSDOF 5
