REMARK  Name = ZINC35926341
REMARK  8 active torsions:
REMARK  status: ('A' for Active; 'I' for Inactive)
REMARK    1  A    between atoms: C_4  and  C_7
REMARK    2  A    between atoms: C_7  and  N_8
REMARK    3  A    between atoms: N_11  and  C_14
REMARK    4  A    between atoms: C_14  and  C_15
REMARK    5  A    between atoms: C_29  and  C_31
REMARK    6  A    between atoms: C_31  and  O_32
REMARK    7  A    between atoms: O_32  and  C_33
REMARK    8  A    between atoms: C_33  and  C_34
REMARK                            x       y       z     vdW  Elec       q    Type
REMARK                         _______ _______ _______ _____ _____    ______ ____
ROOT
ATOM      1  C   UNL     1       6.850  -3.518   5.100  0.00  0.00    +0.034 A 
ATOM      2  C   UNL     1       7.945  -2.762   5.403  0.00  0.00    +0.091 A 
ATOM      3  C   UNL     1       9.225  -3.308   5.197  0.00  0.00    +0.253 A 
ATOM      4  O   UNL     1      10.226  -2.661   5.458  0.00  0.00    -0.268 OA
ATOM      5  N   UNL     1       9.325  -4.562   4.707  0.00  0.00    -0.295 N 
ATOM      6  H   UNL     1      10.198  -4.958   4.558  0.00  0.00    +0.172 HD
ATOM      7  C   UNL     1       8.197  -5.268   4.423  0.00  0.00    +0.198 A 
ATOM      8  N   UNL     1       7.001  -4.751   4.623  0.00  0.00    -0.223 NA
ATOM      9  N   UNL     1       8.306  -6.539   3.925  0.00  0.00    -0.298 N 
ATOM     10  C   UNL     1       9.620  -7.187   3.813  0.00  0.00    +0.127 C 
ATOM     11  C   UNL     1       9.574  -8.523   4.566  0.00  0.00    +0.127 C 
ATOM     12  N   UNL     1       8.379  -9.263   4.136  0.00  0.00    -0.297 N 
ATOM     13  C   UNL     1       7.065  -8.614   4.248  0.00  0.00    +0.127 C 
ATOM     14  C   UNL     1       7.111  -7.281   3.500  0.00  0.00    +0.127 C 
ATOM     15  C   UNL     1       8.487 -10.514   3.646  0.00  0.00    +0.241 C 
ATOM     16  O   UNL     1       9.577 -11.039   3.558  0.00  0.00    -0.273 OA
ENDROOT
BRANCH   1  17
ATOM     17  C   UNL     1       5.468  -2.957   5.311  0.00  0.00    -0.022 C 
BRANCH  17  21
ATOM     18  N   UNL     1       3.403  -1.291   2.041  0.00  0.00    -0.302 NA
ATOM     19  C   UNL     1       2.692  -2.266   2.880  0.00  0.00    +0.066 C 
ATOM     20  C   UNL     1       3.403  -2.389   4.229  0.00  0.00    -0.063 C 
ATOM     21  N   UNL     1       4.790  -2.822   4.014  0.00  0.00    +0.385 N 
ATOM     22  C   UNL     1       5.495  -1.826   3.196  0.00  0.00    -0.063 C 
ATOM     23  C   UNL     1       4.801  -1.699   1.838  0.00  0.00    +0.066 C 
ATOM     24  H   UNL     1       4.795  -3.712   3.539  0.00  0.00    -0.081 HD
BRANCH  18  25
ATOM     25  C   UNL     1       2.717  -1.103   0.756  0.00  0.00    +0.119 C 
BRANCH  25  29
ATOM     26  C   UNL     1      -1.081   0.734   1.422  0.00  0.00    +0.000 A 
ATOM     27  C   UNL     1       0.037   1.517   1.205  0.00  0.00    +0.000 A 
ATOM     28  C   UNL     1       1.266   0.923   0.990  0.00  0.00    +0.005 A 
ATOM     29  C   UNL     1       1.378  -0.455   0.992  0.00  0.00    -0.033 A 
ATOM     30  C   UNL     1       0.260  -1.238   1.210  0.00  0.00    +0.005 A 
ATOM     31  C   UNL     1      -0.970  -0.644   1.424  0.00  0.00    +0.000 A 
ENDBRANCH  25  29
ENDBRANCH  18  25
ENDBRANCH  17  21
ENDBRANCH   1  17
BRANCH  15  32
ATOM     32  C   UNL     1       7.253 -11.261   3.209  0.00  0.00    +0.256 C 
BRANCH  32  33
ATOM     33  O   UNL     1       7.624 -12.555   2.731  0.00  0.00    -0.366 OA
BRANCH  33  34
ATOM     34  C   UNL     1       6.522 -13.350   2.289  0.00  0.00    +0.195 C 
BRANCH  34  35
ATOM     35  C   UNL     1       7.026 -14.687   1.810  0.00  0.00    -0.022 A 
ATOM     36  C   UNL     1       7.386 -14.855   0.486  0.00  0.00    +0.006 A 
ATOM     37  C   UNL     1       7.849 -16.081   0.046  0.00  0.00    +0.000 A 
ATOM     38  C   UNL     1       7.952 -17.139   0.930  0.00  0.00    +0.000 A 
ATOM     39  C   UNL     1       7.592 -16.970   2.255  0.00  0.00    +0.000 A 
ATOM     40  C   UNL     1       7.134 -15.743   2.695  0.00  0.00    +0.006 A 
ENDBRANCH  34  35
ENDBRANCH  33  34
ENDBRANCH  32  33
ENDBRANCH  15  32
TORSDOF 8
