REMARK  Name = ZINC22927104
REMARK  11 active torsions:
REMARK  status: ('A' for Active; 'I' for Inactive)
REMARK    1  A    between atoms: C_1  and  C_2
REMARK    2  A    between atoms: C_3  and  N_15
REMARK    3  A    between atoms: N_6  and  C_9
REMARK    4  A    between atoms: N_7  and  C_8
REMARK    5  A    between atoms: N_15  and  C_16
REMARK    6  A    between atoms: C_19  and  C_22
REMARK    7  A    between atoms: C_22  and  N_23
REMARK    8  A    between atoms: N_23  and  C_24
REMARK    9  A    between atoms: C_24  and  C_25
REMARK   10  A    between atoms: C_25  and  C_27
REMARK   11  A    between atoms: C_25  and  N_33
REMARK                            x       y       z     vdW  Elec       q    Type
REMARK                         _______ _______ _______ _____ _____    ______ ____
ROOT
ATOM      1  C   UNL     1      -5.724   1.512   5.050  0.00  0.00    +0.031 A 
ATOM      2  C   UNL     1      -6.110   2.218   3.917  0.00  0.00    +0.023 A 
ATOM      3  C   UNL     1      -5.769   1.750   2.664  0.00  0.00    +0.007 A 
ATOM      4  C   UNL     1      -5.045   0.578   2.535  0.00  0.00    -0.033 A 
ATOM      5  C   UNL     1      -4.664  -0.130   3.660  0.00  0.00    +0.007 A 
ATOM      6  C   UNL     1      -4.997   0.335   4.917  0.00  0.00    +0.023 A 
ENDROOT
BRANCH   1   7
ATOM      7  N   UNL     1      -6.067   1.982   6.319  0.00  0.00    -0.309 N 
ATOM      8  H   UNL     1      -6.531   2.973   6.431  0.00  0.00    +0.152 HD
BRANCH   7  11
ATOM      9  C   UNL     1      -4.285   2.810   8.675  0.00  0.00    +0.067 C 
ATOM     10  C   UNL     1      -5.042   1.517   8.511  0.00  0.00    +0.059 A 
ATOM     11  C   UNL     1      -5.819   1.187   7.456  0.00  0.00    +0.119 A 
ATOM     12  C   UNL     1      -6.361  -0.147   7.717  0.00  0.00    +0.293 A 
ATOM     13  O   UNL     1      -7.109  -0.780   6.994  0.00  0.00    -0.264 OA
ATOM     14  N   UNL     1      -5.870  -0.545   8.909  0.00  0.00    -0.216 N 
ATOM     15  N   UNL     1      -5.058   0.480   9.408  0.00  0.00    -0.282 N 
ATOM     16  C   UNL     1      -4.339   0.449  10.684  0.00  0.00    +0.171 C 
BRANCH  14  17
ATOM     17  C   UNL     1      -6.133  -1.765   9.540  0.00  0.00    +0.067 A 
ATOM     18  C   UNL     1      -5.090  -2.514  10.069  0.00  0.00    +0.028 A 
ATOM     19  C   UNL     1      -5.354  -3.716  10.696  0.00  0.00    +0.002 A 
ATOM     20  C   UNL     1      -6.654  -4.179  10.787  0.00  0.00    +0.000 A 
ATOM     21  C   UNL     1      -7.694  -3.438  10.258  0.00  0.00    +0.002 A 
ATOM     22  C   UNL     1      -7.438  -2.232   9.634  0.00  0.00    +0.028 A 
ENDBRANCH  14  17
ENDBRANCH   7  11
ENDBRANCH   1   7
BRANCH   4  23
ATOM     23  C   UNL     1      -4.676   0.070   1.165  0.00  0.00    +0.116 C 
BRANCH  23  24
ATOM     24  N   UNL     1      -3.376   0.629   0.770  0.00  0.00    -0.313 NA
ATOM     25  H   UNL     1      -3.440   1.727   0.748  0.00  0.00    +0.122 HD
BRANCH  24  26
ATOM     26  C   UNL     1      -2.982   0.154  -0.564  0.00  0.00    +0.070 C 
BRANCH  26  27
ATOM     27  C   UNL     1      -1.627   0.756  -0.940  0.00  0.00    -0.024 C 
BRANCH  27  28
ATOM     28  C   UNL     1      -1.281   0.368  -2.354  0.00  0.00    -0.060 A 
ATOM     29  C   UNL     1      -1.845   1.050  -3.416  0.00  0.00    +0.002 A 
ATOM     30  C   UNL     1      -1.524   0.697  -4.713  0.00  0.00    +0.000 A 
ATOM     31  C   UNL     1      -0.645  -0.343  -4.949  0.00  0.00    +0.000 A 
ATOM     32  C   UNL     1      -0.085  -1.029  -3.888  0.00  0.00    +0.000 A 
ATOM     33  C   UNL     1      -0.402  -0.673  -2.590  0.00  0.00    +0.002 A 
ENDBRANCH  27  28
BRANCH  27  34
ATOM     34  N   UNL     1      -1.696   2.220  -0.836  0.00  0.00    +0.385 N 
ATOM     35  C   UNL     1      -2.092   2.638   0.533  0.00  0.00    -0.078 C 
ATOM     36  C   UNL     1      -1.609   4.109   0.607  0.00  0.00    -0.020 C 
ATOM     37  C   UNL     1      -0.276   4.075  -0.175  0.00  0.00    -0.020 C 
ATOM     38  C   UNL     1      -0.370   2.831  -1.077  0.00  0.00    -0.078 C 
ATOM     39  H   UNL     1      -2.430   2.539  -1.590  0.00  0.00    -0.081 HD
ENDBRANCH  27  34
ENDBRANCH  26  27
ENDBRANCH  24  26
ENDBRANCH  23  24
ENDBRANCH   4  23
TORSDOF 9
