REMARK  Name = ZINC39665781
REMARK  14 active torsions:
REMARK  status: ('A' for Active; 'I' for Inactive)
REMARK    1  A    between atoms: C_1  and  C_2
REMARK    2  A    between atoms: C_4  and  C_11
REMARK    3  A    between atoms: N_5  and  C_7
REMARK    4  A    between atoms: C_7  and  C_8
REMARK    5  A    between atoms: C_7  and  C_9
REMARK    6  A    between atoms: C_7  and  C_10
REMARK    7  A    between atoms: C_15  and  C_24
REMARK    8  A    between atoms: N_26  and  C_27
REMARK    9  A    between atoms: C_27  and  C_28
REMARK   10  A    between atoms: C_28  and  C_30
REMARK   11  A    between atoms: C_28  and  O_31
REMARK   12  A    between atoms: O_31  and  C_32
REMARK   13  A    between atoms: C_35  and  O_38
REMARK   14  A    between atoms: O_38  and  C_39
REMARK                            x       y       z     vdW  Elec       q    Type
REMARK                         _______ _______ _______ _____ _____    ______ ____
ROOT
ATOM      1  C   UNL     1      -0.643  -3.480  -1.713  0.00  0.00    +0.265 C 
ATOM      2  O   UNL     1      -0.958  -3.431  -2.887  0.00  0.00    -0.268 OA
ATOM      3  N   UNL     1      -0.668  -4.658  -1.058  0.00  0.00    -0.295 N 
ATOM      4  C   UNL     1      -0.451  -4.897   0.389  0.00  0.00    +0.121 C 
ATOM      5  C   UNL     1      -1.480  -5.988   0.762  0.00  0.00    +0.100 C 
ATOM      6  C   UNL     1      -1.780  -6.713  -0.561  0.00  0.00    -0.004 C 
ATOM      7  C   UNL     1      -0.924  -6.005  -1.620  0.00  0.00    +0.115 C 
ATOM      8  C   UNL     1      -3.259  -6.581  -0.912  0.00  0.00    -0.010 C 
ATOM      9  C   UNL     1      -3.544  -7.358  -2.200  0.00  0.00    -0.082 C 
ATOM     10  N   UNL     1      -3.190  -8.770  -2.011  0.00  0.00    +0.379 N 
ATOM     11  C   UNL     1      -1.749  -8.896  -1.765  0.00  0.00    -0.082 C 
ATOM     12  C   UNL     1      -1.387  -8.184  -0.459  0.00  0.00    -0.010 C 
ATOM     13  H   UNL     1      -3.698  -9.140  -1.222  0.00  0.00    -0.086 HD
ATOM     14  H   UNL     1      -3.436  -9.290  -2.840  0.00  0.00    -0.086 HD
ENDROOT
BRANCH   1  18
ATOM     15  C   UNL     1       1.083  -0.185   1.735  0.00  0.00    +0.067 C 
ATOM     16  C   UNL     1       0.514  -0.805   0.484  0.00  0.00    +0.061 A 
ATOM     17  C   UNL     1       0.292  -2.167   0.269  0.00  0.00    +0.057 A 
ATOM     18  C   UNL     1      -0.236  -2.254  -1.008  0.00  0.00    +0.124 A 
ATOM     19  N   UNL     1      -0.304  -0.975  -1.482  0.00  0.00    -0.254 N 
ATOM     20  N   UNL     1       0.134  -0.161  -0.590  0.00  0.00    -0.175 NA
BRANCH  19  21
ATOM     21  C   UNL     1      -0.804  -0.590  -2.804  0.00  0.00    +0.056 C 
ATOM     22  C   UNL     1      -2.219  -1.140  -2.994  0.00  0.00    +0.036 C 
ATOM     23  C   UNL     1      -0.831   0.936  -2.914  0.00  0.00    +0.036 C 
ATOM     24  C   UNL     1       0.115  -1.163  -3.884  0.00  0.00    +0.036 C 
ENDBRANCH  19  21
ENDBRANCH   1  18
BRANCH   5  25
ATOM     25  C   UNL     1      -2.733  -5.361   1.315  0.00  0.00    +0.218 C 
ATOM     26  O   UNL     1      -3.106  -4.283   0.901  0.00  0.00    -0.275 OA
ATOM     27  N   UNL     1      -3.440  -5.996   2.270  0.00  0.00    -0.312 N 
ATOM     28  H   UNL     1      -3.105  -6.822   2.653  0.00  0.00    +0.149 HD
BRANCH  27  29
ATOM     29  C   UNL     1      -4.715  -5.440   2.731  0.00  0.00    +0.148 C 
BRANCH  29  30
ATOM     30  C   UNL     1      -5.308  -6.348   3.810  0.00  0.00    +0.187 C 
ATOM     31  C   UNL     1      -6.639  -5.767   4.290  0.00  0.00    +0.053 C 
BRANCH  30  32
ATOM     32  O   UNL     1      -5.525  -7.652   3.268  0.00  0.00    -0.488 OA
BRANCH  32  33
ATOM     33  C   UNL     1      -5.541  -8.691   4.146  0.00  0.00    +0.121 A 
ATOM     34  C   UNL     1      -5.630  -9.993   3.678  0.00  0.00    +0.049 A 
ATOM     35  C   UNL     1      -5.646 -11.048   4.570  0.00  0.00    +0.049 A 
ATOM     36  C   UNL     1      -5.573 -10.804   5.934  0.00  0.00    +0.120 A 
ATOM     37  C   UNL     1      -5.483  -9.502   6.402  0.00  0.00    +0.049 A 
ATOM     38  C   UNL     1      -5.463  -8.447   5.510  0.00  0.00    +0.049 A 
BRANCH  36  39
ATOM     39  O   UNL     1      -5.590 -11.842   6.812  0.00  0.00    -0.495 OA
ATOM     40  C   UNL     1      -5.511 -11.518   8.201  0.00  0.00    +0.277 C 
ENDBRANCH  36  39
ENDBRANCH  32  33
ENDBRANCH  30  32
ENDBRANCH  29  30
ENDBRANCH  27  29
ENDBRANCH   5  25
TORSDOF 8
