REMARK  Name = ZINC51144767
REMARK  5 active torsions:
REMARK  status: ('A' for Active; 'I' for Inactive)
REMARK    1  A    between atoms: C_3  and  C_10
REMARK    2  A    between atoms: C_5  and  N_7
REMARK    3  A    between atoms: N_19  and  C_31
REMARK    4  A    between atoms: C_21  and  C_22
REMARK    5  A    between atoms: C_22  and  N_24
REMARK                            x       y       z     vdW  Elec       q    Type
REMARK                         _______ _______ _______ _____ _____    ______ ____
ROOT
ATOM      1  C   UNL     1       3.381   2.232   0.204  0.00  0.00    +0.073 C 
ATOM      2  C   UNL     1       2.949   3.106   1.358  0.00  0.00    +0.021 C 
ATOM      3  C   UNL     1       2.865   4.447   1.250  0.00  0.00    +0.024 C 
ATOM      4  C   UNL     1       2.417   5.295   2.418  0.00  0.00    +0.052 C 
ATOM      5  C   UNL     1       1.443   4.499   3.289  0.00  0.00    +0.014 C 
ATOM      6  C   UNL     1       2.153   3.228   3.767  0.00  0.00    +0.080 C 
ATOM      7  C   UNL     1       2.631   2.458   2.567  0.00  0.00    +0.161 C 
ATOM      8  O   UNL     1       2.744   1.250   2.643  0.00  0.00    -0.292 OA
ATOM      9  N   UNL     1       3.194   5.100   0.085  0.00  0.00    -0.262 N 
ATOM     10  C   UNL     1       3.461   4.346  -1.045  0.00  0.00    +0.090 C 
ATOM     11  C   UNL     1       4.195   3.040  -0.808  0.00  0.00    +0.150 C 
ATOM     12  N   UNL     1       3.106   4.730  -2.227  0.00  0.00    -0.389 N 
ATOM     13  H   UNL     1       2.571   5.532  -2.336  0.00  0.00    +0.157 HD
ATOM     14  H   UNL     1       3.375   4.217  -3.005  0.00  0.00    +0.157 HD
ENDROOT
BRANCH   9  15
ATOM     15  C   UNL     1       3.257   6.499   0.043  0.00  0.00    +0.040 A 
ATOM     16  C   UNL     1       2.137   7.235  -0.319  0.00  0.00    +0.026 A 
ATOM     17  C   UNL     1       2.201   8.614  -0.360  0.00  0.00    +0.040 A 
ATOM     18  C   UNL     1       3.383   9.262  -0.042  0.00  0.00    +0.124 A 
ATOM     19  C   UNL     1       4.501   8.530   0.320  0.00  0.00    +0.040 A 
ATOM     20  C   UNL     1       4.439   7.151   0.368  0.00  0.00    +0.026 A 
ATOM     21  F   UNL     1       3.444  10.611  -0.084  0.00  0.00    -0.205 F 
ENDBRANCH   9  15
BRANCH   1  24
ATOM     22  C   UNL     1       0.110   2.003  -1.666  0.00  0.00    +0.003 A 
ATOM     23  C   UNL     1       1.229   2.520  -1.041  0.00  0.00    +0.004 A 
ATOM     24  C   UNL     1       2.160   1.669  -0.477  0.00  0.00    -0.037 A 
ATOM     25  C   UNL     1       1.972   0.301  -0.537  0.00  0.00    +0.037 A 
ATOM     26  C   UNL     1       0.853  -0.216  -1.161  0.00  0.00    +0.126 A 
ATOM     27  C   UNL     1      -0.078   0.635  -1.727  0.00  0.00    +0.033 A 
BRANCH  26  28
ATOM     28  N   UNL     1       0.652  -1.681  -1.226  0.00  0.00    +0.056 N 
ATOM     29  O   UNL     1       1.467  -2.426  -0.733  0.00  0.00    -0.126 OA
ATOM     30  O   UNL     1      -0.328  -2.133  -1.772  0.00  0.00    -0.126 OA
ENDBRANCH  26  28
ENDBRANCH   1  24
BRANCH  11  31
ATOM     31  C   UNL     1       5.569   3.318  -0.256  0.00  0.00    +0.249 C 
ATOM     32  O   UNL     1       5.875   2.909   0.849  0.00  0.00    -0.273 OA
BRANCH  31  33
ATOM     33  N   UNL     1       6.446   4.009  -0.973  0.00  0.00    -0.156 NA
ATOM     34  C   UNL     1       7.663   4.255  -0.484  0.00  0.00    +0.163 A 
ATOM     35  N   UNL     1       8.183   3.879   0.715  0.00  0.00    -0.342 N 
ATOM     36  C   UNL     1       9.459   4.239   1.018  0.00  0.00    +0.092 A 
ATOM     37  C   UNL     1      10.130   4.949   0.105  0.00  0.00    +0.066 A 
ATOM     38  S   UNL     1       8.927   5.099  -1.203  0.00  0.00    -0.061 S 
ATOM     39  H   UNL     1       7.653   3.364   1.343  0.00  0.00    +0.167 HD
ENDBRANCH  31  33
ENDBRANCH  11  31
TORSDOF 5
