REMARK  Name = ZINC66557965
REMARK  5 active torsions:
REMARK  status: ('A' for Active; 'I' for Inactive)
REMARK    1  A    between atoms: C_1  and  C_2
REMARK    2  A    between atoms: C_6  and  C_7
REMARK    3  A    between atoms: N_9  and  N_10
REMARK    4  A    between atoms: C_11  and  C_13
REMARK    5  A    between atoms: C_16  and  C_18
REMARK                            x       y       z     vdW  Elec       q    Type
REMARK                         _______ _______ _______ _____ _____    ______ ____
ROOT
ATOM      1  N   UNL     1       0.059  -0.732   4.900  0.00  0.00    -0.228 N 
ATOM      2  C   UNL     1       0.081  -1.625   5.909  0.00  0.00    +0.295 C 
ATOM      3  O   UNL     1       0.094  -2.817   5.666  0.00  0.00    -0.265 OA
ATOM      4  H   UNL     1       0.049   0.219   5.094  0.00  0.00    +0.173 HD
ENDROOT
BRANCH   2   5
ATOM      5  C   UNL     1       0.088  -1.160   7.298  0.00  0.00    +0.191 A 
ATOM      6  C   UNL     1       0.115  -1.961   8.419  0.00  0.00    +0.055 A 
ATOM      7  C   UNL     1       0.113  -1.107   9.526  0.00  0.00    +0.050 A 
ATOM      8  C   UNL     1       0.084   0.172   9.046  0.00  0.00    +0.136 A 
ATOM      9  O   UNL     1       0.076   0.127   7.704  0.00  0.00    -0.450 OA
BRANCH   8  10
ATOM     10  C   UNL     1       0.071   1.399   9.867  0.00  0.00    +0.017 A 
ATOM     11  C   UNL     1       0.094   1.310  11.261  0.00  0.00    +0.014 A 
ATOM     12  C   UNL     1       0.082   2.459  12.023  0.00  0.00    +0.039 A 
ATOM     13  C   UNL     1       0.047   3.701  11.407  0.00  0.00    +0.123 A 
ATOM     14  C   UNL     1       0.025   3.795  10.025  0.00  0.00    +0.039 A 
ATOM     15  C   UNL     1       0.042   2.653   9.253  0.00  0.00    +0.014 A 
ATOM     16  F   UNL     1       0.035   4.824  12.159  0.00  0.00    -0.205 F 
ENDBRANCH   8  10
ENDBRANCH   2   5
BRANCH   1  19
ATOM     17  C   UNL     1       0.031  -0.283   2.562  0.00  0.00    +0.267 C 
ATOM     18  O   UNL     1       0.017   0.910   2.805  0.00  0.00    -0.268 OA
ATOM     19  N   UNL     1       0.052  -1.176   3.571  0.00  0.00    -0.230 N 
ATOM     20  H   UNL     1       0.063  -2.126   3.378  0.00  0.00    +0.173 HD
BRANCH  17  26
ATOM     21  C   UNL     1      -0.018   1.503   0.010  0.00  0.00    +0.045 C 
ATOM     22  C   UNL     1       0.002  -0.004   0.002  0.00  0.00    -0.031 A 
ATOM     23  C   UNL     1       0.007  -0.729  -1.166  0.00  0.00    +0.011 A 
ATOM     24  C   UNL     1       0.025  -2.083  -1.101  0.00  0.00    +0.046 A 
ATOM     25  S   UNL     1       0.037  -2.416   0.545  0.00  0.00    -0.092 S 
ATOM     26  C   UNL     1       0.023  -0.748   1.172  0.00  0.00    +0.078 A 
ENDBRANCH  17  26
ENDBRANCH   1  19
TORSDOF 4
