REMARK  Name = ZINC39751912
REMARK  1 active torsions:
REMARK  status: ('A' for Active; 'I' for Inactive)
REMARK    1  A    between atoms: C_12  and  C_14
REMARK                            x       y       z     vdW  Elec       q    Type
REMARK                         _______ _______ _______ _____ _____    ______ ____
ROOT
ATOM      1  C   UNL     1      -0.012   1.460   0.078  0.00  0.00    +0.025 C 
ATOM      2  C   UNL     1       1.136   2.160  -0.011  0.00  0.00    +0.032 C 
ATOM      3  C   UNL     1       2.401   1.468  -0.267  0.00  0.00    +0.095 C 
ATOM      4  N   UNL     1       3.654   1.861  -0.405  0.00  0.00    -0.190 NA
ATOM      5  C   UNL     1       4.431   0.790  -0.631  0.00  0.00    +0.369 C 
ATOM      6  O   UNL     1       5.772   0.847  -0.817  0.00  0.00    -0.243 OA
ATOM      7  N   UNL     1       3.729  -0.320  -0.650  0.00  0.00    -0.190 NA
ATOM      8  C   UNL     1       2.422   0.001  -0.428  0.00  0.00    +0.097 C 
ATOM      9  C   UNL     1       1.268  -0.708  -0.338  0.00  0.00    +0.053 C 
ATOM     10  C   UNL     1      -0.004  -0.000  -0.080  0.00  0.00    +0.036 C 
ATOM     11  N   UNL     1      -1.129  -0.678   0.009  0.00  0.00    -0.281 N 
ATOM     12  C   UNL     1      -2.314  -0.019   0.127  0.00  0.00    +0.251 C 
ATOM     13  O   UNL     1      -2.635   0.808  -0.706  0.00  0.00    -0.270 OA
ATOM     14  H   UNL     1      -1.114  -1.648  -0.009  0.00  0.00    +0.155 HD
ENDROOT
BRANCH  12  15
ATOM     15  C   UNL     1      -3.209  -0.307   1.265  0.00  0.00    +0.073 A 
ATOM     16  C   UNL     1      -2.841  -1.252   2.227  0.00  0.00    +0.031 A 
ATOM     17  C   UNL     1      -3.682  -1.515   3.287  0.00  0.00    +0.019 A 
ATOM     18  C   UNL     1      -4.891  -0.846   3.402  0.00  0.00    +0.018 A 
ATOM     19  C   UNL     1      -5.264   0.090   2.455  0.00  0.00    +0.040 A 
ATOM     20  C   UNL     1      -4.429   0.370   1.389  0.00  0.00    +0.136 A 
ATOM     21  F   UNL     1      -4.791   1.289   0.468  0.00  0.00    -0.205 F 
ATOM     22 BR   UNL     1      -3.186  -2.794   4.588  0.00  0.00    -0.050 Br
ENDBRANCH  12  15
TORSDOF 1
