REMARK  Name = ZINC04004815
REMARK  1 active torsions:
REMARK  status: ('A' for Active; 'I' for Inactive)
REMARK    1  A    between atoms: C_6  and  C_7
REMARK                            x       y       z     vdW  Elec       q    Type
REMARK                         _______ _______ _______ _____ _____    ______ ____
ROOT
ATOM      1  C   UNL     1      -1.293  -0.775   0.010  0.00  0.00    +0.092 C 
ATOM      2  C   UNL     1      -1.374  -1.611  -1.232  0.00  0.00    +0.069 A 
ATOM      3  C   UNL     1      -1.125  -2.987  -1.182  0.00  0.00    +0.135 A 
ATOM      4  N   UNL     1      -1.195  -3.713  -2.292  0.00  0.00    -0.207 NA
ATOM      5  C   UNL     1      -1.503  -3.148  -3.456  0.00  0.00    +0.182 A 
ATOM      6  N   UNL     1      -1.753  -1.829  -3.546  0.00  0.00    -0.301 N 
ATOM      7  C   UNL     1      -1.692  -1.039  -2.433  0.00  0.00    +0.258 A 
ATOM      8  O   UNL     1      -1.940   0.285  -2.516  0.00  0.00    -0.267 OA
ATOM      9  S   UNL     1      -1.582  -4.117  -4.866  0.00  0.00    -0.011 S 
ATOM     10  N   UNL     1      -0.812  -3.578   0.024  0.00  0.00    -0.302 N 
ATOM     11  C   UNL     1      -1.116  -2.956   1.205  0.00  0.00    +0.017 C 
ATOM     12  C   UNL     1      -1.350  -1.629   1.252  0.00  0.00    +0.024 C 
ATOM     13  C   UNL     1      -1.656  -0.993   2.469  0.00  0.00    +0.162 C 
ATOM     14  C   UNL     1      -1.710  -1.760   3.761  0.00  0.00    +0.080 C 
ATOM     15  C   UNL     1      -0.769  -2.966   3.663  0.00  0.00    +0.014 C 
ATOM     16  C   UNL     1      -1.184  -3.801   2.454  0.00  0.00    +0.051 C 
ATOM     17  O   UNL     1      -1.881   0.201   2.476  0.00  0.00    -0.292 OA
ATOM     18  H   UNL     1      -1.978  -1.437  -4.404  0.00  0.00    +0.171 HD
ATOM     19  H   UNL     1      -0.373  -4.443   0.036  0.00  0.00    +0.153 HD
ENDROOT
BRANCH   1  25
ATOM     20  C   UNL     1      -0.017   1.378   0.010  0.00  0.00    +0.005 A 
ATOM     21  C   UNL     1       1.171   2.086   0.002  0.00  0.00    +0.015 A 
ATOM     22  C   UNL     1       2.378   1.411  -0.013  0.00  0.00    +0.018 A 
ATOM     23  C   UNL     1       2.396   0.027  -0.021  0.00  0.00    +0.015 A 
ATOM     24  C   UNL     1       1.208  -0.679  -0.013  0.00  0.00    +0.005 A 
ATOM     25  C   UNL     1       0.002  -0.004   0.002  0.00  0.00    -0.035 A 
ATOM     26 BR   UNL     1       4.003   2.378  -0.024  0.00  0.00    -0.050 Br
ENDBRANCH   1  25
TORSDOF 1
