REMARK  Name = ZINC16957413
REMARK  6 active torsions:
REMARK  status: ('A' for Active; 'I' for Inactive)
REMARK    1  A    between atoms: C_1  and  C_2
REMARK    2  A    between atoms: C_8  and  C_12
REMARK    3  A    between atoms: C_12  and  C_13
REMARK    4  A    between atoms: C_13  and  N_14
REMARK    5  A    between atoms: C_15  and  C_26
REMARK    6  A    between atoms: N_19  and  C_20
REMARK                            x       y       z     vdW  Elec       q    Type
REMARK                         _______ _______ _______ _____ _____    ______ ____
ROOT
ATOM      1  N   UNL     1       5.596   0.940  -1.635  0.00  0.00    -0.320 N 
ATOM      2  C   UNL     1       6.155   2.180  -1.488  0.00  0.00    +0.058 A 
ATOM      3  C   UNL     1       7.458   2.290  -1.154  0.00  0.00    +0.075 A 
ATOM      4  S   UNL     1       7.961   0.580  -1.046  0.00  0.00    -0.059 S 
ATOM      5  C   UNL     1       6.390  -0.167  -1.448  0.00  0.00    +0.152 A 
ATOM      6  N   UNL     1       6.074  -1.445  -1.541  0.00  0.00    -0.336 N 
ATOM      7  H   UNL     1       5.069  -1.740  -1.879  0.00  0.00    +0.168 HD
ENDROOT
BRANCH   6   8
ATOM      8  C   UNL     1       6.995  -2.402  -1.219  0.00  0.00    +0.041 A 
ATOM      9  C   UNL     1       7.857  -2.906  -2.197  0.00  0.00    +0.025 A 
ATOM     10  C   UNL     1       8.787  -3.867  -1.864  0.00  0.00    +0.002 A 
ATOM     11  C   UNL     1       8.861  -4.342  -0.566  0.00  0.00    +0.000 A 
ATOM     12  C   UNL     1       8.008  -3.853   0.407  0.00  0.00    +0.002 A 
ATOM     13  C   UNL     1       7.076  -2.886   0.089  0.00  0.00    +0.025 A 
ENDBRANCH   6   8
BRANCH   2  14
ATOM     14  C   UNL     1       5.334   3.394  -1.687  0.00  0.00    -0.001 A 
ATOM     15  C   UNL     1       4.599   3.558  -2.862  0.00  0.00    +0.010 A 
ATOM     16  C   UNL     1       3.830   4.689  -3.039  0.00  0.00    +0.001 A 
ATOM     17  C   UNL     1       3.796   5.667  -2.060  0.00  0.00    +0.000 A 
ATOM     18  C   UNL     1       4.527   5.513  -0.895  0.00  0.00    +0.001 A 
ATOM     19  C   UNL     1       5.295   4.383  -0.703  0.00  0.00    +0.010 A 
ENDBRANCH   2  14
BRANCH   1  20
ATOM     20  C   UNL     1       4.183   0.794  -1.991  0.00  0.00    +0.129 C 
BRANCH  20  21
ATOM     21  C   UNL     1       3.328   0.870  -0.724  0.00  0.00    +0.059 C 
BRANCH  21  29
ATOM     22  C   UNL     1       0.944  -4.305  -1.319  0.00  0.00    +0.044 C 
ATOM     23  C   UNL     1       0.562  -2.851  -1.416  0.00  0.00    -0.050 A 
ATOM     24  C   UNL     1      -0.742  -2.502  -1.744  0.00  0.00    +0.005 A 
ATOM     25  C   UNL     1      -1.112  -1.179  -1.839  0.00  0.00    +0.026 A 
ATOM     26  C   UNL     1      -0.173  -0.180  -1.604  0.00  0.00    +0.047 A 
ATOM     27  C   UNL     1       1.146  -0.538  -1.272  0.00  0.00    +0.003 A 
ATOM     28  C   UNL     1       1.500  -1.886  -1.181  0.00  0.00    +0.013 A 
ATOM     29  C   UNL     1       1.874   0.720  -1.090  0.00  0.00    -0.021 A 
ATOM     30  C   UNL     1       0.999   1.715  -1.310  0.00  0.00    +0.087 A 
ATOM     31  N   UNL     1      -0.229   1.196  -1.619  0.00  0.00    -0.360 N 
ATOM     32  H   UNL     1      -1.174   1.706  -1.857  0.00  0.00    +0.165 HD
ENDBRANCH  21  29
ENDBRANCH  20  21
ENDBRANCH   1  20
TORSDOF 5
