REMARK  Name = ZINC09880571
REMARK  7 active torsions:
REMARK  status: ('A' for Active; 'I' for Inactive)
REMARK    1  A    between atoms: C_4  and  C_7
REMARK    2  A    between atoms: C_12  and  C_14
REMARK    3  A    between atoms: C_14  and  S_15
REMARK    4  A    between atoms: S_15  and  C_16
REMARK    5  A    between atoms: C_19  and  C_28
REMARK    6  A    between atoms: N_20  and  C_21
REMARK    7  A    between atoms: C_28  and  N_61
REMARK                            x       y       z     vdW  Elec       q    Type
REMARK                         _______ _______ _______ _____ _____    ______ ____
ROOT
ATOM      1  C   UNL     1       4.018  -7.474  -0.075  0.00  0.00    +0.197 A 
ATOM      2  N   UNL     1       2.752  -7.127  -0.056  0.00  0.00    -0.122 NA
ATOM      3  N   UNL     1       2.010  -8.176  -0.060  0.00  0.00    -0.135 NA
ATOM      4  C   UNL     1       2.750  -9.249  -0.072  0.00  0.00    +0.122 A 
ATOM      5  N   UNL     1       4.057  -8.841  -0.083  0.00  0.00    -0.276 N 
ENDROOT
BRANCH   5   6
ATOM      6  C   UNL     1       5.199  -9.656  -0.098  0.00  0.00    +0.050 A 
ATOM      7  C   UNL     1       5.456 -10.473  -1.190  0.00  0.00    +0.028 A 
ATOM      8  C   UNL     1       6.584 -11.271  -1.205  0.00  0.00    +0.022 A 
ATOM      9  C   UNL     1       7.451 -11.265  -0.126  0.00  0.00    +0.041 A 
ATOM     10  C   UNL     1       7.193 -10.456   0.967  0.00  0.00    +0.022 A 
ATOM     11  C   UNL     1       6.070  -9.652   0.983  0.00  0.00    +0.028 A 
ATOM     12 CL   UNL     1       8.863 -12.274  -0.144  0.00  0.00    -0.084 Cl
ENDBRANCH   5   6
BRANCH   1  13
ATOM     13  S   UNL     1       5.403  -6.386  -0.083  0.00  0.00    -0.076 S 
BRANCH  13  14
ATOM     14  C   UNL     1       4.550  -4.790  -0.067  0.00  0.00    +0.175 C 
BRANCH  14  20
ATOM     15  C   UNL     1       3.693  -0.682  -0.037  0.00  0.00    +0.068 C 
ATOM     16  N   UNL     1       3.832  -1.963  -0.041  0.00  0.00    -0.181 NA
ATOM     17  N   UNL     1       5.157  -2.392  -0.060  0.00  0.00    -0.192 N 
ATOM     18  C   UNL     1       6.039  -1.214  -0.062  0.00  0.00    +0.141 C 
ATOM     19  C   UNL     1       5.056  -0.027  -0.047  0.00  0.00    +0.078 C 
ATOM     20  C   UNL     1       5.565  -3.676  -0.071  0.00  0.00    +0.245 C 
ATOM     21  O   UNL     1       6.750  -3.936  -0.083  0.00  0.00    -0.273 OA
BRANCH  15  25
ATOM     22  C   UNL     1      -0.017   1.379   0.010  0.00  0.00    +0.000 A 
ATOM     23  C   UNL     1       1.168   2.094   0.002  0.00  0.00    +0.001 A 
ATOM     24  C   UNL     1       2.377   1.431  -0.013  0.00  0.00    +0.010 A 
ATOM     25  C   UNL     1       2.404   0.034  -0.021  0.00  0.00    -0.002 A 
ATOM     26  C   UNL     1       1.204  -0.681  -0.013  0.00  0.00    +0.010 A 
ATOM     27  C   UNL     1       0.002  -0.004   0.002  0.00  0.00    +0.001 A 
ENDBRANCH  15  25
ENDBRANCH  14  20
ENDBRANCH  13  14
ENDBRANCH   1  13
BRANCH   4  28
ATOM     28  C   UNL     1       2.258 -10.673  -0.075  0.00  0.00    -0.001 C 
BRANCH  28  34
ATOM     29  C   UNL     1       3.415 -11.219   1.980  0.00  0.00    -0.078 C 
ATOM     30  C   UNL     1       3.211 -11.569   3.456  0.00  0.00    -0.019 C 
ATOM     31  C   UNL     1       2.483 -12.912   3.561  0.00  0.00    -0.004 C 
ATOM     32  C   UNL     1       1.150 -12.821   2.813  0.00  0.00    -0.019 C 
ATOM     33  C   UNL     1       1.413 -12.434   1.356  0.00  0.00    -0.078 C 
ATOM     34  N   UNL     1       2.094 -11.122   1.323  0.00  0.00    +0.384 N 
ATOM     35  H   UNL     1       1.520 -10.437   1.829  0.00  0.00    -0.081 HD
ENDBRANCH  28  34
ENDBRANCH   4  28
TORSDOF 7
