REMARK  Name = ZINC39711169
REMARK  14 active torsions:
REMARK  status: ('A' for Active; 'I' for Inactive)
REMARK    1  A    between atoms: C_1  and  C_2
REMARK    2  A    between atoms: C_2  and  C_3
REMARK    3  A    between atoms: C_3  and  C_4
REMARK    4  A    between atoms: C_3  and  C_5
REMARK    5  A    between atoms: C_3  and  N_6
REMARK    6  A    between atoms: C_7  and  C_12
REMARK    7  A    between atoms: C_12  and  C_14
REMARK    8  A    between atoms: C_12  and  N_28
REMARK    9  A    between atoms: C_18  and  C_27
REMARK   10  A    between atoms: C_20  and  C_26
REMARK   11  A    between atoms: N_28  and  C_29
REMARK   12  A    between atoms: N_28  and  C_37
REMARK   13  A    between atoms: C_29  and  C_30
REMARK   14  A    between atoms: C_37  and  C_38
REMARK                            x       y       z     vdW  Elec       q    Type
REMARK                         _______ _______ _______ _____ _____    ______ ____
ROOT
ATOM      1  C   UNL     1       0.791  -3.628  -3.494  0.00  0.00    -0.010 C 
ENDROOT
BRANCH   1   2
ATOM      2  C   UNL     1      -0.576  -4.213  -3.136  0.00  0.00    +0.088 C 
ATOM      3  C   UNL     1      -1.538  -3.058  -2.937  0.00  0.00    -0.006 C 
ATOM      4  C   UNL     1      -2.159  -2.964  -1.727  0.00  0.00    -0.004 A 
ATOM      5  C   UNL     1      -3.103  -1.880  -1.450  0.00  0.00    -0.042 A 
ATOM      6  C   UNL     1      -3.698  -1.825  -0.230  0.00  0.00    +0.007 A 
ATOM      7  C   UNL     1      -3.426  -2.777   0.754  0.00  0.00    -0.048 A 
ATOM      8  C   UNL     1      -2.562  -3.806   0.559  0.00  0.00    +0.027 A 
ATOM      9  C   UNL     1      -1.893  -3.954  -0.670  0.00  0.00    +0.041 A 
ATOM     10  N   UNL     1      -1.047  -4.969  -0.850  0.00  0.00    -0.285 N 
ATOM     11  C   UNL     1      -0.385  -5.165  -1.977  0.00  0.00    +0.223 C 
ATOM     12  O   UNL     1       0.375  -6.109  -2.081  0.00  0.00    -0.275 OA
ATOM     13  C   UNL     1      -4.121  -2.657   2.086  0.00  0.00    +0.044 C 
ATOM     14  C   UNL     1      -3.408  -0.842  -2.499  0.00  0.00    +0.044 C 
ATOM     15  H   UNL     1      -0.910  -5.592  -0.118  0.00  0.00    +0.155 HD
ENDBRANCH   1   2
BRANCH   1  17
ATOM     16  N   UNL     1       0.887  -2.103  -1.550  0.00  0.00    -0.211 N 
ATOM     17  C   UNL     1       1.536  -3.251  -2.212  0.00  0.00    +0.183 C 
ATOM     18  N   UNL     1       1.422  -4.320  -1.203  0.00  0.00    -0.229 N 
ATOM     19  N   UNL     1       0.761  -3.747  -0.110  0.00  0.00    -0.064 NA
ATOM     20  N   UNL     1       0.481  -2.566  -0.293  0.00  0.00    -0.061 NA
ATOM     21  H   UNL     1       1.739  -5.234  -1.281  0.00  0.00    +0.172 HD
BRANCH  16  22
ATOM     22  C   UNL     1       0.710  -0.754  -2.094  0.00  0.00    +0.050 C 
ATOM     23  C   UNL     1      -0.071  -0.833  -3.408  0.00  0.00    +0.033 C 
ATOM     24  C   UNL     1       2.080  -0.125  -2.353  0.00  0.00    +0.033 C 
BRANCH  22  26
ATOM     25  C   UNL     1      -0.161   1.538  -1.613  0.00  0.00    +0.006 C 
ATOM     26  C   UNL     1      -0.064   0.103  -1.091  0.00  0.00    +0.023 C 
ENDBRANCH  22  26
ENDBRANCH  16  22
ENDBRANCH   1  17
BRANCH   1  27
ATOM     27  N   UNL     1       1.571  -4.627  -4.237  0.00  0.00    +0.392 N 
ATOM     28  H   UNL     1       1.667  -5.462  -3.679  0.00  0.00    -0.080 HD
BRANCH  27  29
ATOM     29  C   UNL     1       2.903  -4.084  -4.538  0.00  0.00    -0.042 C 
BRANCH  29  30
ATOM     30  C   UNL     1       2.763  -2.867  -5.415  0.00  0.00    -0.064 A 
ATOM     31  C   UNL     1       2.252  -2.993  -6.694  0.00  0.00    +0.004 A 
ATOM     32  C   UNL     1       2.123  -1.878  -7.500  0.00  0.00    +0.038 A 
ATOM     33  C   UNL     1       2.505  -0.634  -7.026  0.00  0.00    +0.123 A 
ATOM     34  C   UNL     1       3.016  -0.509  -5.745  0.00  0.00    +0.038 A 
ATOM     35  C   UNL     1       3.140  -1.625  -4.940  0.00  0.00    +0.004 A 
ATOM     36  F   UNL     1       2.379   0.457  -7.813  0.00  0.00    -0.205 F 
ENDBRANCH  29  30
ENDBRANCH  27  29
BRANCH  27  37
ATOM     37  C   UNL     1       0.881  -4.953  -5.492  0.00  0.00    -0.002 C 
BRANCH  37  38
ATOM     38  C   UNL     1       1.640  -6.033  -6.218  0.00  0.00    +0.089 A 
ATOM     39  C   UNL     1       1.514  -7.357  -6.013  0.00  0.00    +0.042 A 
ATOM     40  C   UNL     1       2.408  -7.996  -6.902  0.00  0.00    +0.041 A 
ATOM     41  C   UNL     1       3.027  -7.025  -7.598  0.00  0.00    +0.195 A 
ATOM     42  O   UNL     1       2.554  -5.838  -7.183  0.00  0.00    -0.470 OA
ENDBRANCH  37  38
ENDBRANCH  27  37
ENDBRANCH   1  27
TORSDOF 9
