REMARK  Name = ZINC22011088
REMARK  7 active torsions:
REMARK  status: ('A' for Active; 'I' for Inactive)
REMARK    1  A    between atoms: C_1  and  C_2
REMARK    2  A    between atoms: C_2  and  C_4
REMARK    3  A    between atoms: C_2  and  N_18
REMARK    4  A    between atoms: N_10  and  C_11
REMARK    5  A    between atoms: N_18  and  C_19
REMARK    6  A    between atoms: N_18  and  C_20
REMARK    7  A    between atoms: C_20  and  C_21
REMARK                            x       y       z     vdW  Elec       q    Type
REMARK                         _______ _______ _______ _____ _____    ______ ____
ROOT
ATOM      1  C   UNL     1       5.629  -1.770  -3.023  0.00  0.00    +0.153 A 
ATOM      2  N   UNL     1       4.707  -1.826  -3.968  0.00  0.00    -0.198 NA
ATOM      3  C   UNL     1       5.063  -2.003  -5.238  0.00  0.00    +0.217 A 
ATOM      4  N   UNL     1       6.347  -2.124  -5.556  0.00  0.00    -0.181 NA
ATOM      5  C   UNL     1       7.271  -2.067  -4.603  0.00  0.00    +0.224 A 
ATOM      6  N   UNL     1       6.908  -1.884  -3.336  0.00  0.00    -0.198 NA
ATOM      7  N   UNL     1       8.608  -2.192  -4.928  0.00  0.00    -0.284 N 
ATOM      8  N   UNL     1       4.099  -2.062  -6.224  0.00  0.00    -0.327 N 
ATOM      9  H   UNL     1       9.378  -2.055  -4.154  0.00  0.00    +0.155 HD
ATOM     10  H   UNL     1       4.394  -2.208  -7.273  0.00  0.00    +0.145 HD
ATOM     11  H   UNL     1       3.035  -1.962  -5.960  0.00  0.00    +0.145 HD
ENDROOT
BRANCH   7  12
ATOM     12  C   UNL     1       8.983  -2.494  -6.241  0.00  0.00    +0.034 A 
ATOM     13  C   UNL     1       8.178  -3.310  -7.025  0.00  0.00    +0.023 A 
ATOM     14  C   UNL     1       8.548  -3.601  -8.323  0.00  0.00    +0.002 A 
ATOM     15  C   UNL     1       9.725  -3.090  -8.839  0.00  0.00    +0.000 A 
ATOM     16  C   UNL     1      10.532  -2.282  -8.060  0.00  0.00    +0.002 A 
ATOM     17  C   UNL     1      10.165  -1.982  -6.763  0.00  0.00    +0.023 A 
ENDBRANCH   7  12
BRANCH   1  19
ATOM     18  C   UNL     1       4.638  -2.872  -1.035  0.00  0.00    +0.032 C 
ATOM     19  C   UNL     1       5.222  -1.570  -1.586  0.00  0.00    +0.122 C 
BRANCH  19  20
ATOM     20  N   UNL     1       4.211  -0.507  -1.507  0.00  0.00    -0.292 NA
ATOM     21  C   UNL     1       4.705   0.736  -2.114  0.00  0.00    +0.106 C 
BRANCH  20  22
ATOM     22  C   UNL     1       3.789  -0.283  -0.118  0.00  0.00    +0.120 C 
BRANCH  22  23
ATOM     23  C   UNL     1       2.589   0.628  -0.098  0.00  0.00    -0.030 A 
ATOM     24  C   UNL     1       1.316   0.092  -0.155  0.00  0.00    +0.009 A 
ATOM     25  C   UNL     1       0.212   0.925  -0.137  0.00  0.00    +0.050 A 
ATOM     26  C   UNL     1       0.380   2.299  -0.062  0.00  0.00    +0.162 A 
ATOM     27  C   UNL     1       1.660   2.837  -0.003  0.00  0.00    +0.162 A 
ATOM     28  C   UNL     1       2.763   1.996  -0.022  0.00  0.00    +0.054 A 
ATOM     29  O   UNL     1       1.847   4.183   0.079  0.00  0.00    -0.485 OA
ATOM     30  C   UNL     1       0.735   5.010  -0.280  0.00  0.00    +0.270 C 
ATOM     31  C   UNL     1      -0.521   4.450   0.401  0.00  0.00    +0.270 C 
ATOM     32  O   UNL     1      -0.716   3.107  -0.054  0.00  0.00    -0.485 OA
ENDBRANCH  22  23
ENDBRANCH  20  22
ENDBRANCH  19  20
ENDBRANCH   1  19
TORSDOF 5
