REMARK  Name = ZINC12760013
REMARK  12 active torsions:
REMARK  status: ('A' for Active; 'I' for Inactive)
REMARK    1  A    between atoms: C_1  and  C_2
REMARK    2  A    between atoms: C_2  and  C_4
REMARK    3  A    between atoms: C_2  and  N_20
REMARK    4  A    between atoms: N_6  and  C_7
REMARK    5  A    between atoms: C_10  and  S_13
REMARK    6  A    between atoms: S_13  and  N_16
REMARK    7  A    between atoms: N_16  and  C_17
REMARK    8  A    between atoms: C_17  and  C_18
REMARK    9  A    between atoms: C_17  and  C_19
REMARK   10  A    between atoms: C_23  and  C_26
REMARK   11  A    between atoms: N_28  and  C_29
REMARK   12  A    between atoms: C_34  and  O_35
REMARK                            x       y       z     vdW  Elec       q    Type
REMARK                         _______ _______ _______ _____ _____    ______ ____
ROOT
ATOM      1  C   UNL     1       0.805   0.176  -0.003  0.00  0.00    -0.004 C 
ATOM      2  C   UNL     1      -0.164  -0.946   0.374  0.00  0.00    +0.016 C 
ENDROOT
BRANCH   2   3
ATOM      3  N   UNL     1      -0.016  -2.060  -0.573  0.00  0.00    +0.387 N 
ATOM      4  C   UNL     1      -0.193  -1.563  -1.942  0.00  0.00    -0.077 C 
ATOM      5  C   UNL     1       0.041  -2.702  -2.937  0.00  0.00    -0.006 C 
ATOM      6  C   UNL     1      -0.965  -3.824  -2.665  0.00  0.00    +0.072 C 
ATOM      7  C   UNL     1      -0.822  -4.284  -1.212  0.00  0.00    -0.006 C 
ATOM      8  C   UNL     1      -1.024  -3.086  -0.281  0.00  0.00    -0.077 C 
ATOM      9  H   UNL     1       0.906  -2.459  -0.478  0.00  0.00    -0.081 HD
BRANCH   6  10
ATOM     10  C   UNL     1      -0.691  -4.982  -3.590  0.00  0.00    +0.220 C 
ATOM     11  O   UNL     1       0.221  -4.918  -4.388  0.00  0.00    -0.275 OA
ATOM     12  N   UNL     1      -1.457  -6.089  -3.529  0.00  0.00    -0.282 N 
ATOM     13  H   UNL     1      -2.236  -6.108  -2.952  0.00  0.00    +0.155 HD
BRANCH  12  14
ATOM     14  C   UNL     1      -1.129  -7.211  -4.301  0.00  0.00    +0.075 A 
ATOM     15  C   UNL     1       0.180  -7.413  -4.714  0.00  0.00    +0.027 A 
ATOM     16  C   UNL     1       0.501  -8.521  -5.474  0.00  0.00    +0.002 A 
ATOM     17  C   UNL     1      -0.479  -9.430  -5.827  0.00  0.00    +0.004 A 
ATOM     18  C   UNL     1      -1.786  -9.236  -5.420  0.00  0.00    +0.047 A 
ATOM     19  C   UNL     1      -2.115  -8.130  -4.652  0.00  0.00    +0.138 A 
BRANCH  19  20
ATOM     20  O   UNL     1      -3.399  -7.941  -4.246  0.00  0.00    -0.505 OA
ATOM     21  H   UNL     1      -3.936  -7.427  -4.865  0.00  0.00    +0.292 HD
ENDBRANCH  19  20
ENDBRANCH  12  14
ENDBRANCH   6  10
ENDBRANCH   2   3
BRANCH   2  22
ATOM     22  C   UNL     1       0.142  -1.428   1.768  0.00  0.00    +0.203 C 
ATOM     23  O   UNL     1       0.791  -2.439   1.931  0.00  0.00    -0.277 OA
ATOM     24  N   UNL     1      -0.304  -0.735   2.834  0.00  0.00    -0.287 N 
ATOM     25  H   UNL     1      -0.872   0.041   2.705  0.00  0.00    +0.155 HD
BRANCH  24  26
ATOM     26  C   UNL     1       0.050  -1.134   4.127  0.00  0.00    +0.033 A 
ATOM     27  C   UNL     1       1.333  -1.601   4.384  0.00  0.00    +0.025 A 
ATOM     28  C   UNL     1       1.680  -1.995   5.662  0.00  0.00    +0.030 A 
ATOM     29  C   UNL     1       0.752  -1.925   6.684  0.00  0.00    +0.105 A 
ATOM     30  C   UNL     1      -0.526  -1.460   6.432  0.00  0.00    +0.030 A 
ATOM     31  C   UNL     1      -0.877  -1.059   5.158  0.00  0.00    +0.025 A 
BRANCH  29  32
ATOM     32  S   UNL     1       1.199  -2.428   8.313  0.00  0.00    +0.059 S 
ATOM     33  O   UNL     1      -0.009  -2.779   8.975  0.00  0.00    -0.153 OA
ATOM     34  O   UNL     1       2.283  -3.335   8.174  0.00  0.00    -0.153 OA
BRANCH  32  35
ATOM     35  N   UNL     1       1.794  -1.093   9.092  0.00  0.00    -0.187 NA
ATOM     36  H   UNL     1       2.724  -1.067   9.367  0.00  0.00    +0.148 HD
BRANCH  35  37
ATOM     37  C   UNL     1       0.917   0.048   9.365  0.00  0.00    +0.070 C 
ATOM     38  C   UNL     1       1.305   0.680  10.703  0.00  0.00    +0.025 C 
ATOM     39  C   UNL     1       1.066   1.084   8.249  0.00  0.00    +0.025 C 
ENDBRANCH  35  37
ENDBRANCH  32  35
ENDBRANCH  29  32
ENDBRANCH  24  26
ENDBRANCH   2  22
TORSDOF 9
