REMARK  Name = ZINC40476362
REMARK  13 active torsions:
REMARK  status: ('A' for Active; 'I' for Inactive)
REMARK    1  A    between atoms: C_1  and  C_2
REMARK    2  A    between atoms: C_2  and  C_3
REMARK    3  A    between atoms: C_3  and  C_4
REMARK    4  A    between atoms: C_4  and  C_5
REMARK    5  A    between atoms: C_5  and  S_6
REMARK    6  A    between atoms: S_6  and  C_7
REMARK    7  A    between atoms: C_18  and  C_20
REMARK    8  A    between atoms: C_23  and  O_28
REMARK    9  A    between atoms: C_25  and  O_26
REMARK   10  A    between atoms: O_26  and  C_27
REMARK   11  A    between atoms: O_28  and  C_29
REMARK   12  A    between atoms: C_33  and  C_35
REMARK   13  A    between atoms: C_33  and  C_36
REMARK                            x       y       z     vdW  Elec       q    Type
REMARK                         _______ _______ _______ _____ _____    ______ ____
ROOT
ATOM      1  C   UNL     1       2.402  -4.784   3.933  0.00  0.00    +0.171 A 
ATOM      2  N   UNL     1       2.608  -6.097   4.233  0.00  0.00    -0.302 N 
ATOM      3  H   UNL     1       2.271  -6.787   3.640  0.00  0.00    +0.171 HD
ATOM      4  C   UNL     1       3.279  -6.439   5.352  0.00  0.00    +0.258 A 
ATOM      5  O   UNL     1       3.472  -7.612   5.628  0.00  0.00    -0.267 OA
ATOM      6  C   UNL     1       3.751  -5.423   6.192  0.00  0.00    +0.069 A 
ATOM      7  C   UNL     1       3.511  -4.105   5.844  0.00  0.00    +0.135 A 
ATOM      8  N   UNL     1       2.849  -3.824   4.717  0.00  0.00    -0.208 NA
ATOM      9  N   UNL     1       3.960  -3.088   6.664  0.00  0.00    -0.302 N 
ATOM     10  C   UNL     1       4.280  -3.338   7.971  0.00  0.00    +0.017 C 
ATOM     11  C   UNL     1       4.549  -4.592   8.392  0.00  0.00    +0.024 C 
ATOM     12  C   UNL     1       4.506  -5.762   7.442  0.00  0.00    +0.096 C 
ATOM     13  C   UNL     1       4.884  -4.848   9.734  0.00  0.00    +0.162 C 
ATOM     14  O   UNL     1       5.100  -5.991  10.086  0.00  0.00    -0.292 OA
ATOM     15  C   UNL     1       4.979  -3.736  10.742  0.00  0.00    +0.086 C 
ATOM     16  C   UNL     1       5.361  -2.440  10.020  0.00  0.00    -0.023 C 
ATOM     17  C   UNL     1       4.322  -2.171   8.928  0.00  0.00    +0.058 C 
ATOM     18  C   UNL     1       6.746  -2.591   9.387  0.00  0.00    +0.011 C 
ATOM     19  C   UNL     1       5.372  -1.279  11.016  0.00  0.00    +0.011 C 
ATOM     20  H   UNL     1       4.049  -2.190   6.311  0.00  0.00    +0.153 HD
ENDROOT
BRANCH  12  21
ATOM     21  C   UNL     1       5.915  -6.153   7.077  0.00  0.00    +0.007 A 
ATOM     22  C   UNL     1       6.734  -5.252   6.425  0.00  0.00    +0.012 A 
ATOM     23  C   UNL     1       8.026  -5.607   6.089  0.00  0.00    +0.046 A 
ATOM     24  C   UNL     1       8.504  -6.871   6.405  0.00  0.00    +0.124 A 
ATOM     25  C   UNL     1       7.684  -7.777   7.059  0.00  0.00    +0.091 A 
ATOM     26  C   UNL     1       6.389  -7.416   7.401  0.00  0.00    +0.128 A 
BRANCH  26  27
ATOM     27  O   UNL     1       5.585  -8.300   8.047  0.00  0.00    -0.495 OA
ATOM     28  C   UNL     1       6.140  -9.582   8.349  0.00  0.00    +0.277 C 
ENDBRANCH  26  27
BRANCH  24  29
ATOM     29  O   UNL     1       9.775  -7.220   6.074  0.00  0.00    -0.495 OA
ATOM     30  C   UNL     1      10.564  -6.237   5.401  0.00  0.00    +0.277 C 
ENDBRANCH  24  29
ENDBRANCH  12  21
BRANCH   1  31
ATOM     31  S   UNL     1       1.527  -4.361   2.463  0.00  0.00    -0.088 S 
BRANCH  31  32
ATOM     32  C   UNL     1       1.503  -2.548   2.473  0.00  0.00    +0.077 C 
BRANCH  32  33
ATOM     33  C   UNL     1       0.763  -2.041   1.233  0.00  0.00    +0.011 C 
BRANCH  33  34
ATOM     34  C   UNL     1       0.742  -0.511   1.242  0.00  0.00    +0.001 C 
BRANCH  34  36
ATOM     35  C   UNL     1      -0.019   1.526   0.010  0.00  0.00    +0.004 C 
ATOM     36  C   UNL     1       0.002  -0.004   0.002  0.00  0.00    -0.003 C 
ENDBRANCH  34  36
ENDBRANCH  33  34
ENDBRANCH  32  33
ENDBRANCH  31  32
ENDBRANCH   1  31
TORSDOF 8
