REMARK  Name = ZINC59644447
REMARK  10 active torsions:
REMARK  status: ('A' for Active; 'I' for Inactive)
REMARK    1  A    between atoms: C_1  and  C_2
REMARK    2  A    between atoms: C_2  and  O_3
REMARK    3  A    between atoms: O_3  and  C_4
REMARK    4  A    between atoms: C_6  and  C_19
REMARK    5  A    between atoms: C_9  and  O_10
REMARK    6  A    between atoms: O_10  and  C_11
REMARK    7  A    between atoms: C_11  and  C_12
REMARK    8  A    between atoms: N_20  and  N_21
REMARK    9  A    between atoms: C_22  and  C_24
REMARK   10  A    between atoms: C_24  and  C_25
REMARK                            x       y       z     vdW  Elec       q    Type
REMARK                         _______ _______ _______ _____ _____    ______ ____
ROOT
ATOM      1  C   UNL     1       0.802  -1.825   1.306  0.00  0.00    +0.163 A 
ATOM      2  C   UNL     1       0.261  -2.669   0.354  0.00  0.00    +0.059 A 
ATOM      3  C   UNL     1       0.375  -4.053   0.507  0.00  0.00    -0.002 A 
ATOM      4  C   UNL     1       1.036  -4.577   1.621  0.00  0.00    +0.013 A 
ATOM      5  C   UNL     1       1.572  -3.729   2.567  0.00  0.00    +0.050 A 
ATOM      6  C   UNL     1       1.464  -2.355   2.412  0.00  0.00    +0.162 A 
ENDROOT
BRANCH   3   7
ATOM      7  C   UNL     1      -0.200  -4.959  -0.504  0.00  0.00    +0.138 C 
ATOM      8  N   UNL     1      -0.093  -6.244  -0.361  0.00  0.00    -0.188 NA
BRANCH   8   9
ATOM      9  N   UNL     1      -0.639  -7.104  -1.322  0.00  0.00    -0.207 N 
ATOM     10  C   UNL     1      -0.528  -8.439  -1.173  0.00  0.00    +0.238 C 
ATOM     11  O   UNL     1       0.045  -8.896  -0.206  0.00  0.00    -0.274 OA
ATOM     12  H   UNL     1      -1.098  -6.739  -2.095  0.00  0.00    +0.177 HD
BRANCH  10  13
ATOM     13  C   UNL     1      -1.116  -9.364  -2.207  0.00  0.00    +0.153 C 
BRANCH  13  14
ATOM     14  C   UNL     1      -0.857 -10.794  -1.807  0.00  0.00    +0.059 A 
ATOM     15  C   UNL     1      -1.866 -11.690  -1.691  0.00  0.00    +0.072 A 
ATOM     16  S   UNL     1      -0.961 -13.152  -1.209  0.00  0.00    -0.061 S 
ATOM     17  C   UNL     1       0.582 -12.480  -1.206  0.00  0.00    +0.156 A 
ATOM     18  N   UNL     1       0.365 -11.230  -1.559  0.00  0.00    -0.230 NA
ATOM     19  N   UNL     1       1.788 -13.094  -0.908  0.00  0.00    -0.338 N 
ATOM     20  H   UNL     1       1.808 -14.032  -0.664  0.00  0.00    +0.144 HD
ATOM     21  H   UNL     1       2.614 -12.585  -0.945  0.00  0.00    +0.144 HD
ENDBRANCH  13  14
ENDBRANCH  10  13
ENDBRANCH   8   9
ENDBRANCH   3   7
BRANCH   1  22
ATOM     22  O   UNL     1       0.693  -0.477   1.160  0.00  0.00    -0.489 OA
BRANCH  22  24
ATOM     23  C   UNL     1      -0.019   1.526   0.010  0.00  0.00    +0.048 C 
ATOM     24  C   UNL     1       0.002  -0.004   0.002  0.00  0.00    +0.226 C 
ENDBRANCH  22  24
ENDBRANCH   1  22
BRANCH   6  25
ATOM     25  O   UNL     1       2.000  -1.523   3.344  0.00  0.00    -0.484 OA
BRANCH  25  26
ATOM     26  C   UNL     1       2.664  -2.132   4.452  0.00  0.00    +0.264 C 
BRANCH  26  27
ATOM     27  C   UNL     1       3.190  -1.062   5.373  0.00  0.00    -0.010 A 
ATOM     28  C   UNL     1       4.460  -0.550   5.184  0.00  0.00    +0.008 A 
ATOM     29  C   UNL     1       4.942   0.432   6.028  0.00  0.00    +0.015 A 
ATOM     30  C   UNL     1       4.154   0.903   7.063  0.00  0.00    +0.018 A 
ATOM     31  C   UNL     1       2.883   0.390   7.252  0.00  0.00    +0.015 A 
ATOM     32  C   UNL     1       2.400  -0.589   6.404  0.00  0.00    +0.008 A 
ATOM     33 BR   UNL     1       4.813   2.246   8.219  0.00  0.00    -0.050 Br
ENDBRANCH  26  27
ENDBRANCH  25  26
ENDBRANCH   6  25
TORSDOF 9
