REMARK  Name = ZINC63572239
REMARK  4 active torsions:
REMARK  status: ('A' for Active; 'I' for Inactive)
REMARK    1  A    between atoms: C_1  and  O_2
REMARK    2  A    between atoms: O_2  and  C_3
REMARK    3  A    between atoms: C_6  and  C_9
REMARK    4  A    between atoms: N_27  and  C_28
REMARK                            x       y       z     vdW  Elec       q    Type
REMARK                         _______ _______ _______ _____ _____    ______ ____
ROOT
ATOM      1  C   UNL     1       2.519  -2.516  -4.367  0.00  0.00    +0.134 C 
ATOM      2  C   UNL     1       3.965  -2.892  -4.025  0.00  0.00    +0.131 C 
ATOM      3  C   UNL     1       4.458  -3.792  -5.151  0.00  0.00    -0.035 C 
ATOM      4  C   UNL     1       5.557  -3.223  -5.632  0.00  0.00    +0.001 A 
ATOM      5  C   UNL     1       6.507  -3.652  -6.671  0.00  0.00    +0.030 A 
ATOM      6  C   UNL     1       7.539  -2.804  -6.927  0.00  0.00    +0.042 A 
ATOM      7  C   UNL     1       7.717  -1.586  -6.260  0.00  0.00    +0.022 A 
ATOM      8  C   UNL     1       6.895  -1.116  -5.289  0.00  0.00    +0.027 A 
ATOM      9  C   UNL     1       5.776  -1.922  -4.929  0.00  0.00    +0.043 A 
ATOM     10  N   UNL     1       4.844  -1.721  -4.014  0.00  0.00    -0.375 N 
ATOM     11 CL   UNL     1       8.694  -3.254  -8.143  0.00  0.00    -0.084 Cl
ATOM     12  C   UNL     1       3.706  -5.023  -5.593  0.00  0.00    +0.052 C 
ATOM     13  C   UNL     1       2.248  -4.590  -5.830  0.00  0.00    +0.114 C 
ATOM     14  N   UNL     1       1.800  -3.752  -4.712  0.00  0.00    -0.276 N 
ATOM     15  C   UNL     1       0.721  -4.119  -3.993  0.00  0.00    +0.303 C 
ATOM     16  O   UNL     1       0.277  -3.376  -3.139  0.00  0.00    -0.253 OA
ATOM     17  N   UNL     1       0.133  -5.310  -4.221  0.00  0.00    -0.294 N 
ATOM     18  H   UNL     1       0.529  -5.935  -4.848  0.00  0.00    +0.151 HD
ATOM     19  H   UNL     1       4.748  -0.945  -3.441  0.00  0.00    +0.160 HD
ENDROOT
BRANCH  17  20
ATOM     20  C   UNL     1      -1.106  -5.662  -3.521  0.00  0.00    +0.037 C 
ATOM     21  C   UNL     1      -2.193  -4.641  -3.865  0.00  0.00    +0.029 C 
ATOM     22  C   UNL     1      -3.486  -5.008  -3.134  0.00  0.00    -0.008 C 
ATOM     23  C   UNL     1      -3.940  -6.403  -3.569  0.00  0.00    +0.007 C 
ATOM     24  C   UNL     1      -2.853  -7.423  -3.226  0.00  0.00    -0.008 C 
ATOM     25  C   UNL     1      -1.560  -7.056  -3.957  0.00  0.00    +0.029 C 
ATOM     26  C   UNL     1      -2.605  -7.416  -1.716  0.00  0.00    +0.007 C 
ATOM     27  C   UNL     1      -2.151  -6.021  -1.280  0.00  0.00    -0.008 C 
ATOM     28  C   UNL     1      -3.238  -5.000  -1.624  0.00  0.00    +0.007 C 
ATOM     29  C   UNL     1      -0.858  -5.654  -2.011  0.00  0.00    +0.029 C 
ENDBRANCH  17  20
BRANCH   1  33
ATOM     30  C   UNL     1       0.670  -0.663  -0.989  0.00  0.00    +0.120 A 
ATOM     31  C   UNL     1       0.342  -0.252  -2.273  0.00  0.00    +0.046 A 
ATOM     32  C   UNL     1       0.942  -0.853  -3.363  0.00  0.00    +0.009 A 
ATOM     33  C   UNL     1       1.867  -1.862  -3.175  0.00  0.00    -0.024 A 
ATOM     34  C   UNL     1       2.196  -2.273  -1.897  0.00  0.00    +0.009 A 
ATOM     35  C   UNL     1       1.604  -1.672  -0.803  0.00  0.00    +0.046 A 
BRANCH  30  37
ATOM     36  C   UNL     1      -0.870   0.959  -0.181  0.00  0.00    +0.277 C 
ATOM     37  O   UNL     1       0.082  -0.073   0.085  0.00  0.00    -0.495 OA
ENDBRANCH  30  37
ENDBRANCH   1  33
TORSDOF 3
