REMARK  Name = ZINC63541373
REMARK  5 active torsions:
REMARK  status: ('A' for Active; 'I' for Inactive)
REMARK    1  A    between atoms: C_1  and  C_2
REMARK    2  A    between atoms: C_3  and  C_20
REMARK    3  A    between atoms: N_22  and  C_23
REMARK    4  A    between atoms: C_23  and  C_24
REMARK    5  A    between atoms: C_24  and  C_25
REMARK                            x       y       z     vdW  Elec       q    Type
REMARK                         _______ _______ _______ _____ _____    ______ ____
ROOT
ATOM      1  C   UNL     1      -0.018   1.503   0.010  0.00  0.00    +0.041 C 
ATOM      2  C   UNL     1       0.002  -0.004   0.002  0.00  0.00    -0.040 C 
ATOM      3  C   UNL     1       0.006  -0.712  -1.157  0.00  0.00    +0.071 C 
ATOM      4  S   UNL     1      -0.035  -2.437  -0.656  0.00  0.00    -0.100 S 
ATOM      5  C   UNL     1      -0.676  -2.159   1.033  0.00  0.00    +0.134 C 
ATOM      6  C   UNL     1       0.025  -0.784   1.249  0.00  0.00    +0.129 C 
ATOM      7  C   UNL     1      -0.390  -0.254   2.560  0.00  0.00    +0.226 C 
ATOM      8  O   UNL     1      -0.538   0.939   2.728  0.00  0.00    -0.275 OA
ATOM      9  N   UNL     1      -0.604  -1.132   3.580  0.00  0.00    -0.285 N 
ATOM     10  C   UNL     1      -0.667  -0.533   4.933  0.00  0.00    +0.109 C 
ATOM     11  C   UNL     1      -1.748  -1.156   5.778  0.00  0.00    +0.019 C 
ATOM     12  C   UNL     1      -1.205  -2.392   6.521  0.00  0.00    +0.002 C 
ATOM     13  C   UNL     1      -1.088  -3.551   5.631  0.00  0.00    +0.003 C 
ATOM     14  C   UNL     1      -0.083  -3.344   4.496  0.00  0.00    +0.038 C 
ATOM     15  C   UNL     1      -0.731  -2.582   3.364  0.00  0.00    +0.145 C 
ATOM     16  N   UNL     1      -0.185  -3.037   2.068  0.00  0.00    -0.286 NA
ATOM     17  H   UNL     1      -0.432  -3.996   1.876  0.00  0.00    +0.125 HD
ENDROOT
BRANCH   3  18
ATOM     18  C   UNL     1       0.038  -0.178  -2.533  0.00  0.00    +0.250 C 
ATOM     19  O   UNL     1       0.064   1.023  -2.719  0.00  0.00    -0.270 OA
ATOM     20  N   UNL     1       0.038  -1.023  -3.583  0.00  0.00    -0.311 N 
ATOM     21  H   UNL     1       0.018  -1.981  -3.435  0.00  0.00    +0.149 HD
BRANCH  20  22
ATOM     22  C   UNL     1       0.069  -0.493  -4.949  0.00  0.00    +0.109 C 
BRANCH  22  23
ATOM     23  C   UNL     1       0.062  -1.654  -5.946  0.00  0.00    +0.052 C 
BRANCH  23  24
ATOM     24  C   UNL     1       0.095  -1.109  -7.351  0.00  0.00    -0.040 C 
ATOM     25  C   UNL     1       1.187  -0.929  -8.128  0.00  0.00    -0.001 A 
ATOM     26  C   UNL     1       2.616  -1.175  -7.907  0.00  0.00    +0.010 A 
ATOM     27  C   UNL     1       3.493  -0.887  -8.896  0.00  0.00    +0.001 A 
ATOM     28  C   UNL     1       3.070  -0.360 -10.124  0.00  0.00    +0.002 A 
ATOM     29  C   UNL     1       1.774  -0.107 -10.402  0.00  0.00    +0.026 A 
ATOM     30  C   UNL     1       0.766  -0.372  -9.434  0.00  0.00    +0.043 A 
ATOM     31  N   UNL     1      -0.535  -0.215  -9.463  0.00  0.00    -0.380 N 
ATOM     32  C   UNL     1      -1.088  -0.660  -8.179  0.00  0.00    +0.144 C 
ATOM     33  H   UNL     1      -1.047   0.134 -10.209  0.00  0.00    +0.160 HD
ENDBRANCH  23  24
ENDBRANCH  22  23
ENDBRANCH  20  22
ENDBRANCH   3  18
TORSDOF 4
