REMARK  Name = ZINC58411499
REMARK  13 active torsions:
REMARK  status: ('A' for Active; 'I' for Inactive)
REMARK    1  A    between atoms: C_1  and  C_2
REMARK    2  A    between atoms: C_2  and  N_3
REMARK    3  A    between atoms: N_3  and  C_4
REMARK    4  A    between atoms: N_3  and  C_6
REMARK    5  A    between atoms: C_4  and  C_5
REMARK    6  A    between atoms: C_6  and  C_7
REMARK    7  A    between atoms: C_7  and  N_8
REMARK    8  A    between atoms: N_17  and  C_18
REMARK    9  A    between atoms: C_18  and  C_20
REMARK   10  A    between atoms: C_23  and  O_28
REMARK   11  A    between atoms: C_24  and  O_26
REMARK   12  A    between atoms: O_26  and  C_27
REMARK   13  A    between atoms: O_28  and  C_29
REMARK                            x       y       z     vdW  Elec       q    Type
REMARK                         _______ _______ _______ _____ _____    ______ ____
ROOT
ATOM      1  N   UNL     1      -0.608  -3.777   2.104  0.00  0.00    -0.314 N 
ATOM      2  C   UNL     1      -1.569  -4.483   2.821  0.00  0.00    +0.068 A 
ATOM      3  C   UNL     1      -2.763  -4.112   3.423  0.00  0.00    +0.028 A 
ATOM      4  C   UNL     1      -3.524  -5.058   4.081  0.00  0.00    +0.002 A 
ATOM      5  C   UNL     1      -3.101  -6.375   4.143  0.00  0.00    +0.002 A 
ATOM      6  C   UNL     1      -1.915  -6.754   3.548  0.00  0.00    +0.028 A 
ATOM      7  C   UNL     1      -1.142  -5.811   2.883  0.00  0.00    +0.066 A 
ATOM      8  N   UNL     1       0.069  -5.886   2.203  0.00  0.00    -0.326 N 
ATOM      9  C   UNL     1       0.372  -4.645   1.734  0.00  0.00    +0.201 A 
ATOM     10  N   UNL     1       1.453  -4.331   1.031  0.00  0.00    -0.142 NA
ATOM     11  H   UNL     1       0.604  -6.686   2.081  0.00  0.00    +0.169 HD
ENDROOT
BRANCH  10  12
ATOM     12  C   UNL     1       2.289  -5.293   0.624  0.00  0.00    +0.270 C 
ATOM     13  O   UNL     1       2.011  -6.464   0.817  0.00  0.00    -0.268 OA
BRANCH  12  14
ATOM     14  C   UNL     1       3.551  -4.936  -0.060  0.00  0.00    +0.043 A 
ATOM     15  C   UNL     1       3.874  -3.595  -0.277  0.00  0.00    +0.017 A 
ATOM     16  C   UNL     1       5.050  -3.263  -0.914  0.00  0.00    +0.050 A 
ATOM     17  C   UNL     1       5.916  -4.260  -1.342  0.00  0.00    +0.168 A 
ATOM     18  C   UNL     1       5.600  -5.600  -1.129  0.00  0.00    +0.162 A 
ATOM     19  C   UNL     1       4.425  -5.939  -0.485  0.00  0.00    +0.062 A 
BRANCH  18  20
ATOM     20  O   UNL     1       6.450  -6.575  -1.550  0.00  0.00    -0.491 OA
ATOM     21  C   UNL     1       6.062  -7.927  -1.298  0.00  0.00    +0.277 C 
ENDBRANCH  18  20
BRANCH  17  22
ATOM     22  O   UNL     1       7.074  -3.928  -1.971  0.00  0.00    -0.431 OA
BRANCH  22  23
ATOM     23  C   UNL     1       7.335  -2.536  -2.157  0.00  0.00    +0.541 C 
ATOM     24  F   UNL     1       6.313  -1.969  -2.927  0.00  0.00    -0.166 F 
ATOM     25  F   UNL     1       7.388  -1.900  -0.912  0.00  0.00    -0.166 F 
ENDBRANCH  22  23
ENDBRANCH  17  22
ENDBRANCH  12  14
ENDBRANCH  10  12
BRANCH   1  26
ATOM     26  C   UNL     1      -0.648  -2.345   1.794  0.00  0.00    +0.106 C 
BRANCH  26  27
ATOM     27  C   UNL     1      -1.374  -2.131   0.464  0.00  0.00    -0.057 C 
BRANCH  27  28
ATOM     28  N   UNL     1      -1.414  -0.696   0.154  0.00  0.00    +0.380 N 
ATOM     29  H   UNL     1      -1.831  -0.197   0.925  0.00  0.00    -0.082 HD
BRANCH  28  31
ATOM     30  C   UNL     1      -0.075   1.315  -0.248  0.00  0.00    -0.017 C 
ATOM     31  C   UNL     1      -0.047  -0.204  -0.065  0.00  0.00    -0.082 C 
ENDBRANCH  28  31
BRANCH  28  32
ATOM     32  C   UNL     1      -2.213  -0.480  -1.059  0.00  0.00    -0.082 C 
ATOM     33  C   UNL     1      -3.670  -0.859  -0.785  0.00  0.00    -0.017 C 
ENDBRANCH  28  32
ENDBRANCH  27  28
ENDBRANCH  26  27
ENDBRANCH   1  26
TORSDOF 10
