REMARK  Name = ZINC47959120
REMARK  7 active torsions:
REMARK  status: ('A' for Active; 'I' for Inactive)
REMARK    1  A    between atoms: C_1  and  C_2
REMARK    2  A    between atoms: C_2  and  O_3
REMARK    3  A    between atoms: O_3  and  C_4
REMARK    4  A    between atoms: C_9  and  N_12
REMARK    5  A    between atoms: N_15  and  C_16
REMARK    6  A    between atoms: C_16  and  C_17
REMARK    7  A    between atoms: C_17  and  N_22
REMARK                            x       y       z     vdW  Elec       q    Type
REMARK                         _______ _______ _______ _____ _____    ______ ____
ROOT
ATOM      1  N   UNL     1      -6.159  -3.642   2.195  0.00  0.00    -0.296 N 
ATOM      2  C   UNL     1      -6.888  -4.770   2.084  0.00  0.00    +0.300 C 
ATOM      3  O   UNL     1      -6.813  -5.446   1.076  0.00  0.00    -0.253 OA
ATOM      4  N   UNL     1      -7.702  -5.149   3.090  0.00  0.00    -0.301 N 
ATOM      5  H   UNL     1      -6.219  -3.103   2.999  0.00  0.00    +0.151 HD
ATOM      6  H   UNL     1      -7.762  -4.609   3.894  0.00  0.00    +0.150 HD
ENDROOT
BRANCH   1  12
ATOM      7  C   UNL     1      -1.724  -1.460   0.040  0.00  0.00    +0.403 C 
ATOM      8  O   UNL     1      -0.705  -2.121   0.070  0.00  0.00    -0.226 OA
ATOM      9  N   UNL     1      -2.925  -2.071   0.037  0.00  0.00    -0.267 N 
ATOM     10  C   UNL     1      -4.165  -1.285  -0.004  0.00  0.00    +0.113 C 
ATOM     11  C   UNL     1      -5.062  -1.716   1.161  0.00  0.00    +0.041 C 
ATOM     12  C   UNL     1      -5.275  -3.231   1.102  0.00  0.00    +0.077 C 
ATOM     13  C   UNL     1      -3.928  -3.943   1.240  0.00  0.00    +0.041 C 
ATOM     14  C   UNL     1      -3.018  -3.537   0.070  0.00  0.00    +0.113 C 
BRANCH   7  15
ATOM     15  O   UNL     1      -1.653  -0.116   0.010  0.00  0.00    -0.451 OA
BRANCH  15  17
ATOM     16  C   UNL     1      -0.468   1.990  -0.021  0.00  0.00    +0.048 C 
ATOM     17  C   UNL     1      -0.347   0.466   0.015  0.00  0.00    +0.230 C 
ENDBRANCH  15  17
ENDBRANCH   7  15
ENDBRANCH   1  12
BRANCH   4  18
ATOM     18  C   UNL     1      -8.494  -6.374   2.969  0.00  0.00    +0.094 C 
BRANCH  18  19
ATOM     19  C   UNL     1      -9.230  -6.638   4.285  0.00  0.00    -0.050 C 
ATOM     20  C   UNL     1      -8.213  -6.843   5.426  0.00  0.00    -0.010 C 
ATOM     21  C   UNL     1      -8.851  -7.945   6.309  0.00  0.00    -0.001 C 
ATOM     22  C   UNL     1      -9.494  -8.890   5.265  0.00  0.00    -0.001 C 
ATOM     23  C   UNL     1     -10.044  -7.939   4.182  0.00  0.00    -0.010 C 
BRANCH  19  24
ATOM     24  N   UNL     1     -10.119  -5.511   4.598  0.00  0.00    +0.386 N 
ATOM     25  C   UNL     1     -10.674  -5.697   5.940  0.00  0.00    -0.067 C 
ATOM     26  C   UNL     1     -11.293  -4.384   6.434  0.00  0.00    +0.050 C 
ATOM     27  S   UNL     1     -12.657  -3.939   5.314  0.00  0.00    -0.164 S 
ATOM     28  C   UNL     1     -11.886  -4.084   3.671  0.00  0.00    +0.050 C 
ATOM     29  C   UNL     1     -11.179  -5.442   3.591  0.00  0.00    -0.067 C 
ATOM     30  H   UNL     1      -9.586  -4.654   4.577  0.00  0.00    -0.081 HD
ENDBRANCH  19  24
ENDBRANCH  18  19
ENDBRANCH   4  18
TORSDOF 6
