REMARK  Name = ZINC12369870
REMARK  5 active torsions:
REMARK  status: ('A' for Active; 'I' for Inactive)
REMARK    1  A    between atoms: C_4  and  O_7
REMARK    2  A    between atoms: O_7  and  C_8
REMARK    3  A    between atoms: C_8  and  C_9
REMARK    4  A    between atoms: C_12  and  O_24
REMARK    5  A    between atoms: N_15  and  C_16
REMARK                            x       y       z     vdW  Elec       q    Type
REMARK                         _______ _______ _______ _____ _____    ______ ____
ROOT
ATOM      1  C   UNL     1      -1.195   7.331   0.050  0.00  0.00    +0.150 A 
ATOM      2  N   UNL     1      -1.105   7.983   1.235  0.00  0.00    -0.312 N 
ATOM      3  H   UNL     1      -1.164   7.484   2.065  0.00  0.00    +0.170 HD
ATOM      4  C   UNL     1      -0.927   9.341   1.268  0.00  0.00    +0.195 A 
ATOM      5  C   UNL     1      -0.852  10.027   0.095  0.00  0.00    +0.113 A 
ATOM      6  C   UNL     1      -0.957   9.308  -1.119  0.00  0.00    +0.160 A 
ATOM      7  N   UNL     1      -0.888   9.946  -2.284  0.00  0.00    -0.228 NA
ATOM      8  N   UNL     1      -1.127   7.968  -1.085  0.00  0.00    -0.211 NA
ENDROOT
BRANCH   7   9
ATOM      9  C   UNL     1      -0.881   9.238  -3.451  0.00  0.00    +0.066 A 
ATOM     10  C   UNL     1       0.321   8.738  -3.962  0.00  0.00    +0.029 A 
ATOM     11  C   UNL     1       0.320   8.018  -5.138  0.00  0.00    +0.022 A 
ATOM     12  C   UNL     1      -0.867   7.799  -5.818  0.00  0.00    +0.041 A 
ATOM     13  C   UNL     1      -2.060   8.296  -5.321  0.00  0.00    +0.022 A 
ATOM     14  C   UNL     1      -2.075   9.012  -4.143  0.00  0.00    +0.029 A 
ATOM     15 CL   UNL     1      -0.857   6.898  -7.302  0.00  0.00    -0.084 Cl
ENDBRANCH   7   9
BRANCH   4  16
ATOM     16  O   UNL     1      -0.832   9.991   2.450  0.00  0.00    -0.493 OA
ATOM     17  H   UNL     1      -1.680  10.291   2.804  0.00  0.00    +0.294 HD
ENDBRANCH   4  16
BRANCH   1  18
ATOM     18  C   UNL     1      -1.385   5.836   0.044  0.00  0.00    +0.303 C 
BRANCH  18  19
ATOM     19  O   UNL     1      -0.109   5.193   0.028  0.00  0.00    -0.484 OA
BRANCH  19  23
ATOM     20  C   UNL     1      -0.089   1.068   0.005  0.00  0.00    +0.000 A 
ATOM     21  C   UNL     1      -1.290   1.752   0.015  0.00  0.00    +0.004 A 
ATOM     22  C   UNL     1      -1.300   3.134   0.029  0.00  0.00    +0.045 A 
ATOM     23  C   UNL     1      -0.102   3.834   0.021  0.00  0.00    +0.121 A 
ATOM     24  C   UNL     1       1.102   3.146   0.005  0.00  0.00    +0.045 A 
ATOM     25  C   UNL     1       1.106   1.764  -0.002  0.00  0.00    +0.004 A 
ENDBRANCH  19  23
ENDBRANCH  18  19
ENDBRANCH   1  18
TORSDOF 5
