REMARK  Name = ZINC39495185
REMARK  12 active torsions:
REMARK  status: ('A' for Active; 'I' for Inactive)
REMARK    1  A    between atoms: C_1  and  C_2
REMARK    2  A    between atoms: C_2  and  C_3
REMARK    3  A    between atoms: C_2  and  S_4
REMARK    4  A    between atoms: S_4  and  C_7
REMARK    5  A    between atoms: N_9  and  C_10
REMARK    6  A    between atoms: C_10  and  C_12
REMARK    7  A    between atoms: C_10  and  C_18
REMARK    8  A    between atoms: C_18  and  C_20
REMARK    9  A    between atoms: C_18  and  C_27
REMARK   10  A    between atoms: C_25  and  O_26
REMARK   11  A    between atoms: C_27  and  S_29
REMARK   12  A    between atoms: S_29  and  C_32
REMARK                            x       y       z     vdW  Elec       q    Type
REMARK                         _______ _______ _______ _____ _____    ______ ____
ROOT
ATOM      1  C   UNL     1      -1.628  -5.240  -2.157  0.00  0.00    +0.137 C 
ENDROOT
BRANCH   1   2
ATOM      2  C   UNL     1      -3.062  -4.892  -2.461  0.00  0.00    +0.008 A 
ATOM      3  C   UNL     1      -4.062  -5.247  -1.576  0.00  0.00    +0.008 A 
ATOM      4  C   UNL     1      -5.378  -4.928  -1.854  0.00  0.00    +0.001 A 
ATOM      5  C   UNL     1      -5.698  -4.253  -3.018  0.00  0.00    +0.004 A 
ATOM      6  C   UNL     1      -4.702  -3.896  -3.906  0.00  0.00    +0.046 A 
ATOM      7  C   UNL     1      -3.379  -4.210  -3.626  0.00  0.00    +0.121 A 
BRANCH   7   8
ATOM      8  O   UNL     1      -2.397  -3.854  -4.495  0.00  0.00    -0.506 OA
ATOM      9  H   UNL     1      -2.209  -4.520  -5.170  0.00  0.00    +0.292 HD
ENDBRANCH   7   8
ENDBRANCH   1   2
BRANCH   1  10
ATOM     10  C   UNL     1      -1.488  -6.736  -2.039  0.00  0.00    +0.282 C 
ATOM     11  O   UNL     1      -1.096  -7.226  -1.008  0.00  0.00    -0.271 OA
BRANCH  10  12
ATOM     12  S   UNL     1      -1.896  -7.769  -3.407  0.00  0.00    +0.059 S 
ATOM     13  O   UNL     1      -1.658  -7.003  -4.580  0.00  0.00    -0.162 OA
ATOM     14  O   UNL     1      -1.265  -9.020  -3.173  0.00  0.00    -0.162 OA
BRANCH  12  15
ATOM     15  C   UNL     1      -3.632  -8.060  -3.339  0.00  0.00    +0.097 A 
ATOM     16  C   UNL     1      -4.125  -9.141  -2.632  0.00  0.00    +0.027 A 
ATOM     17  C   UNL     1      -5.487  -9.370  -2.579  0.00  0.00    +0.002 A 
ATOM     18  C   UNL     1      -6.357  -8.518  -3.233  0.00  0.00    +0.000 A 
ATOM     19  C   UNL     1      -5.865  -7.436  -3.940  0.00  0.00    +0.002 A 
ATOM     20  C   UNL     1      -4.503  -7.205  -3.989  0.00  0.00    +0.027 A 
ENDBRANCH  12  15
ENDBRANCH  10  12
ENDBRANCH   1  10
BRANCH   1  21
ATOM     21  C   UNL     1      -1.212  -4.583  -0.839  0.00  0.00    +0.121 C 
BRANCH  21  22
ATOM     22  C   UNL     1       0.222  -4.931  -0.535  0.00  0.00    -0.026 A 
ATOM     23  C   UNL     1       1.247  -4.242  -1.155  0.00  0.00    +0.005 A 
ATOM     24  C   UNL     1       2.563  -4.561  -0.876  0.00  0.00    +0.000 A 
ATOM     25  C   UNL     1       2.854  -5.569   0.023  0.00  0.00    +0.000 A 
ATOM     26  C   UNL     1       1.829  -6.258   0.644  0.00  0.00    +0.000 A 
ATOM     27  C   UNL     1       0.513  -5.936   0.369  0.00  0.00    +0.005 A 
ENDBRANCH  21  22
BRANCH  21  30
ATOM     28  C   UNL     1      -1.536  -2.381   0.152  0.00  0.00    +0.352 C 
ATOM     29  O   UNL     1      -1.593  -2.912   1.242  0.00  0.00    -0.249 OA
ATOM     30  N   UNL     1      -1.348  -3.129  -0.953  0.00  0.00    -0.289 N 
ATOM     31  H   UNL     1      -1.303  -2.705  -1.824  0.00  0.00    +0.151 HD
BRANCH  28  32
ATOM     32  S   UNL     1      -1.700  -0.632   0.015  0.00  0.00    +0.050 S 
ATOM     33  O   UNL     1      -2.359  -0.234   1.209  0.00  0.00    -0.165 OA
ATOM     34  O   UNL     1      -2.308  -0.423  -1.252  0.00  0.00    -0.165 OA
BRANCH  32  36
ATOM     35  C   UNL     1      -0.019   1.526   0.010  0.00  0.00    +0.032 C 
ATOM     36  C   UNL     1       0.002  -0.004   0.002  0.00  0.00    +0.135 C 
ATOM     37  C   UNL     1       0.742  -0.511   1.242  0.00  0.00    +0.032 C 
ENDBRANCH  32  36
ENDBRANCH  28  32
ENDBRANCH  21  30
ENDBRANCH   1  21
TORSDOF 10
