REMARK  Name = ZINC58846070
REMARK  6 active torsions:
REMARK  status: ('A' for Active; 'I' for Inactive)
REMARK    1  A    between atoms: C_1  and  C_2
REMARK    2  A    between atoms: C_2  and  C_3
REMARK    3  A    between atoms: C_8  and  N_9
REMARK    4  A    between atoms: N_9  and  S_10
REMARK    5  A    between atoms: S_10  and  C_13
REMARK    6  A    between atoms: C_26  and  C_29
REMARK                            x       y       z     vdW  Elec       q    Type
REMARK                         _______ _______ _______ _____ _____    ______ ____
ROOT
ATOM      1  C   UNL     1       4.371   1.945  -2.660  0.00  0.00    +0.109 A 
ATOM      2  C   UNL     1       4.189   2.538  -3.897  0.00  0.00    +0.030 A 
ATOM      3  C   UNL     1       4.024   3.905  -3.983  0.00  0.00    +0.025 A 
ATOM      4  C   UNL     1       4.037   4.684  -2.831  0.00  0.00    +0.031 A 
ATOM      5  C   UNL     1       4.206   4.090  -1.590  0.00  0.00    -0.018 A 
ATOM      6  C   UNL     1       4.374   2.715  -1.515  0.00  0.00    +0.034 A 
ATOM      7  C   UNL     1       4.186   4.887  -0.329  0.00  0.00    +0.049 C 
ATOM      8  C   UNL     1       5.568   5.090   0.236  0.00  0.00    -0.023 C 
ATOM      9  C   UNL     1       5.667   6.278   0.777  0.00  0.00    -0.030 C 
ATOM     10  C   UNL     1       4.367   7.041   0.645  0.00  0.00    +0.033 C 
ATOM     11  C   UNL     1       3.613   6.295  -0.479  0.00  0.00    +0.029 C 
ATOM     12  C   UNL     1       3.956   6.957  -1.798  0.00  0.00    +0.106 C 
ATOM     13  N   UNL     1       3.888   6.062  -2.935  0.00  0.00    -0.336 N 
ATOM     14  H   UNL     1       3.755   6.445  -3.816  0.00  0.00    +0.147 HD
ENDROOT
BRANCH  12  15
ATOM     15  C   UNL     1       5.341   7.541  -1.695  0.00  0.00    -0.009 A 
ATOM     16  C   UNL     1       6.446   6.747  -1.938  0.00  0.00    +0.007 A 
ATOM     17  C   UNL     1       7.717   7.283  -1.844  0.00  0.00    +0.000 A 
ATOM     18  C   UNL     1       7.883   8.613  -1.505  0.00  0.00    +0.001 A 
ATOM     19  C   UNL     1       6.779   9.408  -1.262  0.00  0.00    +0.020 A 
ATOM     20  C   UNL     1       5.507   8.873  -1.362  0.00  0.00    +0.046 A 
ATOM     21 CL   UNL     1       4.119   9.873  -1.062  0.00  0.00    -0.083 Cl
ENDBRANCH  12  15
BRANCH   1  22
ATOM     22  S   UNL     1       4.591   0.200  -2.546  0.00  0.00    +0.072 S 
ATOM     23  O   UNL     1       5.280  -0.043  -1.328  0.00  0.00    -0.150 OA
ATOM     24  O   UNL     1       5.094  -0.228  -3.804  0.00  0.00    -0.150 OA
BRANCH  22  25
ATOM     25  N   UNL     1       3.088  -0.474  -2.383  0.00  0.00    -0.216 N 
ATOM     26  H   UNL     1       2.874  -0.998  -1.595  0.00  0.00    +0.174 HD
BRANCH  25  32
ATOM     27  C   UNL     1       0.787  -0.157  -3.038  0.00  0.00    -0.025 A 
ATOM     28  C   UNL     1      -0.160   0.033  -4.025  0.00  0.00    +0.005 A 
ATOM     29  C   UNL     1       0.224   0.087  -5.353  0.00  0.00    +0.000 A 
ATOM     30  C   UNL     1       1.556  -0.048  -5.696  0.00  0.00    +0.002 A 
ATOM     31  C   UNL     1       2.509  -0.237  -4.714  0.00  0.00    +0.025 A 
ATOM     32  C   UNL     1       2.127  -0.287  -3.379  0.00  0.00    +0.051 A 
BRANCH  27  34
ATOM     33  C   UNL     1       0.511   1.170  -0.962  0.00  0.00    +0.009 C 
ATOM     34  C   UNL     1       0.367  -0.217  -1.592  0.00  0.00    +0.033 C 
ENDBRANCH  27  34
ENDBRANCH  25  32
ENDBRANCH  22  25
ENDBRANCH   1  22
TORSDOF 5
