REMARK  Name = ZINC13346534
REMARK  5 active torsions:
REMARK  status: ('A' for Active; 'I' for Inactive)
REMARK    1  A    between atoms: C_8  and  C_12
REMARK    2  A    between atoms: C_14  and  C_17
REMARK    3  A    between atoms: C_20  and  N_23
REMARK    4  A    between atoms: N_23  and  S_24
REMARK    5  A    between atoms: S_24  and  C_27
REMARK                            x       y       z     vdW  Elec       q    Type
REMARK                         _______ _______ _______ _____ _____    ______ ____
ROOT
ATOM      1  C   UNL     1      -3.289   8.975  -0.597  0.00  0.00    +0.266 A 
ATOM      2  N   UNL     1      -2.981   7.780  -0.124  0.00  0.00    -0.187 NA
ATOM      3  C   UNL     1      -2.622   7.049  -1.200  0.00  0.00    +0.202 A 
ATOM      4  N   UNL     1      -2.736   7.819  -2.252  0.00  0.00    -0.056 NA
ATOM      5  O   UNL     1      -3.116   8.924  -1.928  0.00  0.00    -0.332 OA
ENDROOT
BRANCH   1  13
ATOM      6  C   UNL     1      -5.193  14.709   0.516  0.00  0.00    +0.001 A 
ATOM      7  C   UNL     1      -5.313  14.570   1.892  0.00  0.00    +0.004 A 
ATOM      8  C   UNL     1      -5.015  13.371   2.506  0.00  0.00    +0.047 A 
ATOM      9  C   UNL     1      -4.590  12.288   1.745  0.00  0.00    +0.139 A 
ATOM     10  C   UNL     1      -4.469  12.431   0.351  0.00  0.00    +0.018 A 
ATOM     11  C   UNL     1      -4.778  13.659  -0.252  0.00  0.00    +0.011 A 
ATOM     12  C   UNL     1      -4.031  11.338  -0.440  0.00  0.00    +0.032 A 
ATOM     13  C   UNL     1      -3.741  10.139   0.185  0.00  0.00    +0.124 A 
ATOM     14  C   UNL     1      -3.886  10.049   1.643  0.00  0.00    +0.350 A 
ATOM     15  O   UNL     1      -3.631   9.005   2.215  0.00  0.00    -0.244 OA
ATOM     16  O   UNL     1      -4.299  11.115   2.348  0.00  0.00    -0.422 OA
ENDBRANCH   1  13
BRANCH   3  17
ATOM     17  C   UNL     1      -2.185   5.631  -1.192  0.00  0.00    +0.023 A 
ATOM     18  C   UNL     1      -1.849   4.998  -2.388  0.00  0.00    +0.013 A 
ATOM     19  C   UNL     1      -1.443   3.681  -2.378  0.00  0.00    +0.025 A 
ATOM     20  C   UNL     1      -1.369   2.983  -1.177  0.00  0.00    +0.048 A 
ATOM     21  C   UNL     1      -1.710   3.612   0.015  0.00  0.00    +0.025 A 
ATOM     22  C   UNL     1      -2.111   4.930   0.011  0.00  0.00    +0.013 A 
BRANCH  20  23
ATOM     23  N   UNL     1      -0.959   1.651  -1.170  0.00  0.00    -0.216 N 
ATOM     24  H   UNL     1      -1.610   0.943  -1.046  0.00  0.00    +0.174 HD
BRANCH  23  25
ATOM     25  S   UNL     1       0.642   1.277  -1.373  0.00  0.00    +0.079 S 
ATOM     26  O   UNL     1       0.746  -0.136  -1.261  0.00  0.00    -0.149 OA
ATOM     27  O   UNL     1       1.081   1.984  -2.525  0.00  0.00    -0.149 OA
BRANCH  25  28
ATOM     28  C   UNL     1       1.514   1.957  -0.001  0.00  0.00    +0.146 A 
ATOM     29  C   UNL     1       1.715   1.427   1.230  0.00  0.00    +0.036 A 
ATOM     30  C   UNL     1       2.440   2.148   2.160  0.00  0.00    +0.010 A 
ATOM     31  C   UNL     1       2.929   3.364   1.813  0.00  0.00    +0.047 A 
ATOM     32  S   UNL     1       2.369   3.519   0.125  0.00  0.00    -0.077 S 
ENDBRANCH  25  28
ENDBRANCH  23  25
ENDBRANCH  20  23
ENDBRANCH   3  17
TORSDOF 5
