REMARK  Name = ZINC64385112
REMARK  4 active torsions:
REMARK  status: ('A' for Active; 'I' for Inactive)
REMARK    1  A    between atoms: C_9  and  N_10
REMARK    2  A    between atoms: C_11  and  C_13
REMARK    3  A    between atoms: N_15  and  N_16
REMARK    4  A    between atoms: N_16  and  C_17
REMARK                            x       y       z     vdW  Elec       q    Type
REMARK                         _______ _______ _______ _____ _____    ______ ____
ROOT
ATOM      1  C   UNL     1       5.684  -0.301   3.070  0.00  0.00    +0.315 C 
ATOM      2  O   UNL     1       5.318  -1.184   3.817  0.00  0.00    -0.264 OA
ATOM      3  N   UNL     1       6.627   0.574   3.473  0.00  0.00    -0.229 N 
ATOM      4  H   UNL     1       6.920   1.280   2.876  0.00  0.00    +0.173 HD
ENDROOT
BRANCH   1   6
ATOM      5  N   UNL     1       4.147  -1.058   1.302  0.00  0.00    -0.301 N 
ATOM      6  C   UNL     1       5.090  -0.183   1.704  0.00  0.00    +0.301 C 
ATOM      7  O   UNL     1       5.456   0.701   0.957  0.00  0.00    -0.265 OA
ATOM      8  H   UNL     1       3.854  -1.764   1.899  0.00  0.00    +0.150 HD
BRANCH   5  17
ATOM      9  C   UNL     1      -0.017   1.377   0.010  0.00  0.00    +0.000 A 
ATOM     10  C   UNL     1       1.172   2.083   0.002  0.00  0.00    +0.000 A 
ATOM     11  C   UNL     1       2.376   1.406  -0.013  0.00  0.00    +0.006 A 
ATOM     12  C   UNL     1       2.396   0.021  -0.021  0.00  0.00    -0.024 A 
ATOM     13  C   UNL     1       1.208  -0.685  -0.013  0.00  0.00    -0.042 A 
ATOM     14  C   UNL     1       0.002  -0.004   0.002  0.00  0.00    +0.004 A 
ATOM     15  C   UNL     1       1.496  -2.171  -0.025  0.00  0.00    +0.037 C 
ATOM     16  C   UNL     1       2.966  -2.294  -0.480  0.00  0.00    +0.032 C 
ATOM     17  C   UNL     1       3.564  -0.942  -0.037  0.00  0.00    +0.104 C 
ENDBRANCH   5  17
ENDBRANCH   1   6
BRANCH   3  18
ATOM     18  N   UNL     1       7.184   0.463   4.753  0.00  0.00    -0.263 N 
ATOM     19  H   UNL     1       6.892  -0.243   5.350  0.00  0.00    +0.170 HD
BRANCH  18  20
ATOM     20  C   UNL     1       8.163   1.371   5.171  0.00  0.00    +0.063 A 
ATOM     21  C   UNL     1       8.579   2.386   4.319  0.00  0.00    +0.027 A 
ATOM     22  C   UNL     1       9.545   3.281   4.734  0.00  0.00    +0.022 A 
ATOM     23  C   UNL     1      10.100   3.168   5.997  0.00  0.00    +0.042 A 
ATOM     24  C   UNL     1       9.688   2.158   6.848  0.00  0.00    +0.042 A 
ATOM     25  C   UNL     1       8.716   1.262   6.441  0.00  0.00    +0.065 A 
ATOM     26 CL   UNL     1       8.194   0.000   7.512  0.00  0.00    -0.082 Cl
ATOM     27 CL   UNL     1      11.315   4.294   6.514  0.00  0.00    -0.083 Cl
ENDBRANCH  18  20
ENDBRANCH   3  18
TORSDOF 4
