REMARK  Name = ZINC11561425
REMARK  6 active torsions:
REMARK  status: ('A' for Active; 'I' for Inactive)
REMARK    1  A    between atoms: C_1  and  C_2
REMARK    2  A    between atoms: C_5  and  C_7
REMARK    3  A    between atoms: C_9  and  C_23
REMARK    4  A    between atoms: C_10  and  C_22
REMARK    5  A    between atoms: N_11  and  C_15
REMARK    6  A    between atoms: C_28  and  C_31
REMARK                            x       y       z     vdW  Elec       q    Type
REMARK                         _______ _______ _______ _____ _____    ______ ____
ROOT
ATOM      1  C   UNL     1       2.287   4.115  -0.005  0.00  0.00    +0.146 C 
ATOM      2  C   UNL     1       1.955   4.667   1.366  0.00  0.00    +0.057 C 
ATOM      3  C   UNL     1       1.785   6.002   1.482  0.00  0.00    +0.025 C 
ATOM      4  N   UNL     1       1.908   6.825   0.398  0.00  0.00    -0.255 N 
ATOM      5  C   UNL     1       2.199   6.390  -0.835  0.00  0.00    +0.142 C 
ATOM      6  S   UNL     1       2.325   7.530  -2.107  0.00  0.00    -0.018 S 
ATOM      7  N   UNL     1       2.397   5.085  -1.107  0.00  0.00    -0.314 N 
ATOM      8  C   UNL     1       1.454   6.593   2.828  0.00  0.00    +0.062 C 
ATOM      9  H   UNL     1       2.607   4.792  -2.008  0.00  0.00    +0.149 HD
ENDROOT
BRANCH   2  10
ATOM     10  C   UNL     1       1.828   3.813   2.489  0.00  0.00    +0.249 C 
ATOM     11  O   UNL     1       2.821   3.449   3.091  0.00  0.00    -0.270 OA
ATOM     12  N   UNL     1       0.608   3.404   2.890  0.00  0.00    -0.264 N 
ATOM     13  C   UNL     1       0.477   2.630   4.042  0.00  0.00    +0.168 A 
ATOM     14  C   UNL     1       1.521   2.191   4.898  0.00  0.00    +0.091 A 
ATOM     15  C   UNL     1       0.881   1.484   5.857  0.00  0.00    +0.136 A 
ATOM     16  O   UNL     1      -0.425   1.526   5.557  0.00  0.00    -0.358 OA
ATOM     17  N   UNL     1      -0.634   2.168   4.554  0.00  0.00    -0.063 NA
ATOM     18  C   UNL     1       1.513   0.786   7.033  0.00  0.00    +0.089 C 
ATOM     19  H   UNL     1      -0.178   3.648   2.377  0.00  0.00    +0.157 HD
ENDBRANCH   2  10
BRANCH   4  20
ATOM     20  C   UNL     1       1.719   8.200   0.587  0.00  0.00    +0.040 A 
ATOM     21  C   UNL     1       0.524   8.797   0.207  0.00  0.00    +0.026 A 
ATOM     22  C   UNL     1       0.338  10.152   0.399  0.00  0.00    +0.040 A 
ATOM     23  C   UNL     1       1.347  10.918   0.960  0.00  0.00    +0.124 A 
ATOM     24  C   UNL     1       2.541  10.326   1.333  0.00  0.00    +0.040 A 
ATOM     25  C   UNL     1       2.729   8.970   1.149  0.00  0.00    +0.026 A 
ATOM     26  F   UNL     1       1.165  12.244   1.142  0.00  0.00    -0.205 F 
ENDBRANCH   4  20
BRANCH   1  31
ATOM     27  C   UNL     1      -2.285   1.146  -1.548  0.00  0.00    +0.051 C 
ATOM     28  C   UNL     1      -0.955   1.701  -1.106  0.00  0.00    -0.013 A 
ATOM     29  C   UNL     1       0.178   1.036  -0.771  0.00  0.00    +0.011 A 
ATOM     30  C   UNL     1       1.294   1.760  -0.398  0.00  0.00    +0.013 A 
ATOM     31  C   UNL     1       1.222   3.114  -0.373  0.00  0.00    +0.015 A 
ATOM     32  S   UNL     1      -0.464   3.403  -0.887  0.00  0.00    -0.096 S 
ENDBRANCH   1  31
TORSDOF 3
