REMARK  Name = ZINC39669681
REMARK  8 active torsions:
REMARK  status: ('A' for Active; 'I' for Inactive)
REMARK    1  A    between atoms: C_1  and  C_2
REMARK    2  A    between atoms: C_2  and  C_8
REMARK    3  A    between atoms: C_12  and  C_21
REMARK    4  A    between atoms: N_23  and  C_24
REMARK    5  A    between atoms: C_24  and  C_25
REMARK    6  A    between atoms: C_25  and  C_26
REMARK    7  A    between atoms: C_25  and  C_27
REMARK    8  A    between atoms: C_25  and  N_28
REMARK                            x       y       z     vdW  Elec       q    Type
REMARK                         _______ _______ _______ _____ _____    ______ ____
ROOT
ATOM      1  C   UNL     1      -1.053  -0.007  -0.169  0.00  0.00    +0.222 C 
ATOM      2  O   UNL     1       0.138   0.222  -0.185  0.00  0.00    -0.275 OA
ATOM      3  N   UNL     1      -1.824   0.361  -1.212  0.00  0.00    -0.300 N 
ATOM      4  C   UNL     1      -1.387   0.946  -2.502  0.00  0.00    +0.121 C 
ATOM      5  C   UNL     1      -2.292   0.275  -3.560  0.00  0.00    +0.100 C 
ATOM      6  C   UNL     1      -3.545  -0.163  -2.784  0.00  0.00    -0.004 C 
ATOM      7  C   UNL     1      -3.298   0.265  -1.330  0.00  0.00    +0.115 C 
ATOM      8  C   UNL     1      -4.782   0.536  -3.340  0.00  0.00    -0.010 C 
ATOM      9  C   UNL     1      -6.022   0.040  -2.591  0.00  0.00    -0.082 C 
ATOM     10  N   UNL     1      -6.144  -1.414  -2.751  0.00  0.00    +0.379 N 
ATOM     11  C   UNL     1      -4.995  -2.084  -2.132  0.00  0.00    -0.082 C 
ATOM     12  C   UNL     1      -3.711  -1.678  -2.861  0.00  0.00    -0.010 C 
ATOM     13  H   UNL     1      -6.994  -1.730  -2.308  0.00  0.00    -0.086 HD
ATOM     14  H   UNL     1      -6.175  -1.641  -3.734  0.00  0.00    -0.086 HD
ENDROOT
BRANCH   1  16
ATOM     15  C   UNL     1      -2.217  -2.064   0.581  0.00  0.00    +0.021 C 
ATOM     16  C   UNL     1      -1.671  -0.703   1.016  0.00  0.00    +0.044 C 
ATOM     17  C   UNL     1      -2.813   0.151   1.570  0.00  0.00    +0.016 C 
ATOM     18  C   UNL     1      -2.267   1.512   2.006  0.00  0.00    +0.001 C 
ATOM     19  C   UNL     1      -1.207   1.313   3.090  0.00  0.00    +0.000 C 
ATOM     20  C   UNL     1      -0.065   0.459   2.536  0.00  0.00    +0.001 C 
ATOM     21  C   UNL     1      -0.611  -0.902   2.101  0.00  0.00    +0.016 C 
ENDBRANCH   1  16
BRANCH   5  22
ATOM     22  C   UNL     1      -1.599  -0.920  -4.161  0.00  0.00    +0.218 C 
ATOM     23  O   UNL     1      -0.754  -1.515  -3.525  0.00  0.00    -0.275 OA
ATOM     24  N   UNL     1      -1.917  -1.329  -5.405  0.00  0.00    -0.313 N 
ATOM     25  H   UNL     1      -2.539  -0.812  -5.942  0.00  0.00    +0.149 HD
BRANCH  24  26
ATOM     26  C   UNL     1      -1.326  -2.554  -5.948  0.00  0.00    +0.126 C 
BRANCH  26  27
ATOM     27  C   UNL     1      -1.744  -2.719  -7.410  0.00  0.00    +0.032 C 
ATOM     28  C   UNL     1      -1.145  -1.583  -8.243  0.00  0.00    +0.029 C 
ATOM     29  C   UNL     1      -1.236  -4.062  -7.939  0.00  0.00    +0.029 C 
BRANCH  27  30
ATOM     30  N   UNL     1      -3.209  -2.677  -7.508  0.00  0.00    -0.291 NA
ATOM     31  C   UNL     1      -3.825  -3.669  -6.615  0.00  0.00    +0.113 C 
ATOM     32  C   UNL     1      -5.349  -3.550  -6.704  0.00  0.00    +0.175 C 
ATOM     33  O   UNL     1      -5.757  -3.719  -8.064  0.00  0.00    -0.377 OA
ATOM     34  C   UNL     1      -5.176  -2.769  -8.961  0.00  0.00    +0.175 C 
ATOM     35  C   UNL     1      -3.651  -2.880  -8.896  0.00  0.00    +0.113 C 
ENDBRANCH  27  30
ENDBRANCH  26  27
ENDBRANCH  24  26
ENDBRANCH   5  22
TORSDOF 5
