REMARK  Name = ZINC63557345
REMARK  8 active torsions:
REMARK  status: ('A' for Active; 'I' for Inactive)
REMARK    1  A    between atoms: C_1  and  C_2
REMARK    2  A    between atoms: C_2  and  O_3
REMARK    3  A    between atoms: O_3  and  C_4
REMARK    4  A    between atoms: C_11  and  N_14
REMARK    5  A    between atoms: C_15  and  C_17
REMARK    6  A    between atoms: N_22  and  C_24
REMARK    7  A    between atoms: C_24  and  C_25
REMARK    8  A    between atoms: C_25  and  C_26
REMARK                            x       y       z     vdW  Elec       q    Type
REMARK                         _______ _______ _______ _____ _____    ______ ____
ROOT
ATOM      1  C   UNL     1       0.585  -8.516  -6.039  0.00  0.00    +0.101 C 
ATOM      2  C   UNL     1      -0.474  -7.603  -6.700  0.00  0.00    +0.110 C 
ATOM      3  C   UNL     1      -0.618  -8.156  -8.101  0.00  0.00    +0.216 C 
ATOM      4  O   UNL     1      -1.537  -7.910  -8.853  0.00  0.00    -0.276 OA
ATOM      5  N   UNL     1       0.421  -8.958  -8.390  0.00  0.00    -0.300 N 
ATOM      6  C   UNL     1       1.364  -9.037  -7.268  0.00  0.00    +0.121 C 
ENDROOT
BRANCH   1   8
ATOM      7  N   UNL     1       0.977  -7.132  -4.027  0.00  0.00    -0.288 N 
ATOM      8  C   UNL     1       1.485  -7.724  -5.126  0.00  0.00    +0.220 C 
ATOM      9  O   UNL     1       2.666  -7.620  -5.379  0.00  0.00    -0.275 OA
ATOM     10  H   UNL     1       0.032  -7.215  -3.824  0.00  0.00    +0.151 HD
BRANCH   7  18
ATOM     11  C   UNL     1       0.777  -1.811  -1.336  0.00  0.00    +0.122 A 
ATOM     12  C   UNL     1       0.247  -2.679  -0.393  0.00  0.00    +0.047 A 
ATOM     13  C   UNL     1       0.349  -4.042  -0.548  0.00  0.00    +0.027 A 
ATOM     14  C   UNL     1       0.992  -4.604  -1.665  0.00  0.00    +0.043 A 
ATOM     15  C   UNL     1       1.516  -3.705  -2.599  0.00  0.00    +0.035 A 
ATOM     16  C   UNL     1       1.413  -2.340  -2.452  0.00  0.00    +0.062 A 
ATOM     17  S   UNL     1       2.248  -4.720  -3.862  0.00  0.00    -0.082 S 
ATOM     18  C   UNL     1       1.852  -6.362  -3.139  0.00  0.00    +0.224 C 
ATOM     19  N   UNL     1       1.146  -5.970  -1.911  0.00  0.00    -0.316 N 
ATOM     20  H   UNL     1       0.801  -6.635  -1.295  0.00  0.00    +0.149 HD
BRANCH  11  21
ATOM     21  O   UNL     1       0.671  -0.465  -1.174  0.00  0.00    -0.492 OA
BRANCH  21  23
ATOM     22  C   UNL     1      -0.019   1.526   0.010  0.00  0.00    +0.048 C 
ATOM     23  C   UNL     1       0.002  -0.004   0.002  0.00  0.00    +0.225 C 
ENDBRANCH  21  23
ENDBRANCH  11  21
ENDBRANCH   7  18
ENDBRANCH   1   8
BRANCH   5  24
ATOM     24  C   UNL     1       0.590  -9.664  -9.663  0.00  0.00    +0.112 C 
BRANCH  24  25
ATOM     25  C   UNL     1       1.374  -8.781 -10.636  0.00  0.00    +0.052 C 
BRANCH  25  26
ATOM     26  C   UNL     1       1.548  -9.507 -11.944  0.00  0.00    -0.040 C 
ATOM     27  C   UNL     1       0.771  -9.397 -13.045  0.00  0.00    +0.002 A 
ATOM     28  C   UNL     1      -0.425  -8.599 -13.341  0.00  0.00    +0.048 A 
ATOM     29  C   UNL     1      -0.998  -8.704 -14.564  0.00  0.00    +0.124 A 
ATOM     30  C   UNL     1      -0.478  -9.556 -15.551  0.00  0.00    +0.040 A 
ATOM     31  C   UNL     1       0.617 -10.319 -15.352  0.00  0.00    +0.029 A 
ATOM     32  C   UNL     1       1.299 -10.287 -14.104  0.00  0.00    +0.043 A 
ATOM     33  N   UNL     1       2.362 -10.922 -13.674  0.00  0.00    -0.380 N 
ATOM     34  C   UNL     1       2.633 -10.501 -12.295  0.00  0.00    +0.144 C 
ATOM     35  F   UNL     1      -2.099  -7.972 -14.840  0.00  0.00    -0.205 F 
ATOM     36  H   UNL     1       2.885 -11.560 -14.184  0.00  0.00    +0.160 HD
ENDBRANCH  25  26
ENDBRANCH  24  25
ENDBRANCH   5  24
TORSDOF 7
