REMARK  Name = ZINC67568155
REMARK  13 active torsions:
REMARK  status: ('A' for Active; 'I' for Inactive)
REMARK    1  A    between atoms: C_1  and  C_2
REMARK    2  A    between atoms: C_2  and  C_3
REMARK    3  A    between atoms: C_2  and  C_4
REMARK    4  A    between atoms: C_2  and  O_5
REMARK    5  A    between atoms: O_5  and  C_6
REMARK    6  A    between atoms: N_8  and  C_9
REMARK    7  A    between atoms: N_8  and  C_26
REMARK    8  A    between atoms: C_9  and  C_10
REMARK    9  A    between atoms: C_10  and  N_11
REMARK   10  A    between atoms: C_12  and  C_14
REMARK   11  A    between atoms: N_16  and  C_17
REMARK   12  A    between atoms: N_16  and  C_20
REMARK   13  A    between atoms: C_17  and  C_18
REMARK                            x       y       z     vdW  Elec       q    Type
REMARK                         _______ _______ _______ _____ _____    ______ ____
ROOT
ATOM      1  N   UNL     1       6.369  -0.768  -2.542  0.00  0.00    -0.306 N 
ATOM      2  C   UNL     1       7.446  -1.376  -2.006  0.00  0.00    +0.300 C 
ATOM      3  O   UNL     1       7.332  -2.470  -1.494  0.00  0.00    -0.265 OA
ATOM      4  H   UNL     1       6.460   0.106  -2.952  0.00  0.00    +0.149 HD
ENDROOT
BRANCH   2   5
ATOM      5  C   UNL     1       8.779  -0.704  -2.043  0.00  0.00    +0.306 C 
ATOM      6  O   UNL     1       8.914   0.342  -2.643  0.00  0.00    -0.265 OA
ATOM      7  N   UNL     1       9.831  -1.259  -1.410  0.00  0.00    -0.260 N 
BRANCH   7   8
ATOM      8  C   UNL     1      11.101  -0.691  -1.536  0.00  0.00    +0.037 A 
ATOM      9  C   UNL     1      12.212  -1.344  -1.016  0.00  0.00    +0.023 A 
ATOM     10  C   UNL     1      13.465  -0.780  -1.143  0.00  0.00    +0.002 A 
ATOM     11  C   UNL     1      13.617   0.435  -1.786  0.00  0.00    +0.000 A 
ATOM     12  C   UNL     1      12.514   1.089  -2.305  0.00  0.00    +0.002 A 
ATOM     13  C   UNL     1      11.258   0.527  -2.188  0.00  0.00    +0.023 A 
ENDBRANCH   7   8
BRANCH   7  14
ATOM     14  C   UNL     1       9.644  -2.458  -0.590  0.00  0.00    +0.141 C 
BRANCH  14  15
ATOM     15  C   UNL     1       9.700  -3.682  -1.469  0.00  0.00    -0.015 C 
ATOM     16  C   UNL     1      10.546  -4.644  -1.198  0.00  0.00    +0.005 C 
ENDBRANCH  14  15
ENDBRANCH   7  14
ENDBRANCH   2   5
BRANCH   1  17
ATOM     17  C   UNL     1       5.061  -1.428  -2.506  0.00  0.00    +0.123 C 
BRANCH  17  18
ATOM     18  C   UNL     1       4.019  -0.531  -3.176  0.00  0.00    +0.130 C 
BRANCH  18  21
ATOM     19  C   UNL     1       1.884  -0.989  -2.095  0.00  0.00    +0.404 C 
ATOM     20  O   UNL     1       2.257  -0.335  -1.142  0.00  0.00    -0.226 OA
ATOM     21  N   UNL     1       2.711  -1.190  -3.140  0.00  0.00    -0.263 N 
BRANCH  21  22
ATOM     22  C   UNL     1       2.303  -2.069  -4.239  0.00  0.00    +0.079 C 
ATOM     23  C   UNL     1       3.381  -2.500  -5.236  0.00  0.00    +0.024 C 
ATOM     24  C   UNL     1       2.315  -1.484  -5.652  0.00  0.00    +0.024 C 
ENDBRANCH  21  22
BRANCH  19  25
ATOM     25  O   UNL     1       0.643  -1.512  -2.109  0.00  0.00    -0.445 OA
BRANCH  25  27
ATOM     26  C   UNL     1      -0.372   0.251  -0.803  0.00  0.00    +0.055 C 
ATOM     27  C   UNL     1      -0.180  -1.258  -0.969  0.00  0.00    +0.107 C 
ATOM     28  C   UNL     1       0.492  -1.827   0.282  0.00  0.00    +0.055 C 
ATOM     29  C   UNL     1      -1.542  -1.927  -1.165  0.00  0.00    +0.055 C 
ENDBRANCH  25  27
ENDBRANCH  19  25
ENDBRANCH  18  21
ENDBRANCH  17  18
ENDBRANCH   1  17
TORSDOF 10
