REMARK  Name = ZINC65731407
REMARK  10 active torsions:
REMARK  status: ('A' for Active; 'I' for Inactive)
REMARK    1  A    between atoms: C_1  and  C_2
REMARK    2  A    between atoms: C_2  and  C_4
REMARK    3  A    between atoms: C_2  and  C_12
REMARK    4  A    between atoms: C_5  and  C_6
REMARK    5  A    between atoms: C_6  and  C_8
REMARK    6  A    between atoms: C_6  and  O_11
REMARK    7  A    between atoms: C_18  and  C_36
REMARK    8  A    between atoms: C_23  and  C_24
REMARK    9  A    between atoms: C_27  and  O_35
REMARK   10  A    between atoms: C_30  and  O_34
REMARK                            x       y       z     vdW  Elec       q    Type
REMARK                         _______ _______ _______ _____ _____    ______ ____
ROOT
ATOM      1  C   UNL     1       0.858  -0.309  -1.327  0.00  0.00    +0.002 C 
ATOM      2  C   UNL     1       2.348   0.055  -1.189  0.00  0.00    +0.005 C 
ATOM      3  C   UNL     1       3.129  -1.278  -1.177  0.00  0.00    +0.009 C 
ATOM      4  C   UNL     1       2.083  -2.310  -0.713  0.00  0.00    +0.021 C 
ATOM      5  C   UNL     1       0.791  -1.854  -1.425  0.00  0.00    -0.022 C 
ATOM      6  C   UNL     1       0.844  -2.217  -2.909  0.00  0.00    +0.008 C 
ATOM      7  C   UNL     1       1.027  -3.720  -3.101  0.00  0.00    +0.005 C 
ATOM      8  C   UNL     1       2.409  -4.117  -2.565  0.00  0.00    +0.031 C 
ATOM      9  C   UNL     1       2.478  -3.701  -1.099  0.00  0.00    -0.066 C 
ATOM     10  C   UNL     1       2.873  -4.565  -0.164  0.00  0.00    -0.000 C 
ATOM     11  C   UNL     1      -0.457  -2.409  -0.737  0.00  0.00    +0.012 C 
ENDROOT
BRANCH  10  12
ATOM     12  C   UNL     1       3.381  -5.883  -0.553  0.00  0.00    +0.004 C 
ATOM     13  C   UNL     1       3.676  -6.798   0.394  0.00  0.00    -0.040 C 
ATOM     14  C   UNL     1       3.491  -6.503   1.869  0.00  0.00    +0.067 C 
ATOM     15  C   UNL     1       2.776  -7.694   2.514  0.00  0.00    +0.122 C 
ATOM     16  C   UNL     1       3.589  -8.970   2.288  0.00  0.00    +0.067 C 
ATOM     17  C   UNL     1       3.612  -9.314   0.796  0.00  0.00    +0.147 C 
ATOM     18  C   UNL     1       4.190  -8.138   0.042  0.00  0.00    -0.023 C 
ATOM     19  C   UNL     1       5.123  -8.305  -0.895  0.00  0.00    +0.015 C 
BRANCH  17  20
ATOM     20  O   UNL     1       4.421 -10.472   0.581  0.00  0.00    -0.387 OA
ATOM     21  H   UNL     1       4.479 -10.746  -0.344  0.00  0.00    +0.210 HD
ENDBRANCH  17  20
BRANCH  15  22
ATOM     22  O   UNL     1       2.637  -7.463   3.917  0.00  0.00    -0.391 OA
ATOM     23  H   UNL     1       2.127  -6.671   4.136  0.00  0.00    +0.210 HD
ENDBRANCH  15  22
ENDBRANCH  10  12
BRANCH   1  25
ATOM     24  C   UNL     1       0.787  -0.312   1.170  0.00  0.00    +0.012 C 
ATOM     25  C   UNL     1       0.084   0.173  -0.099  0.00  0.00    +0.012 C 
BRANCH  25  26
ATOM     26  C   UNL     1       0.030   1.679  -0.099  0.00  0.00    -0.025 C 
ATOM     27  C   UNL     1      -1.125   2.293  -0.032  0.00  0.00    +0.000 C 
BRANCH  27  28
ATOM     28  C   UNL     1      -1.175   3.795   0.081  0.00  0.00    +0.140 C 
BRANCH  28  29
ATOM     29  C   UNL     1      -2.039   4.364  -1.046  0.00  0.00    +0.022 C 
ATOM     30  C   UNL     1      -1.334   5.174  -2.136  0.00  0.00    +0.007 C 
ATOM     31  C   UNL     1      -2.214   5.883  -1.104  0.00  0.00    +0.007 C 
ENDBRANCH  28  29
BRANCH  28  32
ATOM     32  O   UNL     1       0.149   4.324  -0.020  0.00  0.00    -0.387 OA
ATOM     33  H   UNL     1       0.593   4.116  -0.853  0.00  0.00    +0.210 HD
ENDBRANCH  28  32
ENDBRANCH  27  28
ENDBRANCH  25  26
ENDBRANCH   1  25
TORSDOF 8
