REMARK  Name = ZINC36588588
REMARK  13 active torsions:
REMARK  status: ('A' for Active; 'I' for Inactive)
REMARK    1  A    between atoms: C_1  and  C_2
REMARK    2  A    between atoms: C_2  and  C_3
REMARK    3  A    between atoms: C_2  and  C_4
REMARK    4  A    between atoms: C_2  and  N_5
REMARK    5  A    between atoms: C_6  and  C_8
REMARK    6  A    between atoms: C_8  and  C_10
REMARK    7  A    between atoms: C_8  and  N_19
REMARK    8  A    between atoms: N_19  and  C_32
REMARK    9  A    between atoms: C_20  and  C_22
REMARK   10  A    between atoms: C_22  and  C_23
REMARK   11  A    between atoms: C_32  and  C_33
REMARK   12  A    between atoms: C_32  and  C_34
REMARK   13  A    between atoms: C_32  and  C_35
REMARK                            x       y       z     vdW  Elec       q    Type
REMARK                         _______ _______ _______ _____ _____    ______ ____
ROOT
ATOM      1  C   UNL     1       2.777  -1.902  -1.564  0.00  0.00    +0.193 C 
ENDROOT
BRANCH   1   2
ATOM      2  C   UNL     1       2.050  -1.052  -0.555  0.00  0.00    -0.015 A 
ATOM      3  C   UNL     1       1.790   0.278  -0.833  0.00  0.00    +0.010 A 
ATOM      4  C   UNL     1       1.122   1.062   0.090  0.00  0.00    +0.050 A 
ATOM      5  C   UNL     1       0.713   0.517   1.296  0.00  0.00    +0.166 A 
ATOM      6  C   UNL     1       0.975  -0.822   1.575  0.00  0.00    +0.167 A 
ATOM      7  C   UNL     1       1.639  -1.603   0.644  0.00  0.00    +0.055 A 
ATOM      8  O   UNL     1       0.477  -1.115   2.812  0.00  0.00    -0.453 OA
ATOM      9  C   UNL     1       0.270   0.157   3.455  0.00  0.00    +0.466 C 
ATOM     10  O   UNL     1       0.050   1.062   2.357  0.00  0.00    -0.453 OA
ENDBRANCH   1   2
BRANCH   1  12
ATOM     11  N   UNL     1       0.767  -3.310  -1.871  0.00  0.00    -0.309 N 
ATOM     12  C   UNL     1       1.776  -2.616  -2.434  0.00  0.00    +0.239 C 
ATOM     13  O   UNL     1       1.877  -2.567  -3.642  0.00  0.00    -0.273 OA
ATOM     14  H   UNL     1       0.685  -3.349  -0.905  0.00  0.00    +0.149 HD
BRANCH  11  16
ATOM     15  C   UNL     1       0.515  -5.039  -3.582  0.00  0.00    +0.031 C 
ATOM     16  C   UNL     1      -0.207  -4.004  -2.717  0.00  0.00    +0.026 C 
ATOM     17  C   UNL     1      -0.914  -2.990  -3.619  0.00  0.00    +0.031 C 
ATOM     18  C   UNL     1      -1.239  -4.708  -1.834  0.00  0.00    +0.031 C 
ENDBRANCH  11  16
ENDBRANCH   1  12
BRANCH   1  19
ATOM     19  N   UNL     1       3.629  -1.050  -2.398  0.00  0.00    -0.281 N 
ATOM     20  C   UNL     1       3.072  -0.221  -3.303  0.00  0.00    +0.221 C 
ATOM     21  O   UNL     1       1.877  -0.260  -3.507  0.00  0.00    -0.275 OA
BRANCH  19  22
ATOM     22  C   UNL     1       5.085  -1.099  -2.248  0.00  0.00    +0.030 C 
ATOM     23  C   UNL     1       5.452  -2.109  -1.159  0.00  0.00    +0.031 C 
ATOM     24  C   UNL     1       5.720  -1.524  -3.573  0.00  0.00    +0.031 C 
ATOM     25  C   UNL     1       5.604   0.286  -1.855  0.00  0.00    +0.031 C 
ENDBRANCH  19  22
BRANCH  20  26
ATOM     26  C   UNL     1       3.934   0.755  -4.061  0.00  0.00    +0.131 C 
BRANCH  26  27
ATOM     27  C   UNL     1       3.111   1.428  -5.129  0.00  0.00    -0.035 A 
ATOM     28  C   UNL     1       3.027   0.869  -6.391  0.00  0.00    +0.008 A 
ATOM     29  C   UNL     1       2.273   1.482  -7.373  0.00  0.00    +0.050 A 
ATOM     30  C   UNL     1       1.599   2.661  -7.096  0.00  0.00    +0.166 A 
ATOM     31  C   UNL     1       1.684   3.224  -5.825  0.00  0.00    +0.166 A 
ATOM     32  C   UNL     1       2.437   2.601  -4.844  0.00  0.00    +0.053 A 
ATOM     33  O   UNL     1       0.941   4.369  -5.806  0.00  0.00    -0.453 OA
ATOM     34  C   UNL     1       0.733   4.717  -7.187  0.00  0.00    +0.466 C 
ATOM     35  O   UNL     1       0.803   3.452  -7.872  0.00  0.00    -0.453 OA
ENDBRANCH  26  27
ENDBRANCH  20  26
ENDBRANCH   1  19
TORSDOF 7
