REMARK  Name = ZINC03892783
REMARK  13 active torsions:
REMARK  status: ('A' for Active; 'I' for Inactive)
REMARK    1  A    between atoms: C_1  and  C_2
REMARK    2  A    between atoms: C_5  and  S_8
REMARK    3  A    between atoms: S_8  and  C_11
REMARK    4  A    between atoms: C_11  and  N_12
REMARK    5  A    between atoms: C_13  and  C_14
REMARK    6  A    between atoms: C_17  and  O_20
REMARK    7  A    between atoms: O_20  and  C_21
REMARK    8  A    between atoms: N_22  and  C_23
REMARK    9  A    between atoms: C_23  and  N_25
REMARK   10  A    between atoms: N_25  and  C_26
REMARK   11  A    between atoms: C_29  and  C_32
REMARK   12  A    between atoms: C_32  and  O_34
REMARK   13  A    between atoms: O_34  and  C_35
REMARK                            x       y       z     vdW  Elec       q    Type
REMARK                         _______ _______ _______ _____ _____    ______ ____
ROOT
ATOM      1  N   UNL     1       3.936  -4.357   0.770  0.00  0.00    -0.312 N 
ATOM      2  C   UNL     1       3.502  -5.169   1.783  0.00  0.00    +0.119 C 
ATOM      3  N   UNL     1       2.789  -6.247   1.506  0.00  0.00    -0.177 NA
ATOM      4  H   UNL     1       4.026  -4.709  -0.129  0.00  0.00    +0.149 HD
ENDROOT
BRANCH   2   5
ATOM      5  C   UNL     1       3.831  -4.842   3.182  0.00  0.00    +0.013 A 
ATOM      6  C   UNL     1       4.863  -3.943   3.469  0.00  0.00    +0.014 A 
ATOM      7  C   UNL     1       5.166  -3.640   4.777  0.00  0.00    +0.046 A 
ATOM      8  C   UNL     1       4.447  -4.226   5.813  0.00  0.00    +0.120 A 
ATOM      9  C   UNL     1       3.420  -5.120   5.533  0.00  0.00    +0.046 A 
ATOM     10  C   UNL     1       3.106  -5.424   4.227  0.00  0.00    +0.014 A 
BRANCH   8  11
ATOM     11  O   UNL     1       4.749  -3.924   7.101  0.00  0.00    -0.495 OA
ATOM     12  C   UNL     1       3.971  -4.562   8.116  0.00  0.00    +0.277 C 
ENDBRANCH   8  11
ENDBRANCH   2   5
BRANCH   3  13
ATOM     13  C   UNL     1       2.437  -6.511   0.239  0.00  0.00    +0.160 C 
ATOM     14  S   UNL     1       1.580  -5.342  -0.672  0.00  0.00    -0.016 S 
BRANCH  13  15
ATOM     15  N   UNL     1       2.757  -7.696  -0.316  0.00  0.00    -0.295 N 
ATOM     16  H   UNL     1       3.172  -8.388   0.222  0.00  0.00    +0.154 HD
BRANCH  15  17
ATOM     17  C   UNL     1       2.491  -7.928  -1.664  0.00  0.00    +0.033 A 
ATOM     18  C   UNL     1       2.712  -6.920  -2.598  0.00  0.00    +0.024 A 
ATOM     19  C   UNL     1       2.450  -7.146  -3.930  0.00  0.00    +0.017 A 
ATOM     20  C   UNL     1       1.963  -8.389  -4.345  0.00  0.00    +0.059 A 
ATOM     21  C   UNL     1       1.743  -9.399  -3.403  0.00  0.00    +0.017 A 
ATOM     22  C   UNL     1       2.012  -9.169  -2.073  0.00  0.00    +0.024 A 
BRANCH  20  23
ATOM     23  C   UNL     1       1.682  -8.635  -5.771  0.00  0.00    +0.339 C 
ATOM     24  O   UNL     1       1.873  -7.756  -6.588  0.00  0.00    -0.245 OA
BRANCH  23  25
ATOM     25  O   UNL     1       1.212  -9.834  -6.168  0.00  0.00    -0.464 OA
ATOM     26  C   UNL     1       0.961 -10.001  -7.565  0.00  0.00    +0.280 C 
ENDBRANCH  23  25
ENDBRANCH  20  23
ENDBRANCH  15  17
ENDBRANCH  13  15
ENDBRANCH   3  13
BRANCH   1  27
ATOM     27  C   UNL     1       4.265  -2.956   1.045  0.00  0.00    +0.276 C 
BRANCH  27  28
ATOM     28  S   UNL     1       6.029  -2.675   0.728  0.00  0.00    +0.013 S 
ATOM     29  O   UNL     1       6.798  -3.742   1.265  0.00  0.00    -0.168 OA
ATOM     30  O   UNL     1       6.368  -1.324   1.009  0.00  0.00    -0.168 OA
BRANCH  28  35
ATOM     31  C   UNL     1       6.635  -3.199  -5.252  0.00  0.00    +0.044 C 
ATOM     32  C   UNL     1       6.484  -3.068  -3.759  0.00  0.00    -0.050 A 
ATOM     33  C   UNL     1       6.204  -1.836  -3.198  0.00  0.00    +0.005 A 
ATOM     34  C   UNL     1       6.065  -1.716  -1.827  0.00  0.00    +0.027 A 
ATOM     35  C   UNL     1       6.205  -2.828  -1.019  0.00  0.00    +0.090 A 
ATOM     36  C   UNL     1       6.483  -4.061  -1.580  0.00  0.00    +0.027 A 
ATOM     37  C   UNL     1       6.618  -4.181  -2.950  0.00  0.00    +0.005 A 
ENDBRANCH  28  35
ENDBRANCH  27  28
ENDBRANCH   1  27
TORSDOF 10
