REMARK  Name = ZINC08801667
REMARK  10 active torsions:
REMARK  status: ('A' for Active; 'I' for Inactive)
REMARK    1  A    between atoms: C_1  and  C_2
REMARK    2  A    between atoms: C_2  and  C_3
REMARK    3  A    between atoms: N_5  and  C_6
REMARK    4  A    between atoms: C_9  and  S_12
REMARK    5  A    between atoms: S_12  and  N_15
REMARK    6  A    between atoms: N_15  and  C_16
REMARK    7  A    between atoms: C_16  and  C_17
REMARK    8  A    between atoms: C_17  and  C_19
REMARK    9  A    between atoms: C_17  and  N_67
REMARK   10  A    between atoms: N_27  and  C_28
REMARK                            x       y       z     vdW  Elec       q    Type
REMARK                         _______ _______ _______ _____ _____    ______ ____
ROOT
ATOM      1  C   UNL     1      -4.688   5.687  -0.405  0.00  0.00    +0.095 C 
ENDROOT
BRANCH   1   2
ATOM      2  N   UNL     1      -5.014   4.729  -1.464  0.00  0.00    -0.191 NA
ATOM      3  H   UNL     1      -4.353   4.507  -2.138  0.00  0.00    +0.148 HD
BRANCH   2   4
ATOM      4  S   UNL     1      -6.513   4.025  -1.511  0.00  0.00    +0.058 S 
ATOM      5  O   UNL     1      -6.528   3.179  -2.653  0.00  0.00    -0.153 OA
ATOM      6  O   UNL     1      -6.776   3.542  -0.201  0.00  0.00    -0.153 OA
BRANCH   4  10
ATOM      7  C   UNL     1      -9.516   7.320  -2.303  0.00  0.00    +0.033 A 
ATOM      8  C   UNL     1      -8.935   6.639  -3.365  0.00  0.00    +0.025 A 
ATOM      9  C   UNL     1      -8.019   5.635  -3.120  0.00  0.00    +0.030 A 
ATOM     10  C   UNL     1      -7.681   5.307  -1.819  0.00  0.00    +0.105 A 
ATOM     11  C   UNL     1      -8.262   5.980  -0.760  0.00  0.00    +0.030 A 
ATOM     12  C   UNL     1      -9.175   6.989  -0.999  0.00  0.00    +0.025 A 
BRANCH   7  15
ATOM     13  C   UNL     1     -11.273   8.255  -3.607  0.00  0.00    +0.217 C 
ATOM     14  O   UNL     1     -11.281   7.255  -4.293  0.00  0.00    -0.275 OA
ATOM     15  N   UNL     1     -10.444   8.339  -2.548  0.00  0.00    -0.286 N 
ATOM     16  H   UNL     1     -10.490   9.105  -1.955  0.00  0.00    +0.155 HD
BRANCH  13  18
ATOM     17  C   UNL     1     -13.019   9.054  -5.176  0.00  0.00    +0.013 C 
ATOM     18  C   UNL     1     -12.191   9.404  -3.939  0.00  0.00    +0.093 C 
ENDBRANCH  13  18
ENDBRANCH   7  15
ENDBRANCH   4  10
ENDBRANCH   2   4
ENDBRANCH   1   2
BRANCH   1  19
ATOM     19  C   UNL     1      -3.172   5.888  -0.348  0.00  0.00    -0.022 C 
BRANCH  19  20
ATOM     20  C   UNL     1      -2.507   4.589   0.029  0.00  0.00    -0.059 A 
ATOM     21  C   UNL     1      -2.468   4.189   1.352  0.00  0.00    +0.004 A 
ATOM     22  C   UNL     1      -1.863   3.000   1.701  0.00  0.00    +0.023 A 
ATOM     23  C   UNL     1      -1.285   2.193   0.722  0.00  0.00    +0.033 A 
ATOM     24  C   UNL     1      -1.325   2.607  -0.604  0.00  0.00    -0.025 A 
ATOM     25  C   UNL     1      -1.934   3.796  -0.948  0.00  0.00    +0.007 A 
ATOM     26  C   UNL     1      -0.623   1.557  -1.442  0.00  0.00    +0.056 C 
ATOM     27  C   UNL     1       0.157   0.740  -0.387  0.00  0.00    +0.109 C 
ATOM     28  N   UNL     1      -0.634   0.957   0.845  0.00  0.00    -0.332 N 
ATOM     29  C   UNL     1       0.227   0.926   2.035  0.00  0.00    +0.129 C 
ENDBRANCH  19  20
BRANCH  19  35
ATOM     30  C   UNL     1      -3.540   8.174   0.358  0.00  0.00    -0.078 C 
ATOM     31  C   UNL     1      -3.300   9.168   1.496  0.00  0.00    -0.019 C 
ATOM     32  C   UNL     1      -1.796   9.409   1.649  0.00  0.00    -0.004 C 
ATOM     33  C   UNL     1      -1.097   8.072   1.910  0.00  0.00    -0.019 C 
ATOM     34  C   UNL     1      -1.400   7.110   0.759  0.00  0.00    -0.078 C 
ATOM     35  N   UNL     1      -2.862   6.901   0.681  0.00  0.00    +0.385 N 
ATOM     36  H   UNL     1      -3.199   6.566   1.591  0.00  0.00    -0.081 HD
ENDBRANCH  19  35
ENDBRANCH   1  19
TORSDOF 8
