REMARK  Name = ZINC38651348
REMARK  10 active torsions:
REMARK  status: ('A' for Active; 'I' for Inactive)
REMARK    1  A    between atoms: C_1  and  O_2
REMARK    2  A    between atoms: O_2  and  C_3
REMARK    3  A    between atoms: C_6  and  O_9
REMARK    4  A    between atoms: O_9  and  C_10
REMARK    5  A    between atoms: C_10  and  C_11
REMARK    6  A    between atoms: C_11  and  O_13
REMARK    7  A    between atoms: O_13  and  C_14
REMARK    8  A    between atoms: C_21  and  N_34
REMARK    9  A    between atoms: C_22  and  C_32
REMARK   10  A    between atoms: C_23  and  C_25
REMARK                            x       y       z     vdW  Elec       q    Type
REMARK                         _______ _______ _______ _____ _____    ______ ____
ROOT
ATOM      1  C   UNL     1       4.099  -6.230   6.679  0.00  0.00    +0.135 A 
ATOM      2  C   UNL     1       4.600  -5.370   7.646  0.00  0.00    +0.047 A 
ATOM      3  C   UNL     1       5.289  -5.878   8.730  0.00  0.00    +0.012 A 
ATOM      4  C   UNL     1       5.483  -7.242   8.857  0.00  0.00    +0.008 A 
ATOM      5  C   UNL     1       4.985  -8.105   7.894  0.00  0.00    +0.138 A 
ATOM      6  C   UNL     1       4.286  -7.596   6.806  0.00  0.00    +0.093 A 
ATOM      7  O   UNL     1       5.164  -9.444   8.000  0.00  0.00    -0.441 OA
ATOM      8  C   UNL     1       5.473  -9.987   9.190  0.00  0.00    +0.199 C 
ATOM      9  C   UNL     1       5.986  -9.248  10.202  0.00  0.00    +0.098 C 
ATOM     10  C   UNL     1       6.237  -7.775  10.046  0.00  0.00    +0.098 C 
ENDROOT
BRANCH  10  11
ATOM     11  C   UNL     1       7.713  -7.539   9.848  0.00  0.00    -0.035 A 
ATOM     12  C   UNL     1       8.361  -8.089   8.758  0.00  0.00    +0.006 A 
ATOM     13  C   UNL     1       9.713  -7.873   8.576  0.00  0.00    +0.020 A 
ATOM     14  C   UNL     1      10.419  -7.105   9.485  0.00  0.00    +0.041 A 
ATOM     15  C   UNL     1       9.770  -6.554  10.575  0.00  0.00    +0.020 A 
ATOM     16  C   UNL     1       8.416  -6.766  10.753  0.00  0.00    +0.006 A 
ATOM     17 CL   UNL     1      12.119  -6.833   9.257  0.00  0.00    -0.084 Cl
ENDBRANCH  10  11
BRANCH   8  18
ATOM     18  N   UNL     1       5.263 -11.329   9.385  0.00  0.00    -0.328 N 
ATOM     19  H   UNL     1       4.896 -11.871   8.669  0.00  0.00    +0.145 HD
ATOM     20  H   UNL     1       5.481 -11.735  10.238  0.00  0.00    +0.145 HD
ENDBRANCH   8  18
BRANCH   9  21
ATOM     21  C   UNL     1       6.294  -9.884  11.448  0.00  0.00    +0.101 C 
ATOM     22  N   UNL     1       6.539 -10.388  12.436  0.00  0.00    -0.191 NA
ENDBRANCH   9  21
BRANCH   1  23
ATOM     23  O   UNL     1       3.421  -5.732   5.611  0.00  0.00    -0.423 OA
BRANCH  23  24
ATOM     24  C   UNL     1       4.131  -5.172   4.619  0.00  0.00    +0.350 C 
ATOM     25  O   UNL     1       5.327  -5.041   4.731  0.00  0.00    -0.247 OA
BRANCH  24  26
ATOM     26  C   UNL     1       3.437  -4.706   3.365  0.00  0.00    +0.349 C 
BRANCH  26  27
ATOM     27  O   UNL     1       4.399  -4.150   2.466  0.00  0.00    -0.481 OA
BRANCH  27  31
ATOM     28  C   UNL     1       2.987  -2.724  -1.141  0.00  0.00    +0.120 A 
ATOM     29  C   UNL     1       4.341  -2.650  -0.848  0.00  0.00    +0.049 A 
ATOM     30  C   UNL     1       4.813  -3.127   0.359  0.00  0.00    +0.049 A 
ATOM     31  C   UNL     1       3.933  -3.680   1.278  0.00  0.00    +0.122 A 
ATOM     32  C   UNL     1       2.580  -3.753   0.985  0.00  0.00    +0.049 A 
ATOM     33  C   UNL     1       2.107  -3.272  -0.220  0.00  0.00    +0.049 A 
BRANCH  28  35
ATOM     34  C   UNL     1       3.485  -1.703  -3.231  0.00  0.00    +0.277 C 
ATOM     35  O   UNL     1       2.522  -2.254  -2.330  0.00  0.00    -0.495 OA
ENDBRANCH  28  35
ENDBRANCH  27  31
ENDBRANCH  26  27
ENDBRANCH  24  26
ENDBRANCH  23  24
ENDBRANCH   1  23
TORSDOF 9
