REMARK  Name = ZINC29229677
REMARK  7 active torsions:
REMARK  status: ('A' for Active; 'I' for Inactive)
REMARK    1  A    between atoms: C_6  and  N_7
REMARK    2  A    between atoms: N_11  and  C_14
REMARK    3  A    between atoms: C_14  and  C_15
REMARK    4  A    between atoms: C_15  and  C_16
REMARK    5  A    between atoms: C_16  and  C_17
REMARK    6  A    between atoms: C_17  and  N_18
REMARK    7  A    between atoms: N_22  and  C_23
REMARK                            x       y       z     vdW  Elec       q    Type
REMARK                         _______ _______ _______ _____ _____    ______ ____
ROOT
ATOM      1  C   UNL     1      -2.123  -5.547  -4.024  0.00  0.00    +0.023 C 
ENDROOT
BRANCH   1   2
ATOM      2  C   UNL     1      -2.689  -4.353  -4.793  0.00  0.00    +0.121 C 
BRANCH   2   7
ATOM      3  N   UNL     1      -2.114   0.239  -1.758  0.00  0.00    -0.355 N 
ATOM      4  C   UNL     1      -2.253  -0.866  -2.489  0.00  0.00    +0.042 A 
ATOM      5  C   UNL     1      -1.232  -1.272  -3.389  0.00  0.00    +0.043 A 
ATOM      6  C   UNL     1      -1.403  -2.395  -4.114  0.00  0.00    +0.087 A 
ATOM      7  N   UNL     1      -2.537  -3.137  -3.990  0.00  0.00    -0.353 N 
ATOM      8  C   UNL     1      -3.533  -2.775  -3.136  0.00  0.00    +0.087 A 
ATOM      9  C   UNL     1      -3.421  -1.666  -2.379  0.00  0.00    +0.043 A 
ATOM     10  H   UNL     1      -2.775   0.460  -1.083  0.00  0.00    +0.166 HD
BRANCH   3  16
ATOM     11  C   UNL     1      -0.784   1.578  -3.231  0.00  0.00    +0.027 A 
ATOM     12  C   UNL     1       0.300   2.407  -3.426  0.00  0.00    +0.022 A 
ATOM     13  C   UNL     1       1.132   2.726  -2.365  0.00  0.00    +0.041 A 
ATOM     14  C   UNL     1       0.882   2.216  -1.102  0.00  0.00    +0.022 A 
ATOM     15  C   UNL     1      -0.199   1.385  -0.892  0.00  0.00    +0.027 A 
ATOM     16  C   UNL     1      -1.043   1.059  -1.958  0.00  0.00    +0.040 A 
ATOM     17 CL   UNL     1       2.495   3.770  -2.620  0.00  0.00    -0.084 Cl
ENDBRANCH   3  16
ENDBRANCH   2   7
ENDBRANCH   1   2
BRANCH   1  18
ATOM     18  C   UNL     1      -2.281  -6.817  -4.863  0.00  0.00    +0.023 C 
BRANCH  18  19
ATOM     19  C   UNL     1      -1.715  -8.011  -4.093  0.00  0.00    +0.121 C 
BRANCH  19  20
ATOM     20  N   UNL     1      -1.867  -9.227  -4.897  0.00  0.00    -0.353 N 
ATOM     21  C   UNL     1      -3.004  -9.966  -4.777  0.00  0.00    +0.087 A 
ATOM     22  C   UNL     1      -3.175 -11.088  -5.502  0.00  0.00    +0.043 A 
ATOM     23  C   UNL     1      -2.152 -11.497  -6.399  0.00  0.00    +0.042 A 
ATOM     24  N   UNL     1      -2.291 -12.601  -7.130  0.00  0.00    -0.355 N 
ATOM     25  C   UNL     1      -0.979 -10.704  -6.500  0.00  0.00    +0.043 A 
ATOM     26  C   UNL     1      -0.871  -9.589  -5.751  0.00  0.00    +0.087 A 
ATOM     27  H   UNL     1      -3.128 -13.092  -7.114  0.00  0.00    +0.166 HD
BRANCH  24  28
ATOM     28  C   UNL     1      -1.256 -13.043  -7.901  0.00  0.00    +0.040 A 
ATOM     29  C   UNL     1      -0.008 -13.297  -7.324  0.00  0.00    +0.027 A 
ATOM     30  C   UNL     1       1.033 -13.744  -8.110  0.00  0.00    +0.022 A 
ATOM     31  C   UNL     1       0.846 -13.941  -9.468  0.00  0.00    +0.041 A 
ATOM     32  C   UNL     1      -0.388 -13.691 -10.046  0.00  0.00    +0.022 A 
ATOM     33  C   UNL     1      -1.440 -13.250  -9.272  0.00  0.00    +0.027 A 
ATOM     34 CL   UNL     1       2.162 -14.503 -10.449  0.00  0.00    -0.084 Cl
ENDBRANCH  24  28
ENDBRANCH  19  20
ENDBRANCH  18  19
ENDBRANCH   1  18
TORSDOF 7
