REMARK  Name = ZINC47139065
REMARK  6 active torsions:
REMARK  status: ('A' for Active; 'I' for Inactive)
REMARK    1  A    between atoms: C_3  and  C_8
REMARK    2  A    between atoms: N_12  and  C_27
REMARK    3  A    between atoms: N_14  and  N_15
REMARK    4  A    between atoms: C_16  and  C_17
REMARK    5  A    between atoms: C_20  and  N_23
REMARK    6  A    between atoms: C_27  and  C_28
REMARK                            x       y       z     vdW  Elec       q    Type
REMARK                         _______ _______ _______ _____ _____    ______ ____
ROOT
ATOM      1  C   UNL     1       3.638   1.940   1.777  0.00  0.00    +0.028 C 
ATOM      2  C   UNL     1       4.842   1.304   1.524  0.00  0.00    +0.078 C 
ATOM      3  C   UNL     1       6.192   1.882   1.335  0.00  0.00    +0.259 C 
ATOM      4  O   UNL     1       6.412   3.078   1.385  0.00  0.00    -0.269 OA
ATOM      5  N   UNL     1       7.139   0.983   1.107  0.00  0.00    -0.237 N 
ATOM      6  C   UNL     1       6.845  -0.343   1.061  0.00  0.00    +0.190 C 
ATOM      7  N   UNL     1       7.696  -1.362   0.842  0.00  0.00    -0.126 NA
ATOM      8  S   UNL     1       5.191  -0.437   1.346  0.00  0.00    -0.047 S 
ENDROOT
BRANCH   1  11
ATOM      9  C   UNL     1       1.394  -0.982   2.449  0.00  0.00    +0.002 A 
ATOM     10  C   UNL     1       2.522  -0.248   2.158  0.00  0.00    +0.008 A 
ATOM     11  C   UNL     1       2.445   1.152   2.086  0.00  0.00    -0.023 A 
ATOM     12  C   UNL     1       1.215   1.791   2.312  0.00  0.00    +0.023 A 
ATOM     13  C   UNL     1       0.098   1.040   2.603  0.00  0.00    +0.018 A 
ATOM     14  C   UNL     1       0.185  -0.343   2.671  0.00  0.00    +0.015 A 
ATOM     15 BR   UNL     1      -1.561   1.896   2.909  0.00  0.00    -0.050 Br
ENDBRANCH   1  11
BRANCH   7  16
ATOM     16  N   UNL     1       8.949  -1.125   0.645  0.00  0.00    -0.155 NA
ATOM     17  C   UNL     1       9.795  -2.139   0.426  0.00  0.00    +0.143 C 
BRANCH  17  18
ATOM     18  C   UNL     1       9.300  -3.448   0.266  0.00  0.00    -0.005 A 
ATOM     19  C   UNL     1      10.187  -4.544   0.225  0.00  0.00    +0.012 A 
ATOM     20  C   UNL     1       9.695  -5.808   0.069  0.00  0.00    +0.033 A 
ATOM     21  C   UNL     1       8.328  -6.017  -0.048  0.00  0.00    +0.126 A 
ATOM     22  C   UNL     1       7.445  -4.947  -0.009  0.00  0.00    +0.033 A 
ATOM     23  C   UNL     1       7.912  -3.674   0.151  0.00  0.00    +0.012 A 
BRANCH  21  24
ATOM     24  N   UNL     1       7.808  -7.393  -0.217  0.00  0.00    +0.056 N 
ATOM     25  O   UNL     1       8.641  -8.412  -0.255  0.00  0.00    -0.126 OA
ATOM     26  O   UNL     1       6.511  -7.597  -0.329  0.00  0.00    -0.126 OA
ENDBRANCH  21  24
ENDBRANCH  17  18
ENDBRANCH   7  16
BRANCH   5  27
ATOM     27  C   UNL     1       8.521   1.425   0.902  0.00  0.00    +0.190 C 
BRANCH  27  28
ATOM     28  C   UNL     1       9.235   1.475   2.228  0.00  0.00    +0.123 A 
ATOM     29  C   UNL     1       9.924   0.466   2.789  0.00  0.00    +0.046 A 
ATOM     30  C   UNL     1      10.424   0.946   4.022  0.00  0.00    +0.041 A 
ATOM     31  C   UNL     1      10.010   2.221   4.140  0.00  0.00    +0.195 A 
ATOM     32  O   UNL     1       9.295   2.538   3.048  0.00  0.00    -0.466 OA
ENDBRANCH  27  28
ENDBRANCH   5  27
TORSDOF 6
