REMARK  Name = ZINC63139100
REMARK  6 active torsions:
REMARK  status: ('A' for Active; 'I' for Inactive)
REMARK    1  A    between atoms: C_1  and  O_2
REMARK    2  A    between atoms: O_2  and  C_3
REMARK    3  A    between atoms: C_6  and  C_9
REMARK    4  A    between atoms: N_22  and  C_25
REMARK    5  A    between atoms: C_25  and  C_26
REMARK    6  A    between atoms: C_26  and  C_27
REMARK                            x       y       z     vdW  Elec       q    Type
REMARK                         _______ _______ _______ _____ _____    ______ ____
ROOT
ATOM      1  C   UNL     1      -4.981  -2.629   0.035  0.00  0.00    +0.132 C 
ATOM      2  C   UNL     1      -5.242  -3.250   1.397  0.00  0.00    +0.134 C 
ATOM      3  C   UNL     1      -6.301  -4.374   1.204  0.00  0.00    +0.030 C 
ATOM      4  C   UNL     1      -5.598  -5.581   0.609  0.00  0.00    +0.038 C 
ATOM      5  C   UNL     1      -4.565  -5.062  -0.405  0.00  0.00    +0.163 C 
ATOM      6  N   UNL     1      -4.969  -3.773  -0.913  0.00  0.00    -0.279 N 
ATOM      7  C   UNL     1      -5.337  -3.583  -2.180  0.00  0.00    +0.234 C 
ATOM      8  O   UNL     1      -5.572  -2.451  -2.547  0.00  0.00    -0.274 OA
ATOM      9  C   UNL     1      -5.473  -4.695  -3.174  0.00  0.00    +0.203 C 
ATOM     10  N   UNL     1      -4.766  -5.890  -2.738  0.00  0.00    -0.291 N 
ATOM     11  C   UNL     1      -4.379  -6.048  -1.511  0.00  0.00    +0.237 C 
ATOM     12  O   UNL     1      -3.808  -7.088  -1.263  0.00  0.00    -0.274 OA
ATOM     13  C   UNL     1      -6.753  -4.502   2.657  0.00  0.00    +0.065 C 
ATOM     14  C   UNL     1      -8.155  -5.004   2.795  0.00  0.00    -0.017 C 
ATOM     15  C   UNL     1      -9.029  -4.409   3.601  0.00  0.00    -0.004 C 
ATOM     16  C   UNL     1      -8.694  -3.229   4.393  0.00  0.00    +0.001 C 
ATOM     17  C   UNL     1      -7.543  -2.549   4.155  0.00  0.00    +0.023 C 
ATOM     18  C   UNL     1      -6.671  -3.059   3.142  0.00  0.00    +0.043 C 
ATOM     19  N   UNL     1      -5.839  -2.396   2.411  0.00  0.00    -0.282 NA
ENDROOT
BRANCH   1  23
ATOM     20  C   UNL     1      -1.200  -0.637   0.010  0.00  0.00    +0.120 A 
ATOM     21  C   UNL     1      -2.368   0.090   0.189  0.00  0.00    +0.046 A 
ATOM     22  C   UNL     1      -3.589  -0.556   0.196  0.00  0.00    +0.009 A 
ATOM     23  C   UNL     1      -3.648  -1.927   0.026  0.00  0.00    -0.025 A 
ATOM     24  C   UNL     1      -2.486  -2.654  -0.152  0.00  0.00    +0.009 A 
ATOM     25  C   UNL     1      -1.263  -2.012  -0.166  0.00  0.00    +0.046 A 
BRANCH  20  27
ATOM     26  C   UNL     1      -0.010   1.413   0.189  0.00  0.00    +0.277 C 
ATOM     27  O   UNL     1       0.002  -0.004   0.002  0.00  0.00    -0.495 OA
ENDBRANCH  20  27
ENDBRANCH   1  23
BRANCH  10  28
ATOM     28  C   UNL     1      -4.497  -6.940  -3.724  0.00  0.00    +0.113 C 
BRANCH  28  29
ATOM     29  C   UNL     1      -3.146  -6.679  -4.392  0.00  0.00    +0.052 C 
BRANCH  29  30
ATOM     30  C   UNL     1      -2.869  -7.759  -5.406  0.00  0.00    -0.040 C 
ATOM     31  C   UNL     1      -3.121  -7.711  -6.734  0.00  0.00    -0.001 A 
ATOM     32  C   UNL     1      -3.706  -6.679  -7.598  0.00  0.00    +0.010 A 
ATOM     33  C   UNL     1      -3.834  -6.928  -8.922  0.00  0.00    +0.001 A 
ATOM     34  C   UNL     1      -3.422  -8.143  -9.487  0.00  0.00    +0.002 A 
ATOM     35  C   UNL     1      -2.876  -9.138  -8.757  0.00  0.00    +0.026 A 
ATOM     36  C   UNL     1      -2.694  -8.985  -7.355  0.00  0.00    +0.043 A 
ATOM     37  N   UNL     1      -2.198  -9.790  -6.446  0.00  0.00    -0.380 N 
ATOM     38  C   UNL     1      -2.248  -9.113  -5.145  0.00  0.00    +0.144 C 
ATOM     39  H   UNL     1      -1.852 -10.681  -6.608  0.00  0.00    +0.160 HD
ENDBRANCH  29  30
ENDBRANCH  28  29
ENDBRANCH  10  28
TORSDOF 5
