REMARK  Name = ZINC65219535
REMARK  5 active torsions:
REMARK  status: ('A' for Active; 'I' for Inactive)
REMARK    1  A    between atoms: C_1  and  N_2
REMARK    2  A    between atoms: C_9  and  C_12
REMARK    3  A    between atoms: C_12  and  N_13
REMARK    4  A    between atoms: C_14  and  C_16
REMARK    5  A    between atoms: C_16  and  C_17
REMARK                            x       y       z     vdW  Elec       q    Type
REMARK                         _______ _______ _______ _____ _____    ______ ____
ROOT
ATOM      1  N   UNL     1       2.712  -2.782  -1.322  0.00  0.00    -0.313 N 
ATOM      2  C   UNL     1       3.387  -3.331  -2.351  0.00  0.00    +0.217 C 
ATOM      3  O   UNL     1       2.785  -3.896  -3.239  0.00  0.00    -0.275 OA
ATOM      4  H   UNL     1       3.193  -2.330  -0.612  0.00  0.00    +0.149 HD
ENDROOT
BRANCH   1   5
ATOM      5  C   UNL     1       1.250  -2.869  -1.276  0.00  0.00    +0.129 C 
BRANCH   5  14
ATOM      6  C   UNL     1      -0.018   1.461   0.010  0.00  0.00    +0.150 C 
ATOM      7  N   UNL     1       0.002  -0.004   0.002  0.00  0.00    -0.269 N 
ATOM      8  C   UNL     1      -1.140  -0.802   0.003  0.00  0.00    +0.049 A 
ATOM      9  C   UNL     1      -2.492  -0.470   0.012  0.00  0.00    +0.025 A 
ATOM     10  C   UNL     1      -3.449  -1.464   0.012  0.00  0.00    +0.002 A 
ATOM     11  C   UNL     1      -3.072  -2.795   0.003  0.00  0.00    +0.000 A 
ATOM     12  C   UNL     1      -1.730  -3.133  -0.007  0.00  0.00    +0.007 A 
ATOM     13  C   UNL     1      -0.773  -2.143  -0.006  0.00  0.00    -0.005 A 
ATOM     14  C   UNL     1       0.737  -2.173  -0.014  0.00  0.00    +0.121 C 
ATOM     15  N   UNL     1       1.139  -0.754  -0.013  0.00  0.00    -0.231 NA
ATOM     16  H   UNL     1       1.721  -0.545   0.784  0.00  0.00    +0.145 HD
ENDBRANCH   5  14
ENDBRANCH   1   5
BRANCH   2  17
ATOM     17  C   UNL     1       4.891  -3.241  -2.398  0.00  0.00    +0.129 C 
BRANCH  17  18
ATOM     18  C   UNL     1       5.396  -3.927  -3.641  0.00  0.00    -0.033 C 
ATOM     19  C   UNL     1       5.690  -3.348  -4.828  0.00  0.00    -0.001 A 
ATOM     20  C   UNL     1       5.629  -1.959  -5.298  0.00  0.00    +0.010 A 
ATOM     21  C   UNL     1       5.996  -1.680  -6.570  0.00  0.00    +0.001 A 
ATOM     22  C   UNL     1       6.432  -2.683  -7.447  0.00  0.00    +0.002 A 
ATOM     23  C   UNL     1       6.515  -3.981  -7.088  0.00  0.00    +0.026 A 
ATOM     24  C   UNL     1       6.154  -4.388  -5.774  0.00  0.00    +0.043 A 
ATOM     25  N   UNL     1       6.147  -5.564  -5.195  0.00  0.00    -0.380 N 
ATOM     26  C   UNL     1       5.683  -5.402  -3.813  0.00  0.00    +0.145 C 
ATOM     27  H   UNL     1       6.409  -6.401  -5.610  0.00  0.00    +0.160 HD
ENDBRANCH  17  18
ENDBRANCH   2  17
TORSDOF 4
