REMARK  Name = ZINC34747317
REMARK  4 active torsions:
REMARK  status: ('A' for Active; 'I' for Inactive)
REMARK    1  A    between atoms: C_6  and  C_7
REMARK    2  A    between atoms: C_7  and  N_8
REMARK    3  A    between atoms: N_27  and  C_28
REMARK    4  A    between atoms: C_28  and  C_29
REMARK                            x       y       z     vdW  Elec       q    Type
REMARK                         _______ _______ _______ _____ _____    ______ ____
ROOT
ATOM      1  N   UNL     1      -1.048  -0.506  -2.228  0.00  0.00    +0.384 N 
ATOM      2  C   UNL     1      -1.078  -0.639  -3.690  0.00  0.00    -0.059 C 
ATOM      3  C   UNL     1      -2.265  -1.517  -4.098  0.00  0.00    +0.089 C 
ATOM      4  N   UNL     1      -3.490  -0.946  -3.515  0.00  0.00    -0.304 N 
ATOM      5  C   UNL     1      -3.490  -0.627  -2.079  0.00  0.00    +0.089 C 
ATOM      6  C   UNL     1      -2.244   0.209  -1.766  0.00  0.00    -0.059 C 
ATOM      7  C   UNL     1      -4.600  -0.717  -4.289  0.00  0.00    +0.202 A 
ATOM      8  N   UNL     1      -4.750   0.450  -4.879  0.00  0.00    -0.208 NA
ATOM      9  C   UNL     1      -5.814   0.699  -5.634  0.00  0.00    +0.117 A 
ATOM     10  C   UNL     1      -6.823  -0.256  -5.841  0.00  0.00    +0.076 A 
ATOM     11  C   UNL     1      -7.935   0.163  -6.696  0.00  0.00    -0.023 A 
ATOM     12  C   UNL     1      -7.883   1.413  -7.199  0.00  0.00    -0.004 A 
ATOM     13  S   UNL     1      -6.372   2.099  -6.573  0.00  0.00    -0.073 S 
ATOM     14  C   UNL     1      -8.887   2.075  -8.092  0.00  0.00    +0.043 C 
ATOM     15  C   UNL     1      -9.817   0.994  -8.661  0.00  0.00    +0.005 C 
ATOM     16  C   UNL     1     -10.280   0.091  -7.514  0.00  0.00    +0.005 C 
ATOM     17  C   UNL     1      -9.109  -0.758  -7.016  0.00  0.00    +0.037 C 
ATOM     18  C   UNL     1      -6.633  -1.515  -5.187  0.00  0.00    +0.264 A 
ATOM     19  O   UNL     1      -7.456  -2.405  -5.309  0.00  0.00    -0.267 OA
ATOM     20  N   UNL     1      -5.529  -1.703  -4.440  0.00  0.00    -0.271 N 
ATOM     21  H   UNL     1      -1.023  -1.424  -1.810  0.00  0.00    -0.081 HD
ENDROOT
BRANCH   1  22
ATOM     22  C   UNL     1       0.152   0.243  -1.831  0.00  0.00    -0.043 C 
BRANCH  22  28
ATOM     23  C   UNL     1       1.969  -0.380  -3.436  0.00  0.00    +0.003 A 
ATOM     24  C   UNL     1       3.097  -1.104  -3.770  0.00  0.00    +0.020 A 
ATOM     25  C   UNL     1       3.639  -1.998  -2.863  0.00  0.00    +0.041 A 
ATOM     26  C   UNL     1       3.050  -2.166  -1.622  0.00  0.00    +0.020 A 
ATOM     27  C   UNL     1       1.922  -1.440  -1.289  0.00  0.00    +0.003 A 
ATOM     28  C   UNL     1       1.382  -0.547  -2.196  0.00  0.00    -0.064 A 
ATOM     29 CL   UNL     1       5.056  -2.909  -3.283  0.00  0.00    -0.084 Cl
ENDBRANCH  22  28
ENDBRANCH   1  22
BRANCH  20  30
ATOM     30  C   UNL     1      -5.325  -2.991  -3.772  0.00  0.00    +0.224 C 
BRANCH  30  31
ATOM     31  C   UNL     1      -6.026  -2.982  -2.438  0.00  0.00    +0.236 C 
ATOM     32  O   UNL     1      -6.636  -1.997  -2.081  0.00  0.00    -0.274 OA
ATOM     33  N   UNL     1      -5.976  -4.069  -1.643  0.00  0.00    -0.300 N 
ATOM     34  C   UNL     1      -5.270  -5.322  -1.948  0.00  0.00    +0.108 C 
ATOM     35  C   UNL     1      -5.511  -6.283  -0.765  0.00  0.00    +0.020 C 
ATOM     36  C   UNL     1      -6.804  -5.721  -0.119  0.00  0.00    +0.020 C 
ATOM     37  C   UNL     1      -6.613  -4.195  -0.320  0.00  0.00    +0.108 C 
ENDBRANCH  30  31
ENDBRANCH  20  30
TORSDOF 4
