REMARK  Name = ZINC40510412
REMARK  3 active torsions:
REMARK  status: ('A' for Active; 'I' for Inactive)
REMARK    1  A    between atoms: C_1  and  N_2
REMARK    2  A    between atoms: N_2  and  C_3
REMARK    3  A    between atoms: C_11  and  C_13
REMARK                            x       y       z     vdW  Elec       q    Type
REMARK                         _______ _______ _______ _____ _____    ______ ____
ROOT
ATOM      1  C   UNL     1      -0.178   1.459   0.014  0.00  0.00    +0.132 C 
ATOM      2  N   UNL     1      -0.061  -0.002   0.004  0.00  0.00    -0.295 N 
ATOM      3  C   UNL     1      -0.102  -0.673  -1.163  0.00  0.00    +0.263 C 
ATOM      4  O   UNL     1      -0.120  -1.889  -1.165  0.00  0.00    -0.268 OA
ENDROOT
BRANCH   3   5
ATOM      5  C   UNL     1      -0.124   0.065  -2.435  0.00  0.00    +0.103 A 
ATOM      6  C   UNL     1      -0.326  -0.485  -3.661  0.00  0.00    +0.040 A 
ATOM      7  C   UNL     1      -0.273   0.559  -4.616  0.00  0.00    +0.000 A 
ATOM      8  C   UNL     1      -0.409   0.596  -6.010  0.00  0.00    +0.011 A 
ATOM      9  C   UNL     1      -0.305   1.784  -6.671  0.00  0.00    +0.021 A 
ATOM     10  C   UNL     1      -0.066   2.964  -5.974  0.00  0.00    +0.043 A 
ATOM     11  C   UNL     1       0.070   2.953  -4.603  0.00  0.00    +0.046 A 
ATOM     12  C   UNL     1      -0.031   1.752  -3.907  0.00  0.00    +0.048 A 
ATOM     13  N   UNL     1       0.052   1.428  -2.573  0.00  0.00    -0.351 N 
ATOM     14  H   UNL     1       0.209   2.054  -1.849  0.00  0.00    +0.166 HD
ATOM     15 CL   UNL     1       0.061   4.463  -6.840  0.00  0.00    -0.083 Cl
ENDBRANCH   3   5
BRANCH   2  16
ATOM     16  C   UNL     1       0.100  -0.732   1.264  0.00  0.00    +0.098 C 
ATOM     17  C   UNL     1       1.377  -0.251   1.974  0.00  0.00    +0.046 C 
ATOM     18  C   UNL     1       1.358  -0.801   3.429  0.00  0.00    +0.168 C 
ATOM     19  S   UNL     1      -0.417  -0.558   3.858  0.00  0.00    -0.029 S 
ATOM     20  O   UNL     1      -0.898  -1.725   4.510  0.00  0.00    -0.174 OA
ATOM     21  O   UNL     1      -0.571   0.708   4.486  0.00  0.00    -0.174 OA
ATOM     22  C   UNL     1      -1.131  -0.478   2.167  0.00  0.00    +0.188 C 
ENDBRANCH   2  16
TORSDOF 2
