REMARK  Name = ZINC14460148
REMARK  6 active torsions:
REMARK  status: ('A' for Active; 'I' for Inactive)
REMARK    1  A    between atoms: C_1  and  O_2
REMARK    2  A    between atoms: O_2  and  C_3
REMARK    3  A    between atoms: C_6  and  N_9
REMARK    4  A    between atoms: N_9  and  S_10
REMARK    5  A    between atoms: S_10  and  C_13
REMARK    6  A    between atoms: C_26  and  C_29
REMARK                            x       y       z     vdW  Elec       q    Type
REMARK                         _______ _______ _______ _____ _____    ______ ____
ROOT
ATOM      1  C   UNL     1      -3.176   5.633   3.034  0.00  0.00    +0.109 A 
ATOM      2  C   UNL     1      -3.098   6.548   4.068  0.00  0.00    +0.030 A 
ATOM      3  C   UNL     1      -1.894   6.775   4.702  0.00  0.00    +0.025 A 
ATOM      4  C   UNL     1      -0.752   6.089   4.307  0.00  0.00    +0.031 A 
ATOM      5  C   UNL     1      -0.836   5.175   3.251  0.00  0.00    -0.018 A 
ATOM      6  C   UNL     1      -2.045   4.950   2.628  0.00  0.00    +0.034 A 
ATOM      7  C   UNL     1       0.407   4.484   2.846  0.00  0.00    +0.049 C 
ATOM      8  C   UNL     1       0.391   3.157   2.179  0.00  0.00    -0.023 C 
ATOM      9  C   UNL     1       1.489   2.495   2.525  0.00  0.00    -0.030 C 
ATOM     10  C   UNL     1       2.326   3.339   3.488  0.00  0.00    +0.033 C 
ATOM     11  C   UNL     1       1.255   4.232   4.128  0.00  0.00    +0.029 C 
ATOM     12  C   UNL     1       1.698   5.597   4.624  0.00  0.00    +0.105 C 
ATOM     13  N   UNL     1       0.450   6.309   4.990  0.00  0.00    -0.336 N 
ATOM     14  H   UNL     1       0.469   6.934   5.731  0.00  0.00    +0.147 HD
ENDROOT
BRANCH  12  15
ATOM     15  C   UNL     1       2.604   5.448   5.819  0.00  0.00    -0.026 A 
ATOM     16  C   UNL     1       2.064   5.223   7.072  0.00  0.00    +0.005 A 
ATOM     17  C   UNL     1       2.894   5.082   8.168  0.00  0.00    +0.002 A 
ATOM     18  C   UNL     1       4.265   5.175   8.013  0.00  0.00    +0.020 A 
ATOM     19  C   UNL     1       4.805   5.406   6.761  0.00  0.00    +0.041 A 
ATOM     20  C   UNL     1       3.974   5.542   5.663  0.00  0.00    +0.025 A 
ATOM     21 CL   UNL     1       6.526   5.524   6.566  0.00  0.00    -0.084 Cl
ENDBRANCH  12  15
BRANCH   1  22
ATOM     22  S   UNL     1      -4.718   5.339   2.232  0.00  0.00    +0.072 S 
ATOM     23  O   UNL     1      -5.461   6.546   2.326  0.00  0.00    -0.150 OA
ATOM     24  O   UNL     1      -4.417   4.724   0.987  0.00  0.00    -0.150 OA
BRANCH  22  25
ATOM     25  N   UNL     1      -5.531   4.212   3.133  0.00  0.00    -0.216 N 
ATOM     26  H   UNL     1      -6.375   4.442   3.551  0.00  0.00    +0.174 HD
BRANCH  25  30
ATOM     27  C   UNL     1      -3.947   0.385   3.606  0.00  0.00    +0.120 A 
ATOM     28  C   UNL     1      -3.884   1.295   4.650  0.00  0.00    +0.047 A 
ATOM     29  C   UNL     1      -4.408   2.563   4.495  0.00  0.00    +0.028 A 
ATOM     30  C   UNL     1      -4.999   2.927   3.292  0.00  0.00    +0.048 A 
ATOM     31  C   UNL     1      -5.067   2.013   2.248  0.00  0.00    +0.028 A 
ATOM     32  C   UNL     1      -4.537   0.747   2.404  0.00  0.00    +0.047 A 
BRANCH  27  34
ATOM     33  C   UNL     1      -3.531  -1.750   2.643  0.00  0.00    +0.277 C 
ATOM     34  O   UNL     1      -3.431  -0.864   3.760  0.00  0.00    -0.495 OA
ENDBRANCH  27  34
ENDBRANCH  25  30
ENDBRANCH  22  25
ENDBRANCH   1  22
TORSDOF 5
