REMARK  Name = ZINC20466620
REMARK  9 active torsions:
REMARK  status: ('A' for Active; 'I' for Inactive)
REMARK    1  A    between atoms: C_1  and  C_2
REMARK    2  A    between atoms: C_4  and  N_31
REMARK    3  A    between atoms: C_8  and  C_30
REMARK    4  A    between atoms: C_11  and  O_29
REMARK    5  A    between atoms: C_13  and  C_17
REMARK    6  A    between atoms: C_17  and  C_19
REMARK    7  A    between atoms: C_17  and  C_20
REMARK    8  A    between atoms: N_22  and  C_23
REMARK    9  A    between atoms: C_32  and  C_34
REMARK                            x       y       z     vdW  Elec       q    Type
REMARK                         _______ _______ _______ _____ _____    ______ ____
ROOT
ATOM      1  C   UNL     1      -7.187  -4.840  -1.974  0.00  0.00    +0.010 C 
ATOM      2  C   UNL     1      -6.391  -5.718  -1.007  0.00  0.00    +0.012 C 
ATOM      3  C   UNL     1      -7.006  -5.625   0.390  0.00  0.00    +0.076 C 
ATOM      4  C   UNL     1      -6.209  -6.503   1.357  0.00  0.00    +0.023 C 
ATOM      5  C   UNL     1      -4.758  -6.022   1.406  0.00  0.00    +0.009 C 
ATOM      6  C   UNL     1      -4.143  -6.114   0.008  0.00  0.00    -0.027 C 
ATOM      7  C   UNL     1      -4.939  -5.236  -0.959  0.00  0.00    +0.028 C 
ATOM      8  C   UNL     1      -4.324  -5.329  -2.357  0.00  0.00    +0.122 C 
ATOM      9  C   UNL     1      -2.873  -4.847  -2.308  0.00  0.00    +0.029 C 
ATOM     10  C   UNL     1      -2.076  -5.725  -1.341  0.00  0.00    +0.007 C 
ATOM     11  C   UNL     1      -2.691  -5.633   0.057  0.00  0.00    +0.007 C 
ATOM     12  C   UNL     1      -4.182  -7.567  -0.471  0.00  0.00    +0.011 C 
ENDROOT
BRANCH   3  13
ATOM     13  N   UNL     1      -8.396  -6.087   0.344  0.00  0.00    -0.312 N 
ATOM     14  C   UNL     1      -9.281  -5.653   1.263  0.00  0.00    +0.216 C 
ATOM     15  O   UNL     1      -8.927  -4.881   2.129  0.00  0.00    -0.276 OA
ATOM     16  H   UNL     1      -8.717  -6.787  -0.442  0.00  0.00    +0.149 HD
BRANCH  14  17
ATOM     17  C   UNL     1     -10.710  -6.127   1.215  0.00  0.00    +0.075 C 
ATOM     18  C   UNL     1     -11.783  -5.102   0.842  0.00  0.00    +0.013 C 
ATOM     19  C   UNL     1     -11.667  -5.597   2.285  0.00  0.00    +0.013 C 
ENDBRANCH  14  17
ENDBRANCH   3  13
BRANCH   9  20
ATOM     20  C   UNL     1      -2.833  -3.395  -1.828  0.00  0.00    +0.077 C 
ATOM     21  C   UNL     1      -3.692  -2.529  -2.752  0.00  0.00    +0.017 C 
BRANCH  20  22
ATOM     22  C   UNL     1      -1.411  -2.896  -1.852  0.00  0.00    +0.216 C 
ATOM     23  O   UNL     1      -0.517  -3.631  -2.217  0.00  0.00    -0.276 OA
ATOM     24  N   UNL     1      -1.133  -1.635  -1.468  0.00  0.00    -0.312 N 
ATOM     25  H   UNL     1      -1.943  -0.969  -1.137  0.00  0.00    +0.149 HD
BRANCH  24  26
ATOM     26  C   UNL     1       0.250  -1.150  -1.491  0.00  0.00    +0.073 C 
ATOM     27  C   UNL     1       0.254   0.373  -1.631  0.00  0.00    +0.022 C 
ATOM     28  C   UNL     1       1.698   0.879  -1.655  0.00  0.00    +0.002 C 
ATOM     29  C   UNL     1       2.398   0.485  -0.354  0.00  0.00    +0.000 C 
ATOM     30  C   UNL     1       2.394  -1.039  -0.214  0.00  0.00    +0.002 C 
ATOM     31  C   UNL     1       0.951  -1.545  -0.190  0.00  0.00    +0.022 C 
ENDBRANCH  24  26
ENDBRANCH  20  22
ENDBRANCH   9  20
BRANCH   8  32
ATOM     32  O   UNL     1      -5.068  -4.508  -3.260  0.00  0.00    -0.391 OA
ATOM     33  H   UNL     1      -4.773  -4.447  -4.317  0.00  0.00    +0.210 HD
ENDBRANCH   8  32
TORSDOF 6
