REMARK  Name = ZINC39243068
REMARK  8 active torsions:
REMARK  status: ('A' for Active; 'I' for Inactive)
REMARK    1  A    between atoms: C_1  and  O_2
REMARK    2  A    between atoms: O_2  and  C_3
REMARK    3  A    between atoms: C_6  and  C_9
REMARK    4  A    between atoms: C_13  and  C_24
REMARK    5  A    between atoms: C_18  and  C_20
REMARK    6  A    between atoms: N_26  and  C_27
REMARK    7  A    between atoms: C_27  and  C_28
REMARK    8  A    between atoms: C_28  and  C_29
REMARK                            x       y       z     vdW  Elec       q    Type
REMARK                         _______ _______ _______ _____ _____    ______ ____
ROOT
ATOM      1  C   UNL     1      -4.961  -2.619   0.036  0.00  0.00    +0.070 C 
ATOM      2  N   UNL     1      -6.057  -1.900   0.040  0.00  0.00    -0.254 NA
ATOM      3  C   UNL     1      -7.365  -2.559   0.044  0.00  0.00    +0.246 C 
ATOM      4  C   UNL     1      -8.342  -1.837  -0.854  0.00  0.00    +0.073 C 
ATOM      5  H   UNL     1      -8.499  -4.785  -1.995  0.00  0.00    +0.170 HD
ATOM      6  C   UNL     1      -8.796  -2.743  -1.746  0.00  0.00    +0.100 C 
ATOM      7  N   UNL     1      -8.226  -3.967  -1.552  0.00  0.00    -0.269 N 
ATOM      8  N   UNL     1      -7.191  -3.878  -0.604  0.00  0.00    -0.220 N 
ATOM      9  C   UNL     1      -6.146  -4.715  -0.306  0.00  0.00    +0.132 C 
ATOM     10  C   UNL     1      -4.992  -4.084   0.034  0.00  0.00    +0.057 C 
ENDROOT
BRANCH   1  14
ATOM     11  C   UNL     1      -1.199  -0.637   0.010  0.00  0.00    +0.120 A 
ATOM     12  C   UNL     1      -2.373   0.105   0.020  0.00  0.00    +0.046 A 
ATOM     13  C   UNL     1      -3.594  -0.534   0.028  0.00  0.00    +0.013 A 
ATOM     14  C   UNL     1      -3.650  -1.928   0.027  0.00  0.00    +0.000 A 
ATOM     15  C   UNL     1      -2.469  -2.670   0.017  0.00  0.00    +0.013 A 
ATOM     16  C   UNL     1      -1.251  -2.025   0.003  0.00  0.00    +0.046 A 
BRANCH  11  18
ATOM     17  C   UNL     1      -0.017   1.425   0.010  0.00  0.00    +0.277 C 
ATOM     18  O   UNL     1       0.002  -0.004   0.002  0.00  0.00    -0.495 OA
ENDBRANCH  11  18
ENDBRANCH   1  14
BRANCH   9  19
ATOM     19  C   UNL     1      -6.267  -6.216  -0.358  0.00  0.00    +0.432 C 
ATOM     20  F   UNL     1      -5.043  -6.795  -0.005  0.00  0.00    -0.165 F 
ATOM     21  F   UNL     1      -7.257  -6.636   0.536  0.00  0.00    -0.165 F 
ATOM     22  F   UNL     1      -6.612  -6.611  -1.655  0.00  0.00    -0.165 F 
ENDBRANCH   9  19
BRANCH   4  23
ATOM     23  C   UNL     1      -8.710  -0.473  -0.775  0.00  0.00    +0.245 C 
ATOM     24  O   UNL     1      -9.514  -0.013  -1.566  0.00  0.00    -0.270 OA
ATOM     25  N   UNL     1      -8.172   0.316   0.175  0.00  0.00    -0.311 N 
ATOM     26  H   UNL     1      -7.532  -0.051   0.805  0.00  0.00    +0.149 HD
BRANCH  25  27
ATOM     27  C   UNL     1      -8.553   1.728   0.257  0.00  0.00    +0.109 C 
BRANCH  27  28
ATOM     28  C   UNL     1      -7.804   2.393   1.413  0.00  0.00    +0.056 C 
BRANCH  28  29
ATOM     29  C   UNL     1      -8.196   3.845   1.498  0.00  0.00    -0.021 A 
ATOM     30  C   UNL     1      -9.362   4.394   2.194  0.00  0.00    +0.004 A 
ATOM     31  C   UNL     1     -10.400   3.831   2.940  0.00  0.00    +0.030 A 
ATOM     32  C   UNL     1     -11.371   4.646   3.478  0.00  0.00    +0.042 A 
ATOM     33  C   UNL     1     -11.323   6.020   3.283  0.00  0.00    +0.022 A 
ATOM     34  C   UNL     1     -10.305   6.590   2.550  0.00  0.00    +0.027 A 
ATOM     35  C   UNL     1      -9.313   5.786   1.997  0.00  0.00    +0.047 A 
ATOM     36  N   UNL     1      -8.196   6.050   1.236  0.00  0.00    -0.360 N 
ATOM     37  C   UNL     1      -7.540   4.883   0.953  0.00  0.00    +0.087 A 
ATOM     38 CL   UNL     1     -12.664   3.951   4.406  0.00  0.00    -0.084 Cl
ATOM     39  H   UNL     1      -7.914   6.931   0.947  0.00  0.00    +0.165 HD
ENDBRANCH  28  29
ENDBRANCH  27  28
ENDBRANCH  25  27
ENDBRANCH   4  23
TORSDOF 7
