REMARK  Name = ZINC35646849
REMARK  13 active torsions:
REMARK  status: ('A' for Active; 'I' for Inactive)
REMARK    1  A    between atoms: C_1  and  C_2
REMARK    2  A    between atoms: C_2  and  N_3
REMARK    3  A    between atoms: N_10  and  C_13
REMARK    4  A    between atoms: C_13  and  C_14
REMARK    5  A    between atoms: C_15  and  C_32
REMARK    6  A    between atoms: C_16  and  C_24
REMARK    7  A    between atoms: N_21  and  C_22
REMARK    8  A    between atoms: C_22  and  C_23
REMARK    9  A    between atoms: C_27  and  C_31
REMARK   10  A    between atoms: C_29  and  C_30
REMARK   11  A    between atoms: C_32  and  O_34
REMARK   12  A    between atoms: O_34  and  C_35
REMARK   13  A    between atoms: C_35  and  C_36
REMARK                            x       y       z     vdW  Elec       q    Type
REMARK                         _______ _______ _______ _____ _____    ______ ____
ROOT
ATOM      1  C   UNL     1      -0.205  -5.963   5.702  0.00  0.00    +0.010 C 
ATOM      2  C   UNL     1       0.101  -6.785   6.728  0.00  0.00    +0.076 C 
ATOM      3  C   UNL     1       0.294  -8.256   6.419  0.00  0.00    +0.144 C 
ATOM      4  N   UNL     1       0.131  -8.670   5.016  0.00  0.00    -0.288 N 
ATOM      5  C   UNL     1      -0.177  -7.729   4.101  0.00  0.00    +0.307 C 
ATOM      6  O   UNL     1      -0.314  -8.061   2.940  0.00  0.00    -0.252 OA
ATOM      7  N   UNL     1      -0.342  -6.442   4.431  0.00  0.00    -0.261 N 
ATOM      8  H   UNL     1       0.242  -9.598   4.755  0.00  0.00    +0.151 HD
ENDROOT
BRANCH   3   9
ATOM      9  C   UNL     1       1.682  -8.645   6.859  0.00  0.00    -0.020 A 
ATOM     10  C   UNL     1       2.747  -8.504   5.989  0.00  0.00    +0.006 A 
ATOM     11  C   UNL     1       4.020  -8.861   6.393  0.00  0.00    +0.004 A 
ATOM     12  C   UNL     1       4.228  -9.358   7.666  0.00  0.00    -0.050 A 
ATOM     13  C   UNL     1       3.163  -9.498   8.536  0.00  0.00    +0.007 A 
ATOM     14  C   UNL     1       1.891  -9.137   8.134  0.00  0.00    -0.045 A 
ATOM     15  C   UNL     1       0.730  -9.285   9.084  0.00  0.00    +0.044 C 
ATOM     16  C   UNL     1       5.616  -9.748   8.105  0.00  0.00    +0.044 C 
ENDBRANCH   3   9
BRANCH   7  17
ATOM     17  C   UNL     1      -0.681  -5.494   3.367  0.00  0.00    +0.111 C 
ATOM     18  C   UNL     1       0.600  -5.027   2.672  0.00  0.00    +0.025 C 
ENDBRANCH   7  17
BRANCH   2  19
ATOM     19  C   UNL     1       0.237  -6.291   8.046  0.00  0.00    +0.339 C 
ATOM     20  O   UNL     1      -0.638  -6.495   8.866  0.00  0.00    -0.245 OA
BRANCH  19  21
ATOM     21  O   UNL     1       1.338  -5.593   8.395  0.00  0.00    -0.462 OA
BRANCH  21  22
ATOM     22  C   UNL     1       1.463  -5.220   9.769  0.00  0.00    +0.229 C 
ATOM     23  C   UNL     1       2.701  -4.340   9.948  0.00  0.00    +0.048 C 
ENDBRANCH  21  22
ENDBRANCH  19  21
ENDBRANCH   2  19
BRANCH   1  24
ATOM     24  C   UNL     1      -0.406  -4.492   5.965  0.00  0.00    -0.026 C 
BRANCH  24  32
ATOM     25  N   UNL     1      -4.513  -4.212   9.437  0.00  0.00    -0.300 N 
ATOM     26  C   UNL     1      -4.666  -3.210   8.548  0.00  0.00    +0.302 C 
ATOM     27  O   UNL     1      -5.064  -2.123   8.921  0.00  0.00    -0.253 OA
ATOM     28  N   UNL     1      -4.379  -3.413   7.247  0.00  0.00    -0.287 N 
ATOM     29  C   UNL     1      -4.433  -2.266   6.319  0.00  0.00    +0.107 C 
ATOM     30  C   UNL     1      -3.253  -2.297   5.331  0.00  0.00    +0.000 C 
ATOM     31  C   UNL     1      -2.000  -2.732   6.057  0.00  0.00    -0.077 C 
ATOM     32  N   UNL     1      -1.840  -4.178   5.920  0.00  0.00    +0.384 N 
ATOM     33  C   UNL     1      -2.496  -4.946   6.908  0.00  0.00    -0.059 C 
ATOM     34  C   UNL     1      -4.021  -4.747   6.811  0.00  0.00    +0.091 C 
ATOM     35  H   UNL     1      -4.266  -5.099   9.130  0.00  0.00    +0.150 HD
ATOM     36  H   UNL     1      -2.194  -4.453   5.016  0.00  0.00    -0.081 HD
BRANCH  25  38
ATOM     37  C   UNL     1      -4.486  -5.256  11.648  0.00  0.00    +0.024 C 
ATOM     38  C   UNL     1      -4.721  -3.963  10.865  0.00  0.00    +0.102 C 
ENDBRANCH  25  38
ENDBRANCH  24  32
ENDBRANCH   1  24
TORSDOF 8
