REMARK  Name = ZINC08691491
REMARK  13 active torsions:
REMARK  status: ('A' for Active; 'I' for Inactive)
REMARK    1  A    between atoms: C_1  and  C_2
REMARK    2  A    between atoms: C_2  and  O_3
REMARK    3  A    between atoms: O_3  and  C_4
REMARK    4  A    between atoms: C_4  and  C_6
REMARK    5  A    between atoms: C_8  and  C_28
REMARK    6  A    between atoms: C_10  and  C_11
REMARK    7  A    between atoms: C_11  and  O_13
REMARK    8  A    between atoms: O_13  and  C_14
REMARK    9  A    between atoms: C_14  and  C_15
REMARK   10  A    between atoms: C_16  and  N_17
REMARK   11  A    between atoms: N_17  and  C_18
REMARK   12  A    between atoms: C_25  and  C_26
REMARK   13  A    between atoms: C_25  and  O_27
REMARK                            x       y       z     vdW  Elec       q    Type
REMARK                         _______ _______ _______ _____ _____    ______ ____
ROOT
ATOM      1  C   UNL     1       1.790  -2.018  -2.481  0.00  0.00    +0.141 C 
ATOM      2  C   UNL     1       0.704  -1.877  -3.549  0.00  0.00    +0.074 C 
ATOM      3  C   UNL     1       1.075  -2.667  -4.770  0.00  0.00    +0.062 C 
ATOM      4  C   UNL     1       2.002  -3.631  -4.772  0.00  0.00    +0.021 C 
ATOM      5  C   UNL     1       2.789  -4.026  -3.557  0.00  0.00    +0.086 C 
ATOM      6  C   UNL     1       2.104  -3.507  -2.291  0.00  0.00    +0.082 C 
ATOM      7  C   UNL     1       0.805  -4.281  -2.060  0.00  0.00    +0.042 C 
ENDROOT
BRANCH   2   8
ATOM      8  C   UNL     1       0.556  -0.425  -3.922  0.00  0.00    -0.039 A 
ATOM      9  C   UNL     1       1.630   0.266  -4.450  0.00  0.00    +0.005 A 
ATOM     10  C   UNL     1       1.495   1.598  -4.793  0.00  0.00    +0.015 A 
ATOM     11  C   UNL     1       0.284   2.240  -4.608  0.00  0.00    +0.018 A 
ATOM     12  C   UNL     1      -0.792   1.548  -4.080  0.00  0.00    +0.015 A 
ATOM     13  C   UNL     1      -0.657   0.215  -3.742  0.00  0.00    +0.005 A 
ATOM     14 BR   UNL     1       0.098   4.063  -5.077  0.00  0.00    -0.050 Br
ENDBRANCH   2   8
BRANCH   1  15
ATOM     15  C   UNL     1       1.300  -1.435  -1.181  0.00  0.00    +0.314 C 
ATOM     16  O   UNL     1       1.216  -2.134  -0.199  0.00  0.00    -0.250 OA
BRANCH  15  17
ATOM     17  O   UNL     1       0.956  -0.139  -1.113  0.00  0.00    -0.465 OA
BRANCH  17  19
ATOM     18  C   UNL     1       0.158   1.833   0.033  0.00  0.00    +0.048 C 
ATOM     19  C   UNL     1       0.500   0.346   0.151  0.00  0.00    +0.229 C 
ENDBRANCH  17  19
ENDBRANCH  15  17
ENDBRANCH   1  15
BRANCH   3  20
ATOM     20  C   UNL     1       0.411  -2.376  -5.982  0.00  0.00    +0.337 C 
ATOM     21  O   UNL     1       0.764  -2.915  -7.014  0.00  0.00    -0.245 OA
BRANCH  20  22
ATOM     22  O   UNL     1      -0.616  -1.500  -5.995  0.00  0.00    -0.462 OA
BRANCH  22  23
ATOM     23  C   UNL     1      -1.315  -1.338  -7.231  0.00  0.00    +0.229 C 
ATOM     24  C   UNL     1      -2.356  -0.226  -7.086  0.00  0.00    +0.048 C 
ENDBRANCH  22  23
ENDBRANCH  20  22
ENDBRANCH   3  20
BRANCH   4  25
ATOM     25  N   UNL     1       2.246  -4.292  -5.944  0.00  0.00    -0.317 N 
ATOM     26  H   UNL     1       2.563  -3.803  -6.719  0.00  0.00    +0.152 HD
BRANCH  25  27
ATOM     27  C   UNL     1       2.038  -5.671  -6.024  0.00  0.00    +0.031 A 
ATOM     28  C   UNL     1       1.376  -6.337  -5.000  0.00  0.00    +0.023 A 
ATOM     29  C   UNL     1       1.173  -7.700  -5.083  0.00  0.00    +0.002 A 
ATOM     30  C   UNL     1       1.628  -8.403  -6.183  0.00  0.00    +0.000 A 
ATOM     31  C   UNL     1       2.288  -7.744  -7.204  0.00  0.00    +0.002 A 
ATOM     32  C   UNL     1       2.489  -6.380  -7.131  0.00  0.00    +0.023 A 
ENDBRANCH  25  27
ENDBRANCH   4  25
BRANCH   6  33
ATOM     33  O   UNL     1       2.973  -3.675  -1.169  0.00  0.00    -0.388 OA
ATOM     34  H   UNL     1       3.213  -4.595  -0.992  0.00  0.00    +0.210 HD
ENDBRANCH   6  33
TORSDOF 10
