REMARK  Name = ZINC63705040
REMARK  5 active torsions:
REMARK  status: ('A' for Active; 'I' for Inactive)
REMARK    1  A    between atoms: C_7  and  C_10
REMARK    2  A    between atoms: C_10  and  C_11
REMARK    3  A    between atoms: C_11  and  N_12
REMARK    4  A    between atoms: C_13  and  C_15
REMARK    5  A    between atoms: C_18  and  N_21
REMARK                            x       y       z     vdW  Elec       q    Type
REMARK                         _______ _______ _______ _____ _____    ______ ____
ROOT
ATOM      1  C   UNL     1      -1.731  -6.531  -2.622  0.00  0.00    +0.037 A 
ATOM      2  C   UNL     1      -2.243  -7.016  -1.413  0.00  0.00    +0.015 A 
ATOM      3  C   UNL     1      -3.095  -8.081  -1.411  0.00  0.00    +0.028 A 
ATOM      4  C   UNL     1      -3.457  -8.690  -2.619  0.00  0.00    +0.067 A 
ATOM      5  C   UNL     1      -2.945  -8.205  -3.828  0.00  0.00    +0.028 A 
ATOM      6  C   UNL     1      -2.097  -7.136  -3.830  0.00  0.00    +0.015 A 
ENDROOT
BRANCH   4   7
ATOM      7  N   UNL     1      -4.308  -9.755  -2.617  0.00  0.00    -0.226 NA
ATOM      8  C   UNL     1      -5.297  -9.809  -3.485  0.00  0.00    +0.155 C 
ATOM      9  N   UNL     1      -5.618  -8.874  -4.474  0.00  0.00    -0.318 N 
ATOM     10  C   UNL     1      -6.888  -9.079  -5.099  0.00  0.00    +0.108 C 
ATOM     11  C   UNL     1      -7.340  -8.361  -6.361  0.00  0.00    +0.189 C 
ATOM     12  S   UNL     1      -8.813  -9.390  -6.810  0.00  0.00    -0.028 S 
ATOM     13  O   UNL     1      -8.626  -9.924  -8.114  0.00  0.00    -0.174 OA
ATOM     14  O   UNL     1      -9.996  -8.659  -6.516  0.00  0.00    -0.174 OA
ATOM     15  C   UNL     1      -8.614 -10.749  -5.564  0.00  0.00    +0.182 C 
ATOM     16  C   UNL     1      -7.090 -10.623  -5.344  0.00  0.00    +0.097 C 
ATOM     17  S   UNL     1      -6.532 -11.105  -3.667  0.00  0.00    -0.084 S 
ATOM     18  H   UNL     1      -5.027  -8.145  -4.717  0.00  0.00    +0.148 HD
ENDBRANCH   4   7
BRANCH   1  20
ATOM     19  N   UNL     1      -0.458  -4.798  -1.460  0.00  0.00    -0.311 N 
ATOM     20  C   UNL     1      -0.811  -5.380  -2.623  0.00  0.00    +0.244 C 
ATOM     21  O   UNL     1      -0.369  -4.956  -3.674  0.00  0.00    -0.270 OA
ATOM     22  H   UNL     1      -0.810  -5.136  -0.622  0.00  0.00    +0.149 HD
BRANCH  19  23
ATOM     23  C   UNL     1       0.457  -3.653  -1.462  0.00  0.00    +0.109 C 
BRANCH  23  24
ATOM     24  C   UNL     1       0.691  -3.186  -0.024  0.00  0.00    +0.052 C 
BRANCH  24  31
ATOM     25  C   UNL     1      -0.016   1.348   0.009  0.00  0.00    +0.001 A 
ATOM     26  C   UNL     1       1.166   2.101   0.002  0.00  0.00    +0.002 A 
ATOM     27  C   UNL     1       2.391   1.535  -0.013  0.00  0.00    +0.026 A 
ATOM     28  C   UNL     1       2.529   0.120  -0.022  0.00  0.00    +0.043 A 
ATOM     29  N   UNL     1       3.587  -0.654  -0.037  0.00  0.00    -0.380 N 
ATOM     30  C   UNL     1       3.143  -2.053  -0.041  0.00  0.00    +0.144 C 
ATOM     31  C   UNL     1       1.631  -2.008  -0.025  0.00  0.00    -0.040 C 
ATOM     32  C   UNL     1       1.295  -0.698  -0.014  0.00  0.00    -0.001 A 
ATOM     33  C   UNL     1       0.002  -0.004   0.002  0.00  0.00    +0.010 A 
ATOM     34  H   UNL     1       4.509  -0.353  -0.045  0.00  0.00    +0.160 HD
ENDBRANCH  24  31
ENDBRANCH  23  24
ENDBRANCH  19  23
ENDBRANCH   1  20
TORSDOF 5
