REMARK  Name = ZINC11706623
REMARK  9 active torsions:
REMARK  status: ('A' for Active; 'I' for Inactive)
REMARK    1  A    between atoms: C_1  and  C_2
REMARK    2  A    between atoms: C_6  and  C_12
REMARK    3  A    between atoms: C_12  and  N_13
REMARK    4  A    between atoms: C_14  and  C_16
REMARK    5  A    between atoms: C_16  and  C_17
REMARK    6  A    between atoms: C_24  and  C_25
REMARK    7  A    between atoms: C_24  and  N_54
REMARK    8  A    between atoms: C_25  and  C_26
REMARK    9  A    between atoms: C_25  and  C_27
REMARK                            x       y       z     vdW  Elec       q    Type
REMARK                         _______ _______ _______ _____ _____    ______ ____
ROOT
ATOM      1  N   UNL     1      -0.930   5.228   2.325  0.00  0.00    -0.311 N 
ATOM      2  C   UNL     1      -1.118   3.919   2.584  0.00  0.00    +0.212 C 
ATOM      3  O   UNL     1      -1.960   3.295   1.974  0.00  0.00    -0.276 OA
ATOM      4  H   UNL     1      -0.256   5.727   2.812  0.00  0.00    +0.149 HD
ENDROOT
BRANCH   1   5
ATOM      5  C   UNL     1      -1.743   5.897   1.306  0.00  0.00    +0.139 C 
BRANCH   5  11
ATOM      6  C   UNL     1       1.762  12.194  -0.767  0.00  0.00    +0.063 C 
ATOM      7  C   UNL     1       0.924  11.082  -0.193  0.00  0.00    +0.014 A 
ATOM      8  C   UNL     1       1.015   9.789  -0.542  0.00  0.00    +0.030 A 
ATOM      9  C   UNL     1       0.026   9.059   0.255  0.00  0.00    +0.000 A 
ATOM     10  C   UNL     1      -0.350   7.717   0.343  0.00  0.00    +0.015 A 
ATOM     11  C   UNL     1      -1.337   7.345   1.211  0.00  0.00    -0.030 A 
ATOM     12  C   UNL     1      -1.974   8.292   2.003  0.00  0.00    +0.007 A 
ATOM     13  C   UNL     1      -1.614   9.620   1.936  0.00  0.00    +0.026 A 
ATOM     14  C   UNL     1      -0.612  10.021   1.059  0.00  0.00    +0.047 A 
ATOM     15  N   UNL     1      -0.043  11.239   0.763  0.00  0.00    -0.358 N 
ATOM     16  H   UNL     1      -0.291  12.084   1.170  0.00  0.00    +0.166 HD
ENDBRANCH   5  11
ENDBRANCH   1   5
BRANCH   2  17
ATOM     17  C   UNL     1      -0.282   3.230   3.632  0.00  0.00    +0.089 C 
BRANCH  17  18
ATOM     18  C   UNL     1      -0.608   1.735   3.643  0.00  0.00    +0.028 C 
ATOM     19  C   UNL     1      -0.258   1.140   2.309  0.00  0.00    +0.200 C 
ATOM     20  O   UNL     1       0.784   1.468   1.782  0.00  0.00    -0.278 OA
ATOM     21  N   UNL     1      -1.047   0.264   1.678  0.00  0.00    -0.318 N 
ATOM     22  C   UNL     1      -2.337  -0.168   2.209  0.00  0.00    +0.085 C 
ATOM     23  C   UNL     1      -2.419   0.144   3.704  0.00  0.00    -0.059 C 
ATOM     24  H   UNL     1      -0.749  -0.101   0.831  0.00  0.00    +0.149 HD
ATOM     25  N   UNL     1      -2.051   1.561   3.897  0.00  0.00    +0.389 N 
ATOM     26  H   UNL     1      -2.580   2.139   3.233  0.00  0.00    -0.081 HD
BRANCH  25  27
ATOM     27  C   UNL     1      -2.378   1.989   5.276  0.00  0.00    -0.075 C 
BRANCH  27  28
ATOM     28  C   UNL     1      -3.894   2.155   5.396  0.00  0.00    -0.034 C 
ATOM     29  C   UNL     1      -4.357   3.289   4.479  0.00  0.00    +0.005 C 
ATOM     30  C   UNL     1      -4.257   2.490   6.845  0.00  0.00    +0.005 C 
ENDBRANCH  27  28
ENDBRANCH  25  27
ENDBRANCH  17  18
ENDBRANCH   2  17
TORSDOF 6
