REMARK  Name = ZINC09484536
REMARK  9 active torsions:
REMARK  status: ('A' for Active; 'I' for Inactive)
REMARK    1  A    between atoms: C_1  and  C_2
REMARK    2  A    between atoms: C_10  and  C_12
REMARK    3  A    between atoms: C_14  and  O_21
REMARK    4  A    between atoms: C_15  and  O_20
REMARK    5  A    between atoms: C_16  and  O_18
REMARK    6  A    between atoms: O_18  and  C_19
REMARK    7  A    between atoms: O_21  and  C_22
REMARK    8  A    between atoms: C_26  and  C_29
REMARK    9  A    between atoms: C_32  and  O_35
REMARK                            x       y       z     vdW  Elec       q    Type
REMARK                         _______ _______ _______ _____ _____    ______ ____
ROOT
ATOM      1  C   UNL     1      -1.232   2.195   0.020  0.00  0.00    +0.069 C 
ATOM      2  C   UNL     1      -0.016   1.306   0.009  0.00  0.00    +0.087 A 
ATOM      3  C   UNL     1       1.317   1.710  -0.001  0.00  0.00    +0.049 A 
ATOM      4  C   UNL     1       2.030   0.540  -0.017  0.00  0.00    +0.226 A 
ATOM      5  O   UNL     1       1.136  -0.442  -0.011  0.00  0.00    -0.339 OA
ATOM      6  N   UNL     1       0.002  -0.004   0.002  0.00  0.00    -0.081 NA
ATOM      7  N   UNL     1       3.410   0.546  -0.038  0.00  0.00    -0.286 N 
ATOM      8  C   UNL     1       4.058   1.722  -0.338  0.00  0.00    +0.019 C 
ATOM      9  C   UNL     1       3.431   2.917  -0.331  0.00  0.00    +0.024 C 
ATOM     10  C   UNL     1       1.960   3.060   0.004  0.00  0.00    +0.091 C 
ATOM     11  C   UNL     1       4.127   4.101  -0.640  0.00  0.00    +0.162 C 
ATOM     12  O   UNL     1       3.527   5.158  -0.646  0.00  0.00    -0.292 OA
ATOM     13  C   UNL     1       5.595   4.087  -0.963  0.00  0.00    +0.088 C 
ATOM     14  C   UNL     1       6.248   2.897  -0.252  0.00  0.00    +0.032 C 
ATOM     15  C   UNL     1       5.525   1.621  -0.688  0.00  0.00    +0.059 C 
ATOM     16  H   UNL     1       3.912  -0.261   0.154  0.00  0.00    +0.155 HD
ENDROOT
BRANCH  10  17
ATOM     17  C   UNL     1       1.814   3.680   1.370  0.00  0.00    -0.028 A 
ATOM     18  C   UNL     1       2.347   3.045   2.476  0.00  0.00    +0.054 A 
ATOM     19  C   UNL     1       2.220   3.616   3.734  0.00  0.00    +0.165 A 
ATOM     20  C   UNL     1       1.546   4.822   3.882  0.00  0.00    +0.201 A 
ATOM     21  C   UNL     1       1.007   5.455   2.768  0.00  0.00    +0.165 A 
ATOM     22  C   UNL     1       1.144   4.880   1.514  0.00  0.00    +0.054 A 
BRANCH  21  23
ATOM     23  O   UNL     1       0.346   6.635   2.909  0.00  0.00    -0.491 OA
ATOM     24  C   UNL     1      -0.182   7.228   1.721  0.00  0.00    +0.277 C 
ENDBRANCH  21  23
BRANCH  20  25
ATOM     25  O   UNL     1       1.413   5.382   5.116  0.00  0.00    -0.501 OA
ATOM     26  H   UNL     1       0.617   5.105   5.590  0.00  0.00    +0.292 HD
ENDBRANCH  20  25
BRANCH  19  27
ATOM     27  O   UNL     1       2.749   2.993   4.821  0.00  0.00    -0.491 OA
ATOM     28  C   UNL     1       3.428   1.756   4.593  0.00  0.00    +0.277 C 
ENDBRANCH  19  27
ENDBRANCH  10  17
BRANCH  14  29
ATOM     29  C   UNL     1       7.703   2.812  -0.635  0.00  0.00    -0.043 A 
ATOM     30  C   UNL     1       8.059   2.660  -1.962  0.00  0.00    +0.007 A 
ATOM     31  C   UNL     1       9.393   2.588  -2.317  0.00  0.00    +0.045 A 
ATOM     32  C   UNL     1      10.374   2.656  -1.338  0.00  0.00    +0.117 A 
ATOM     33  C   UNL     1      10.013   2.803  -0.007  0.00  0.00    +0.045 A 
ATOM     34  C   UNL     1       8.679   2.880   0.342  0.00  0.00    +0.007 A 
BRANCH  32  35
ATOM     35  O   UNL     1      11.686   2.579  -1.684  0.00  0.00    -0.507 OA
ATOM     36  H   UNL     1      12.037   1.678  -1.695  0.00  0.00    +0.292 HD
ENDBRANCH  32  35
ENDBRANCH  14  29
TORSDOF 6
