REMARK  Name = ZINC49739050
REMARK  4 active torsions:
REMARK  status: ('A' for Active; 'I' for Inactive)
REMARK    1  A    between atoms: C_4  and  C_7
REMARK    2  A    between atoms: C_11  and  C_13
REMARK    3  A    between atoms: N_15  and  C_16
REMARK    4  A    between atoms: C_16  and  C_17
REMARK                            x       y       z     vdW  Elec       q    Type
REMARK                         _______ _______ _______ _____ _____    ______ ____
ROOT
ATOM      1  C   UNL     1       4.977  -4.229  -0.081  0.00  0.00    +0.244 C 
ATOM      2  O   UNL     1       3.939  -4.860  -0.079  0.00  0.00    -0.270 OA
ATOM      3  N   UNL     1       6.159  -4.876  -0.097  0.00  0.00    -0.307 N 
ATOM      4  H   UNL     1       6.988  -4.372  -0.098  0.00  0.00    +0.149 HD
ENDROOT
BRANCH   1   9
ATOM      5  C   UNL     1       3.699  -0.689  -0.037  0.00  0.00    -0.017 A 
ATOM      6  C   UNL     1       4.896   0.026  -0.040  0.00  0.00    +0.008 A 
ATOM      7  C   UNL     1       6.104  -0.643  -0.056  0.00  0.00    +0.001 A 
ATOM      8  C   UNL     1       6.135  -2.023  -0.069  0.00  0.00    +0.013 A 
ATOM      9  C   UNL     1       4.944  -2.751  -0.066  0.00  0.00    +0.037 A 
ATOM     10  C   UNL     1       3.722  -2.079  -0.045  0.00  0.00    +0.021 A 
BRANCH   5  14
ATOM     11  C   UNL     1      -0.017   1.379   0.010  0.00  0.00    +0.000 A 
ATOM     12  C   UNL     1       1.169   2.092   0.002  0.00  0.00    +0.001 A 
ATOM     13  C   UNL     1       2.377   1.426  -0.013  0.00  0.00    +0.008 A 
ATOM     14  C   UNL     1       2.402   0.033  -0.021  0.00  0.00    -0.018 A 
ATOM     15  C   UNL     1       1.205  -0.680  -0.013  0.00  0.00    +0.008 A 
ATOM     16  C   UNL     1       0.002  -0.004   0.002  0.00  0.00    +0.001 A 
ENDBRANCH   5  14
ENDBRANCH   1   9
BRANCH   3  17
ATOM     17  C   UNL     1       6.193  -6.340  -0.111  0.00  0.00    +0.158 C 
BRANCH  17  18
ATOM     18  C   UNL     1       7.646  -6.817  -0.127  0.00  0.00    +0.276 C 
ATOM     19  C   UNL     1       7.680  -8.325  -0.140  0.00  0.00    +0.260 C 
ATOM     20  O   UNL     1       7.755  -8.941   0.902  0.00  0.00    -0.271 OA
ATOM     21  N   UNL     1       7.626  -8.985  -1.315  0.00  0.00    -0.279 N 
ATOM     22  C   UNL     1       7.667  -8.257  -2.512  0.00  0.00    +0.076 A 
ATOM     23  C   UNL     1       7.387  -8.872  -3.721  0.00  0.00    +0.027 A 
ATOM     24  C   UNL     1       7.420  -8.136  -4.891  0.00  0.00    +0.002 A 
ATOM     25  C   UNL     1       7.729  -6.789  -4.857  0.00  0.00    +0.004 A 
ATOM     26  C   UNL     1       8.014  -6.170  -3.654  0.00  0.00    +0.047 A 
ATOM     27  C   UNL     1       7.990  -6.902  -2.479  0.00  0.00    +0.143 A 
ATOM     28  O   UNL     1       8.300  -6.312  -1.294  0.00  0.00    -0.476 OA
ATOM     29  H   UNL     1       7.559  -9.953  -1.332  0.00  0.00    +0.155 HD
ENDBRANCH  17  18
ENDBRANCH   3  17
TORSDOF 4
