REMARK  Name = ZINC39710271
REMARK  12 active torsions:
REMARK  status: ('A' for Active; 'I' for Inactive)
REMARK    1  A    between atoms: C_1  and  C_2
REMARK    2  A    between atoms: C_9  and  C_14
REMARK    3  A    between atoms: C_14  and  C_16
REMARK    4  A    between atoms: C_14  and  N_25
REMARK    5  A    between atoms: N_20  and  C_21
REMARK    6  A    between atoms: C_21  and  C_22
REMARK    7  A    between atoms: C_22  and  O_23
REMARK    8  A    between atoms: O_23  and  C_24
REMARK    9  A    between atoms: N_25  and  C_26
REMARK   10  A    between atoms: N_25  and  C_33
REMARK   11  A    between atoms: C_26  and  C_27
REMARK   12  A    between atoms: C_33  and  C_34
REMARK                            x       y       z     vdW  Elec       q    Type
REMARK                         _______ _______ _______ _____ _____    ______ ____
ROOT
ATOM      1  C   UNL     1       2.866  -5.829   1.613  0.00  0.00    +0.019 C 
ENDROOT
BRANCH   1  10
ATOM      2  C   UNL     1       4.253  -1.652  -4.011  0.00  0.00    +0.044 C 
ATOM      3  C   UNL     1       4.121  -2.988  -3.327  0.00  0.00    -0.050 A 
ATOM      4  C   UNL     1       4.802  -4.090  -3.845  0.00  0.00    +0.005 A 
ATOM      5  C   UNL     1       4.732  -5.325  -3.282  0.00  0.00    +0.024 A 
ATOM      6  C   UNL     1       3.953  -5.543  -2.131  0.00  0.00    +0.040 A 
ATOM      7  N   UNL     1       3.892  -6.759  -1.588  0.00  0.00    -0.285 N 
ATOM      8  C   UNL     1       3.180  -7.032  -0.508  0.00  0.00    +0.223 C 
ATOM      9  O   UNL     1       3.163  -8.162  -0.058  0.00  0.00    -0.275 OA
ATOM     10  C   UNL     1       2.386  -5.935   0.165  0.00  0.00    +0.092 C 
ATOM     11  C   UNL     1       2.452  -4.550  -0.449  0.00  0.00    -0.006 C 
ATOM     12  C   UNL     1       3.223  -4.397  -1.563  0.00  0.00    -0.007 A 
ATOM     13  C   UNL     1       3.347  -3.093  -2.216  0.00  0.00    +0.012 A 
ATOM     14  H   UNL     1       4.394  -7.477  -2.005  0.00  0.00    +0.155 HD
ENDBRANCH   1  10
BRANCH   1  15
ATOM     15  C   UNL     1       4.363  -5.651   1.635  0.00  0.00    +0.139 A 
ATOM     16  N   UNL     1       5.263  -6.553   1.325  0.00  0.00    -0.115 NA
ATOM     17  N   UNL     1       6.426  -6.019   1.468  0.00  0.00    -0.023 NA
ATOM     18  N   UNL     1       6.293  -4.800   1.860  0.00  0.00    -0.044 NA
ATOM     19  N   UNL     1       5.035  -4.534   1.969  0.00  0.00    -0.229 N 
BRANCH  19  20
ATOM     20  C   UNL     1       4.448  -3.257   2.384  0.00  0.00    +0.175 C 
BRANCH  20  21
ATOM     21  C   UNL     1       4.164  -3.290   3.887  0.00  0.00    +0.183 C 
BRANCH  21  22
ATOM     22  O   UNL     1       3.650  -2.023   4.302  0.00  0.00    -0.381 OA
ATOM     23  C   UNL     1       3.349  -1.947   5.697  0.00  0.00    +0.194 C 
ENDBRANCH  21  22
ENDBRANCH  20  21
ENDBRANCH  19  20
ENDBRANCH   1  15
BRANCH   1  24
ATOM     24  N   UNL     1       2.509  -7.055   2.339  0.00  0.00    +0.394 N 
ATOM     25  H   UNL     1       2.850  -7.858   1.832  0.00  0.00    -0.080 HD
BRANCH  24  26
ATOM     26  C   UNL     1       3.115  -7.027   3.677  0.00  0.00    -0.041 C 
BRANCH  26  27
ATOM     27  C   UNL     1       4.529  -7.545   3.598  0.00  0.00    -0.064 A 
ATOM     28  C   UNL     1       4.776  -8.804   3.085  0.00  0.00    +0.002 A 
ATOM     29  C   UNL     1       6.072  -9.278   3.013  0.00  0.00    +0.000 A 
ATOM     30  C   UNL     1       7.121  -8.493   3.454  0.00  0.00    +0.000 A 
ATOM     31  C   UNL     1       6.874  -7.234   3.967  0.00  0.00    +0.000 A 
ATOM     32  C   UNL     1       5.578  -6.757   4.035  0.00  0.00    +0.002 A 
ENDBRANCH  26  27
ENDBRANCH  24  26
BRANCH  24  33
ATOM     33  C   UNL     1       1.048  -7.141   2.466  0.00  0.00    -0.002 C 
BRANCH  33  34
ATOM     34  C   UNL     1       0.465  -7.703   1.195  0.00  0.00    +0.089 A 
ATOM     35  C   UNL     1       0.750  -8.905   0.664  0.00  0.00    +0.042 A 
ATOM     36  C   UNL     1      -0.014  -9.022  -0.520  0.00  0.00    +0.041 A 
ATOM     37  C   UNL     1      -0.721  -7.884  -0.641  0.00  0.00    +0.195 A 
ATOM     38  O   UNL     1      -0.430  -7.091   0.403  0.00  0.00    -0.470 OA
ENDBRANCH  33  34
ENDBRANCH  24  33
ENDBRANCH   1  24
TORSDOF 10
