REMARK  Name = ZINC09599911
REMARK  9 active torsions:
REMARK  status: ('A' for Active; 'I' for Inactive)
REMARK    1  A    between atoms: C_1  and  C_2
REMARK    2  A    between atoms: C_2  and  O_3
REMARK    3  A    between atoms: O_3  and  C_4
REMARK    4  A    between atoms: C_4  and  C_6
REMARK    5  A    between atoms: C_11  and  N_12
REMARK    6  A    between atoms: C_13  and  C_15
REMARK    7  A    between atoms: C_15  and  S_16
REMARK    8  A    between atoms: S_16  and  C_17
REMARK    9  A    between atoms: C_23  and  C_25
REMARK                            x       y       z     vdW  Elec       q    Type
REMARK                         _______ _______ _______ _____ _____    ______ ____
ROOT
ATOM      1  C   UNL     1      -2.393   9.819  -1.208  0.00  0.00    +0.160 A 
ATOM      2  N   UNL     1      -1.783   9.288  -0.158  0.00  0.00    -0.133 NA
ATOM      3  N   UNL     1      -1.689   8.040  -0.003  0.00  0.00    -0.125 NA
ATOM      4  C   UNL     1      -2.193   7.184  -0.876  0.00  0.00    +0.189 A 
ATOM      5  S   UNL     1      -2.881   8.328  -2.070  0.00  0.00    -0.024 S 
ATOM      6  N   UNL     1      -2.186   5.791  -0.872  0.00  0.00    -0.263 N 
ATOM      7  C   UNL     1      -1.597   5.123   0.139  0.00  0.00    +0.225 C 
ATOM      8  O   UNL     1      -1.073   5.735   1.046  0.00  0.00    -0.275 OA
ATOM      9  H   UNL     1      -2.605   5.302  -1.597  0.00  0.00    +0.157 HD
ENDROOT
BRANCH   7  10
ATOM     10  C   UNL     1      -1.590   3.616   0.144  0.00  0.00    +0.048 C 
ATOM     11  C   UNL     1      -0.868   3.106  -1.105  0.00  0.00    +0.019 C 
ATOM     12  C   UNL     1      -0.861   1.576  -1.100  0.00  0.00    -0.009 C 
ATOM     13  C   UNL     1      -0.134   1.074   0.149  0.00  0.00    +0.007 C 
ATOM     14  C   UNL     1      -0.856   1.584   1.398  0.00  0.00    -0.009 C 
ATOM     15  C   UNL     1      -0.863   3.114   1.393  0.00  0.00    +0.019 C 
ATOM     16  C   UNL     1      -2.296   1.067   1.403  0.00  0.00    +0.007 C 
ATOM     17  C   UNL     1      -3.022   1.569   0.153  0.00  0.00    -0.009 C 
ATOM     18  C   UNL     1      -2.301   1.059  -1.096  0.00  0.00    +0.007 C 
ATOM     19  C   UNL     1      -3.030   3.099   0.149  0.00  0.00    +0.019 C 
ENDBRANCH   7  10
BRANCH   1  20
ATOM     20  S   UNL     1      -2.645  11.509  -1.636  0.00  0.00    -0.088 S 
BRANCH  20  21
ATOM     21  C   UNL     1      -1.862  12.427  -0.281  0.00  0.00    +0.172 C 
BRANCH  21  23
ATOM     22  N   UNL     1      -1.498  14.789   0.356  0.00  0.00    -0.284 N 
ATOM     23  C   UNL     1      -2.008  13.906  -0.526  0.00  0.00    +0.227 C 
ATOM     24  O   UNL     1      -2.583  14.303  -1.517  0.00  0.00    -0.275 OA
ATOM     25  H   UNL     1      -1.096  14.473   1.180  0.00  0.00    +0.155 HD
BRANCH  22  31
ATOM     26  C   UNL     1      -0.499  16.993   0.484  0.00  0.00    +0.080 A 
ATOM     27  C   UNL     1      -0.564  18.361   0.205  0.00  0.00    +0.017 A 
ATOM     28  C   UNL     1      -1.657  18.876  -0.457  0.00  0.00    +0.001 A 
ATOM     29  C   UNL     1      -2.693  18.044  -0.850  0.00  0.00    +0.002 A 
ATOM     30  C   UNL     1      -2.641  16.690  -0.587  0.00  0.00    +0.024 A 
ATOM     31  C   UNL     1      -1.551  16.154   0.085  0.00  0.00    +0.047 A 
BRANCH  26  32
ATOM     32  C   UNL     1       0.667  16.435   1.192  0.00  0.00    +0.341 C 
ATOM     33  O   UNL     1       0.766  15.234   1.346  0.00  0.00    -0.245 OA
BRANCH  32  34
ATOM     34  O   UNL     1       1.622  17.257   1.669  0.00  0.00    -0.461 OA
BRANCH  34  36
ATOM     35  C   UNL     1       3.716  17.722   2.821  0.00  0.00    +0.048 C 
ATOM     36  C   UNL     1       2.742  16.638   2.355  0.00  0.00    +0.229 C 
ENDBRANCH  34  36
ENDBRANCH  32  34
ENDBRANCH  26  32
ENDBRANCH  22  31
ENDBRANCH  21  23
ENDBRANCH  20  21
ENDBRANCH   1  20
TORSDOF 8
