REMARK  Name = ZINC01243154
REMARK  5 active torsions:
REMARK  status: ('A' for Active; 'I' for Inactive)
REMARK    1  A    between atoms: C_5  and  C_7
REMARK    2  A    between atoms: C_13  and  C_28
REMARK    3  A    between atoms: C_14  and  C_21
REMARK    4  A    between atoms: C_16  and  C_19
REMARK    5  A    between atoms: C_17  and  N_18
REMARK                            x       y       z     vdW  Elec       q    Type
REMARK                         _______ _______ _______ _____ _____    ______ ____
ROOT
ATOM      1  C   UNL     1       8.052   4.574   1.679  0.00  0.00    +0.030 C 
ATOM      2  C   UNL     1       6.953   3.841   1.370  0.00  0.00    +0.080 A 
ATOM      3  C   UNL     1       6.496   3.351   0.064  0.00  0.00    +0.271 A 
ATOM      4  O   UNL     1       7.131   3.587  -0.947  0.00  0.00    -0.266 OA
ATOM      5  N   UNL     1       5.356   2.634   0.011  0.00  0.00    -0.257 N 
ATOM      6  C   UNL     1       4.687   2.405   1.196  0.00  0.00    +0.099 A 
ATOM      7  C   UNL     1       3.531   1.704   1.297  0.00  0.00    +0.057 C 
ATOM      8  C   UNL     1       2.924   1.124   0.035  0.00  0.00    +0.102 C 
ATOM      9  C   UNL     1       3.688   1.397  -1.244  0.00  0.00    +0.079 C 
ATOM     10  C   UNL     1       4.829   2.118  -1.179  0.00  0.00    +0.118 C 
ATOM     11  S   UNL     1       5.671   3.213   2.442  0.00  0.00    -0.065 S 
ENDROOT
BRANCH   1  16
ATOM     12  C   UNL     1       9.102   6.202  -1.531  0.00  0.00    +0.001 A 
ATOM     13  C   UNL     1      10.481   6.159  -1.415  0.00  0.00    +0.001 A 
ATOM     14  C   UNL     1      11.072   5.602  -0.295  0.00  0.00    +0.020 A 
ATOM     15  C   UNL     1      10.289   5.083   0.717  0.00  0.00    +0.048 A 
ATOM     16  C   UNL     1       8.894   5.124   0.607  0.00  0.00    -0.005 A 
ATOM     17  C   UNL     1       8.305   5.685  -0.532  0.00  0.00    +0.009 A 
ATOM     18 CL   UNL     1      11.033   4.383   2.121  0.00  0.00    -0.083 Cl
ENDBRANCH   1  16
BRANCH   8  19
ATOM     19  C   UNL     1       1.532   1.682  -0.119  0.00  0.00    -0.016 A 
ATOM     20  C   UNL     1       1.348   3.041  -0.295  0.00  0.00    +0.006 A 
ATOM     21  C   UNL     1       0.072   3.553  -0.436  0.00  0.00    +0.000 A 
ATOM     22  C   UNL     1      -1.020   2.707  -0.402  0.00  0.00    +0.001 A 
ATOM     23  C   UNL     1      -0.837   1.348  -0.231  0.00  0.00    +0.020 A 
ATOM     24  C   UNL     1       0.440   0.835  -0.084  0.00  0.00    +0.045 A 
ATOM     25 CL   UNL     1       0.670  -0.871   0.136  0.00  0.00    -0.083 Cl
ENDBRANCH   8  19
BRANCH   7  26
ATOM     26  C   UNL     1       2.913   1.520   2.544  0.00  0.00    +0.241 C 
ATOM     27  O   UNL     1       3.415   1.993   3.549  0.00  0.00    -0.271 OA
ATOM     28  N   UNL     1       1.764   0.820   2.630  0.00  0.00    -0.326 N 
ATOM     29  H   UNL     1       1.280   0.675   3.607  0.00  0.00    +0.145 HD
ATOM     30  H   UNL     1       1.312   0.392   1.723  0.00  0.00    +0.145 HD
ENDBRANCH   7  26
BRANCH  10  31
ATOM     31  N   UNL     1       5.511   2.358  -2.348  0.00  0.00    -0.343 N 
ATOM     32  H   UNL     1       5.125   1.967  -3.300  0.00  0.00    +0.144 HD
ATOM     33  H   UNL     1       6.444   2.941  -2.330  0.00  0.00    +0.144 HD
ENDBRANCH  10  31
BRANCH   9  34
ATOM     34  C   UNL     1       3.210   0.900  -2.500  0.00  0.00    +0.099 C 
ATOM     35  N   UNL     1       2.831   0.507  -3.495  0.00  0.00    -0.191 NA
ENDBRANCH   9  34
TORSDOF 5
