REMARK  Name = ZINC07449767
REMARK  10 active torsions:
REMARK  status: ('A' for Active; 'I' for Inactive)
REMARK    1  A    between atoms: C_1  and  C_2
REMARK    2  A    between atoms: C_5  and  O_26
REMARK    3  A    between atoms: C_6  and  N_8
REMARK    4  A    between atoms: C_9  and  C_11
REMARK    5  A    between atoms: C_11  and  C_13
REMARK    6  A    between atoms: C_11  and  S_14
REMARK    7  A    between atoms: S_14  and  C_15
REMARK    8  A    between atoms: C_18  and  C_21
REMARK    9  A    between atoms: N_19  and  N_20
REMARK   10  A    between atoms: O_26  and  C_27
REMARK                            x       y       z     vdW  Elec       q    Type
REMARK                         _______ _______ _______ _____ _____    ______ ____
ROOT
ATOM      1  C   UNL     1       0.279  -2.894   4.860  0.00  0.00    +0.137 C 
ATOM      2  C   UNL     1      -1.101  -3.388   5.301  0.00  0.00    +0.029 C 
ENDROOT
BRANCH   1   4
ATOM      3  N   UNL     1       0.050  -2.795   2.399  0.00  0.00    -0.282 N 
ATOM      4  C   UNL     1       0.149  -2.130   3.568  0.00  0.00    +0.230 C 
ATOM      5  O   UNL     1       0.134  -0.917   3.579  0.00  0.00    -0.274 OA
ATOM      6  H   UNL     1      -0.018  -3.762   2.396  0.00  0.00    +0.155 HD
BRANCH   3  12
ATOM      7  C   UNL     1       1.263   1.227  -0.157  0.00  0.00    +0.044 C 
ATOM      8  C   UNL     1       0.627  -0.137  -0.079  0.00  0.00    -0.048 A 
ATOM      9  C   UNL     1       0.040  -0.689  -1.202  0.00  0.00    +0.007 A 
ATOM     10  C   UNL     1      -0.546  -1.940  -1.136  0.00  0.00    +0.048 A 
ATOM     11  C   UNL     1      -0.545  -2.643   0.058  0.00  0.00    +0.141 A 
ATOM     12  C   UNL     1       0.047  -2.088   1.189  0.00  0.00    +0.076 A 
ATOM     13  C   UNL     1       0.637  -0.835   1.114  0.00  0.00    +0.030 A 
BRANCH  11  14
ATOM     14  O   UNL     1      -1.121  -3.873   0.124  0.00  0.00    -0.493 OA
ATOM     15  C   UNL     1      -1.709  -4.380  -1.076  0.00  0.00    +0.277 C 
ENDBRANCH  11  14
ENDBRANCH   3  12
ENDBRANCH   1   4
BRANCH   1  16
ATOM     16  S   UNL     1       0.969  -1.807   6.138  0.00  0.00    -0.072 S 
BRANCH  16  17
ATOM     17  C   UNL     1       1.195  -2.870   7.525  0.00  0.00    +0.209 A 
ATOM     18  N   UNL     1       0.919  -4.154   7.576  0.00  0.00    -0.120 NA
ATOM     19  N   UNL     1       1.205  -4.622   8.738  0.00  0.00    -0.123 NA
ATOM     20  C   UNL     1       1.682  -3.665   9.503  0.00  0.00    +0.217 A 
ATOM     21  N   UNL     1       1.696  -2.514   8.746  0.00  0.00    -0.221 N 
BRANCH  20  22
ATOM     22  C   UNL     1       2.124  -3.799  10.900  0.00  0.00    +0.173 A 
ATOM     23  C   UNL     1       2.389  -4.969  11.546  0.00  0.00    +0.053 A 
ATOM     24  C   UNL     1       2.779  -4.629  12.856  0.00  0.00    +0.042 A 
ATOM     25  C   UNL     1       2.732  -3.285  12.946  0.00  0.00    +0.196 A 
ATOM     26  O   UNL     1       2.341  -2.786  11.762  0.00  0.00    -0.460 OA
ENDBRANCH  20  22
BRANCH  21  27
ATOM     27  N   UNL     1       2.118  -1.275   9.136  0.00  0.00    -0.294 N 
ATOM     28  H   UNL     1       1.360  -0.744   9.537  0.00  0.00    +0.163 HD
ATOM     29  H   UNL     1       2.892  -1.342   9.779  0.00  0.00    +0.163 HD
ENDBRANCH  21  27
ENDBRANCH  16  17
ENDBRANCH   1  16
TORSDOF 7
