REMARK  Name = ZINC00696434
REMARK  9 active torsions:
REMARK  status: ('A' for Active; 'I' for Inactive)
REMARK    1  A    between atoms: C_5  and  N_7
REMARK    2  A    between atoms: N_10  and  C_11
REMARK    3  A    between atoms: N_10  and  C_18
REMARK    4  A    between atoms: C_11  and  C_12
REMARK    5  A    between atoms: C_18  and  C_19
REMARK    6  A    between atoms: N_21  and  C_22
REMARK    7  A    between atoms: N_21  and  C_32
REMARK    8  A    between atoms: C_22  and  C_23
REMARK    9  A    between atoms: C_32  and  C_33
REMARK                            x       y       z     vdW  Elec       q    Type
REMARK                         _______ _______ _______ _____ _____    ______ ____
ROOT
ATOM      1  C   UNL     1      -1.137  -4.871   0.300  0.00  0.00    +0.205 C 
ENDROOT
BRANCH   1   5
ATOM      2  N   UNL     1       1.236  -2.081  -0.021  0.00  0.00    -0.267 N 
ATOM      3  C   UNL     1       0.085  -2.774   0.088  0.00  0.00    +0.307 C 
ATOM      4  O   UNL     1      -0.979  -2.186   0.102  0.00  0.00    -0.252 OA
ATOM      5  N   UNL     1       0.114  -4.118   0.181  0.00  0.00    -0.274 N 
ATOM      6  H   UNL     1       2.079  -2.553  -0.115  0.00  0.00    +0.156 HD
BRANCH   2  11
ATOM      7  C   UNL     1       0.154   1.371   0.642  0.00  0.00    +0.002 A 
ATOM      8  C   UNL     1       1.173   2.087   0.042  0.00  0.00    +0.003 A 
ATOM      9  C   UNL     1       2.215   1.423  -0.579  0.00  0.00    +0.040 A 
ATOM     10  C   UNL     1       2.240   0.041  -0.603  0.00  0.00    +0.145 A 
ATOM     11  C   UNL     1       1.215  -0.681   0.000  0.00  0.00    +0.070 A 
ATOM     12  C   UNL     1       0.172  -0.010   0.623  0.00  0.00    +0.026 A 
ATOM     13  F   UNL     1       3.257  -0.608  -1.210  0.00  0.00    -0.204 F 
ENDBRANCH   2  11
BRANCH   5  14
ATOM     14  C   UNL     1       1.396  -4.826   0.164  0.00  0.00    +0.141 C 
BRANCH  14  15
ATOM     15  C   UNL     1       1.917  -4.971   1.595  0.00  0.00    +0.136 C 
ATOM     16  C   UNL     1       3.291  -5.688   1.597  0.00  0.00    +0.035 C 
ATOM     17  C   UNL     1       3.894  -5.165   2.930  0.00  0.00    +0.031 C 
ATOM     18  C   UNL     1       3.330  -3.730   3.004  0.00  0.00    +0.160 C 
ATOM     19  O   UNL     1       2.166  -3.678   2.169  0.00  0.00    -0.375 OA
ENDBRANCH  14  15
ENDBRANCH   5  14
ENDBRANCH   1   5
BRANCH   1  20
ATOM     20  C   UNL     1      -1.640  -5.229  -1.075  0.00  0.00    +0.234 C 
ATOM     21  O   UNL     1      -1.015  -4.889  -2.057  0.00  0.00    -0.274 OA
ATOM     22  N   UNL     1      -2.785  -5.928  -1.213  0.00  0.00    -0.291 N 
BRANCH  22  23
ATOM     23  C   UNL     1      -3.273  -6.276  -2.550  0.00  0.00    +0.143 C 
BRANCH  23  24
ATOM     24  C   UNL     1      -2.705  -7.610  -2.960  0.00  0.00    -0.026 A 
ATOM     25  C   UNL     1      -1.499  -7.669  -3.632  0.00  0.00    +0.009 A 
ATOM     26  C   UNL     1      -0.974  -8.890  -4.011  0.00  0.00    +0.050 A 
ATOM     27  C   UNL     1      -1.656 -10.059  -3.717  0.00  0.00    +0.166 A 
ATOM     28  C   UNL     1      -2.872 -10.000  -3.040  0.00  0.00    +0.167 A 
ATOM     29  C   UNL     1      -3.389  -8.773  -2.659  0.00  0.00    +0.054 A 
ATOM     30  O   UNL     1      -3.340 -11.272  -2.873  0.00  0.00    -0.453 OA
ATOM     31  C   UNL     1      -2.604 -12.079  -3.811  0.00  0.00    +0.466 C 
ATOM     32  O   UNL     1      -1.363 -11.367  -3.974  0.00  0.00    -0.453 OA
ENDBRANCH  23  24
ENDBRANCH  22  23
BRANCH  22  33
ATOM     33  C   UNL     1      -3.540  -6.338  -0.027  0.00  0.00    +0.150 C 
BRANCH  33  34
ATOM     34  C   UNL     1      -4.534  -5.265   0.332  0.00  0.00    +0.007 A 
ATOM     35  C   UNL     1      -5.818  -5.119  -0.077  0.00  0.00    +0.013 A 
ATOM     36  C   UNL     1      -6.552  -4.044   0.388  0.00  0.00    +0.008 A 
ATOM     37  C   UNL     1      -5.966  -3.167   1.239  0.00  0.00    +0.045 A 
ATOM     38  S   UNL     1      -4.329  -3.859   1.413  0.00  0.00    -0.100 S 
ENDBRANCH  33  34
ENDBRANCH  22  33
ENDBRANCH   1  20
TORSDOF 9
