REMARK  Name = ZINC27595809
REMARK  15 active torsions:
REMARK  status: ('A' for Active; 'I' for Inactive)
REMARK    1  A    between atoms: C_1  and  C_2
REMARK    2  A    between atoms: C_2  and  C_3
REMARK    3  A    between atoms: C_2  and  C_4
REMARK    4  A    between atoms: C_4  and  C_6
REMARK    5  A    between atoms: C_4  and  N_23
REMARK    6  A    between atoms: N_8  and  C_9
REMARK    7  A    between atoms: C_9  and  C_10
REMARK    8  A    between atoms: C_10  and  C_12
REMARK    9  A    between atoms: C_10  and  N_20
REMARK   10  A    between atoms: C_16  and  O_18
REMARK   11  A    between atoms: O_18  and  C_19
REMARK   12  A    between atoms: N_20  and  C_21
REMARK   13  A    between atoms: N_20  and  C_22
REMARK   14  A    between atoms: N_23  and  S_24
REMARK   15  A    between atoms: S_24  and  C_27
REMARK                            x       y       z     vdW  Elec       q    Type
REMARK                         _______ _______ _______ _____ _____    ______ ____
ROOT
ATOM      1  C   UNL     1      -4.264   8.621   3.305  0.00  0.00    +0.165 C 
ENDROOT
BRANCH   1   2
ATOM      2  C   UNL     1      -3.415   7.392   3.504  0.00  0.00    +0.232 C 
ATOM      3  O   UNL     1      -3.503   6.755   4.532  0.00  0.00    -0.274 OA
ATOM      4  N   UNL     1      -2.559   7.002   2.539  0.00  0.00    -0.315 N 
ATOM      5  H   UNL     1      -2.421   7.622   1.641  0.00  0.00    +0.149 HD
BRANCH   4   6
ATOM      6  C   UNL     1      -1.810   5.751   2.687  0.00  0.00    +0.093 C 
BRANCH   6   7
ATOM      7  C   UNL     1      -0.995   5.491   1.419  0.00  0.00    -0.021 C 
BRANCH   7   8
ATOM      8  C   UNL     1       0.045   6.570   1.261  0.00  0.00    -0.056 A 
ATOM      9  C   UNL     1       1.220   6.508   1.988  0.00  0.00    +0.002 A 
ATOM     10  C   UNL     1       2.179   7.493   1.841  0.00  0.00    +0.004 A 
ATOM     11  C   UNL     1       1.961   8.548   0.976  0.00  0.00    +0.045 A 
ATOM     12  C   UNL     1       0.783   8.613   0.246  0.00  0.00    +0.120 A 
ATOM     13  C   UNL     1      -0.175   7.620   0.391  0.00  0.00    +0.047 A 
BRANCH  12  14
ATOM     14  O   UNL     1       0.569   9.647  -0.609  0.00  0.00    -0.495 OA
ATOM     15  C   UNL     1       1.599  10.633  -0.706  0.00  0.00    +0.277 C 
ENDBRANCH  12  14
ENDBRANCH   7   8
BRANCH   7  16
ATOM     16  N   UNL     1      -0.334   4.184   1.520  0.00  0.00    +0.382 N 
ATOM     17  C   UNL     1      -1.314   3.114   1.749  0.00  0.00    -0.096 C 
ATOM     18  C   UNL     1       0.476   3.909   0.326  0.00  0.00    -0.096 C 
ATOM     19  H   UNL     1       0.343   4.214   2.388  0.00  0.00    -0.082 HD
ENDBRANCH   7  16
ENDBRANCH   6   7
ENDBRANCH   4   6
ENDBRANCH   1   2
BRANCH   1  21
ATOM     20  C   UNL     1      -5.154   7.748   1.139  0.00  0.00    +0.009 C 
ATOM     21  C   UNL     1      -5.532   8.246   2.536  0.00  0.00    +0.010 C 
ATOM     22  C   UNL     1      -6.276   7.141   3.287  0.00  0.00    +0.009 C 
ENDBRANCH   1  21
BRANCH   1  23
ATOM     23  N   UNL     1      -4.631   9.178   4.609  0.00  0.00    -0.178 NA
ATOM     24  H   UNL     1      -4.980   8.513   5.413  0.00  0.00    +0.149 HD
BRANCH  23  25
ATOM     25  S   UNL     1      -4.759  10.818   4.804  0.00  0.00    +0.059 S 
ATOM     26  O   UNL     1      -5.122  11.039   6.160  0.00  0.00    -0.153 OA
ATOM     27  O   UNL     1      -3.593  11.388   4.224  0.00  0.00    -0.153 OA
BRANCH  25  28
ATOM     28  C   UNL     1      -6.121  11.354   3.824  0.00  0.00    +0.106 A 
ATOM     29  C   UNL     1      -5.893  11.843   2.539  0.00  0.00    +0.029 A 
ATOM     30  C   UNL     1      -6.923  12.260   1.754  0.00  0.00    +0.010 A 
ATOM     31  C   UNL     1      -8.238  12.208   2.248  0.00  0.00    -0.018 A 
ATOM     32  C   UNL     1      -9.327  12.636   1.469  0.00  0.00    +0.008 A 
ATOM     33  C   UNL     1     -10.587  12.571   1.980  0.00  0.00    +0.001 A 
ATOM     34  C   UNL     1     -10.815  12.086   3.267  0.00  0.00    +0.001 A 
ATOM     35  C   UNL     1      -9.785  11.664   4.049  0.00  0.00    +0.008 A 
ATOM     36  C   UNL     1      -8.470  11.715   3.556  0.00  0.00    -0.016 A 
ATOM     37  C   UNL     1      -7.381  11.288   4.335  0.00  0.00    +0.037 A 
ENDBRANCH  25  28
ENDBRANCH  23  25
ENDBRANCH   1  23
TORSDOF 10
