REMARK  Name = ZINC19798679
REMARK  7 active torsions:
REMARK  status: ('A' for Active; 'I' for Inactive)
REMARK    1  A    between atoms: C_1  and  C_2
REMARK    2  A    between atoms: C_7  and  C_8
REMARK    3  A    between atoms: C_8  and  N_9
REMARK    4  A    between atoms: C_11  and  C_18
REMARK    5  A    between atoms: C_28  and  C_30
REMARK    6  A    between atoms: C_30  and  O_31
REMARK    7  A    between atoms: O_31  and  C_32
REMARK                            x       y       z     vdW  Elec       q    Type
REMARK                         _______ _______ _______ _____ _____    ______ ____
ROOT
ATOM      1  C   UNL     1      -4.128   2.163   3.461  0.00  0.00    +0.026 C 
ATOM      2  C   UNL     1      -3.871   3.519   3.379  0.00  0.00    +0.079 C 
ATOM      3  C   UNL     1      -4.958   4.530   3.482  0.00  0.00    +0.132 C 
ATOM      4  N   UNL     1      -6.022   4.367   4.225  0.00  0.00    -0.385 N 
ATOM      5  N   UNL     1      -4.729   5.681   2.698  0.00  0.00    -0.154 N 
ATOM      6  C   UNL     1      -3.424   5.973   2.365  0.00  0.00    +0.181 C 
ATOM      7  N   UNL     1      -2.358   5.253   2.608  0.00  0.00    -0.152 NA
ATOM      8  C   UNL     1      -2.498   4.043   3.191  0.00  0.00    +0.273 C 
ATOM      9  O   UNL     1      -1.525   3.398   3.548  0.00  0.00    -0.268 OA
ATOM     10  S   UNL     1      -3.594   7.526   1.525  0.00  0.00    -0.035 S 
ATOM     11  C   UNL     1      -5.377   7.630   1.585  0.00  0.00    +0.137 C 
ATOM     12  N   UNL     1      -5.695   6.552   2.243  0.00  0.00    -0.166 NA
ATOM     13  H   UNL     1      -6.131   3.556   4.745  0.00  0.00    +0.157 HD
ATOM     14  H   UNL     1      -6.702   5.058   4.256  0.00  0.00    +0.157 HD
ENDROOT
BRANCH   1  17
ATOM     15  N   UNL     1      -1.325   0.224   2.307  0.00  0.00    -0.342 N 
ATOM     16  C   UNL     1      -2.140   1.292   2.218  0.00  0.00    +0.095 A 
ATOM     17  C   UNL     1      -3.093   1.231   3.217  0.00  0.00    +0.001 A 
ATOM     18  C   UNL     1      -2.812  -0.003   3.978  0.00  0.00    +0.007 A 
ATOM     19  C   UNL     1      -1.699  -0.591   3.357  0.00  0.00    +0.050 A 
ATOM     20  C   UNL     1      -1.196  -1.788   3.855  0.00  0.00    +0.026 A 
ATOM     21  C   UNL     1      -1.792  -2.386   4.944  0.00  0.00    +0.002 A 
ATOM     22  C   UNL     1      -2.894  -1.804   5.553  0.00  0.00    +0.001 A 
ATOM     23  C   UNL     1      -3.403  -0.614   5.079  0.00  0.00    +0.010 A 
BRANCH  15  24
ATOM     24  C   UNL     1      -0.198  -0.041   1.409  0.00  0.00    +0.157 C 
BRANCH  24  31
ATOM     25  C   UNL     1      -1.461   0.812  -1.046  0.00  0.00    +0.044 C 
ATOM     26  C   UNL     1      -1.210  -0.653  -0.797  0.00  0.00    -0.046 A 
ATOM     27  C   UNL     1      -1.580  -1.589  -1.745  0.00  0.00    +0.004 A 
ATOM     28  C   UNL     1      -1.351  -2.932  -1.517  0.00  0.00    +0.000 A 
ATOM     29  C   UNL     1      -0.751  -3.341  -0.340  0.00  0.00    +0.000 A 
ATOM     30  C   UNL     1      -0.381  -2.406   0.608  0.00  0.00    +0.005 A 
ATOM     31  C   UNL     1      -0.606  -1.061   0.378  0.00  0.00    -0.025 A 
ENDBRANCH  24  31
ENDBRANCH  15  24
ENDBRANCH   1  17
BRANCH  11  32
ATOM     32  C   UNL     1      -6.282   8.694   1.018  0.00  0.00    +0.293 C 
BRANCH  32  33
ATOM     33  O   UNL     1      -7.643   8.365   1.306  0.00  0.00    -0.485 OA
BRANCH  33  34
ATOM     34  C   UNL     1      -8.594   9.228   0.861  0.00  0.00    +0.121 A 
ATOM     35  C   UNL     1      -8.225  10.365   0.157  0.00  0.00    +0.045 A 
ATOM     36  C   UNL     1      -9.194  11.240  -0.294  0.00  0.00    +0.004 A 
ATOM     37  C   UNL     1     -10.529  10.984  -0.045  0.00  0.00    +0.000 A 
ATOM     38  C   UNL     1     -10.899   9.852   0.657  0.00  0.00    +0.004 A 
ATOM     39  C   UNL     1      -9.935   8.970   1.105  0.00  0.00    +0.045 A 
ENDBRANCH  33  34
ENDBRANCH  32  33
ENDBRANCH  11  32
TORSDOF 6
