REMARK  Name = ZINC48346046
REMARK  4 active torsions:
REMARK  status: ('A' for Active; 'I' for Inactive)
REMARK    1  A    between atoms: C_1  and  O_2
REMARK    2  A    between atoms: O_2  and  N_3
REMARK    3  A    between atoms: C_4  and  C_6
REMARK    4  A    between atoms: N_9  and  C_11
REMARK                            x       y       z     vdW  Elec       q    Type
REMARK                         _______ _______ _______ _____ _____    ______ ____
ROOT
ATOM      1  C   UNL     1       1.405  -2.489  -2.435  0.00  0.00    +0.153 A 
ATOM      2  C   UNL     1       1.569  -3.861  -2.713  0.00  0.00    +0.006 A 
ATOM      3  C   UNL     1       2.244  -3.925  -3.883  0.00  0.00    +0.049 A 
ATOM      4  N   UNL     1       2.457  -2.650  -4.290  0.00  0.00    -0.236 N 
ATOM      5  N   UNL     1       1.961  -1.827  -3.434  0.00  0.00    -0.161 NA
ATOM      6  C   UNL     1       2.677  -5.191  -4.575  0.00  0.00    +0.056 C 
ATOM      7  C   UNL     1       1.501  -6.172  -4.612  0.00  0.00    +0.006 C 
ATOM      8  C   UNL     1       1.501  -7.027  -3.348  0.00  0.00    +0.001 C 
ATOM      9  C   UNL     1       2.014  -6.228  -2.152  0.00  0.00    +0.005 C 
ATOM     10  C   UNL     1       1.092  -5.031  -1.897  0.00  0.00    +0.039 C 
ENDROOT
BRANCH   4  11
ATOM     11  C   UNL     1       3.116  -2.282  -5.471  0.00  0.00    +0.066 A 
ATOM     12  C   UNL     1       4.175  -3.046  -5.943  0.00  0.00    +0.029 A 
ATOM     13  C   UNL     1       4.823  -2.681  -7.107  0.00  0.00    +0.022 A 
ATOM     14  C   UNL     1       4.417  -1.556  -7.803  0.00  0.00    +0.041 A 
ATOM     15  C   UNL     1       3.362  -0.793  -7.334  0.00  0.00    +0.022 A 
ATOM     16  C   UNL     1       2.707  -1.157  -6.174  0.00  0.00    +0.029 A 
ATOM     17 CL   UNL     1       5.234  -1.100  -9.265  0.00  0.00    -0.084 Cl
ENDBRANCH   4  11
BRANCH   1  19
ATOM     18  N   UNL     1       0.646  -0.565  -1.127  0.00  0.00    -0.190 N 
ATOM     19  C   UNL     1       0.733  -1.904  -1.258  0.00  0.00    +0.287 C 
ATOM     20  O   UNL     1       0.259  -2.630  -0.405  0.00  0.00    -0.266 OA
ATOM     21  H   UNL     1       1.024   0.014  -1.808  0.00  0.00    +0.183 HD
BRANCH  18  23
ATOM     22  C   UNL     1      -0.017   1.425   0.010  0.00  0.00    +0.226 C 
ATOM     23  O   UNL     1       0.002  -0.004   0.002  0.00  0.00    -0.283 OA
ENDBRANCH  18  23
ENDBRANCH   1  19
TORSDOF 3
