REMARK  Name = ZINC06594704
REMARK  5 active torsions:
REMARK  status: ('A' for Active; 'I' for Inactive)
REMARK    1  A    between atoms: C_1  and  C_2
REMARK    2  A    between atoms: C_2  and  O_3
REMARK    3  A    between atoms: O_3  and  C_4
REMARK    4  A    between atoms: C_4  and  C_6
REMARK    5  A    between atoms: C_11  and  C_13
REMARK                            x       y       z     vdW  Elec       q    Type
REMARK                         _______ _______ _______ _____ _____    ______ ____
ROOT
ATOM      1  C   UNL     1      -2.796  -2.397   0.016  0.00  0.00    +0.075 C 
ATOM      2  C   UNL     1      -2.982  -3.735   0.016  0.00  0.00    +0.086 C 
ATOM      3  N   UNL     1      -4.236  -4.273   0.025  0.00  0.00    -0.303 N 
ATOM      4  C   UNL     1      -5.357  -3.541   0.035  0.00  0.00    +0.135 C 
ATOM      5  N   UNL     1      -5.335  -2.194   0.036  0.00  0.00    -0.315 N 
ATOM      6  C   UNL     1      -4.028  -1.515   0.032  0.00  0.00    +0.141 C 
ATOM      7  S   UNL     1      -6.870  -4.344   0.046  0.00  0.00    -0.019 S 
ATOM      8  H   UNL     1      -6.160  -1.683   0.042  0.00  0.00    +0.149 HD
ATOM      9  H   UNL     1      -4.320  -5.239   0.024  0.00  0.00    +0.153 HD
ENDROOT
BRANCH   6  10
ATOM     10  C   UNL     1      -3.977  -0.623  -1.181  0.00  0.00    -0.019 A 
ATOM     11  C   UNL     1      -4.368  -1.111  -2.414  0.00  0.00    +0.009 A 
ATOM     12  C   UNL     1      -4.324  -0.296  -3.530  0.00  0.00    +0.050 A 
ATOM     13  C   UNL     1      -3.885   1.013  -3.415  0.00  0.00    +0.166 A 
ATOM     14  C   UNL     1      -3.491   1.505  -2.173  0.00  0.00    +0.167 A 
ATOM     15  C   UNL     1      -3.544   0.685  -1.058  0.00  0.00    +0.055 A 
ATOM     16  O   UNL     1      -3.106   2.806  -2.322  0.00  0.00    -0.453 OA
ATOM     17  C   UNL     1      -2.881   2.981  -3.733  0.00  0.00    +0.466 C 
ATOM     18  O   UNL     1      -3.747   2.005  -4.342  0.00  0.00    -0.453 OA
ENDBRANCH   6  10
BRANCH   1  19
ATOM     19  C   UNL     1      -1.497  -1.839   0.006  0.00  0.00    +0.338 C 
ATOM     20  O   UNL     1      -0.522  -2.567  -0.007  0.00  0.00    -0.245 OA
BRANCH  19  21
ATOM     21  O   UNL     1      -1.339  -0.499   0.012  0.00  0.00    -0.462 OA
BRANCH  21  23
ATOM     22  C   UNL     1      -0.019   1.526   0.010  0.00  0.00    +0.048 C 
ATOM     23  C   UNL     1       0.002  -0.004   0.002  0.00  0.00    +0.229 C 
ENDBRANCH  21  23
ENDBRANCH  19  21
ENDBRANCH   1  19
TORSDOF 4
