REMARK  Name = ZINC52566157
REMARK  7 active torsions:
REMARK  status: ('A' for Active; 'I' for Inactive)
REMARK    1  A    between atoms: C_7  and  C_10
REMARK    2  A    between atoms: C_10  and  C_11
REMARK    3  A    between atoms: C_11  and  C_13
REMARK    4  A    between atoms: C_11  and  N_31
REMARK    5  A    between atoms: C_13  and  O_14
REMARK    6  A    between atoms: O_14  and  C_15
REMARK    7  A    between atoms: C_17  and  C_21
REMARK                            x       y       z     vdW  Elec       q    Type
REMARK                         _______ _______ _______ _____ _____    ______ ____
ROOT
ATOM      1  C   UNL     1      -0.398  -4.923  -1.452  0.00  0.00    +0.213 C 
ENDROOT
BRANCH   1   2
ATOM      2  C   UNL     1       0.457  -3.653  -1.462  0.00  0.00    -0.033 C 
BRANCH   2   3
ATOM      3  N   UNL     1      -0.240  -2.600  -2.212  0.00  0.00    +0.382 N 
ATOM      4  H   UNL     1      -1.127  -2.405  -1.773  0.00  0.00    -0.089 HD
ATOM      5  H   UNL     1       0.323  -1.763  -2.218  0.00  0.00    -0.089 HD
ATOM      6  H   UNL     1      -0.394  -2.909  -3.160  0.00  0.00    -0.089 HD
ENDBRANCH   2   3
BRANCH   2   7
ATOM      7  C   UNL     1       0.691  -3.186  -0.024  0.00  0.00    +0.020 C 
BRANCH   7  14
ATOM      8  C   UNL     1      -0.016   1.348   0.009  0.00  0.00    +0.001 A 
ATOM      9  C   UNL     1       1.166   2.101   0.002  0.00  0.00    +0.002 A 
ATOM     10  C   UNL     1       2.391   1.535  -0.013  0.00  0.00    +0.026 A 
ATOM     11  C   UNL     1       2.529   0.120  -0.022  0.00  0.00    +0.043 A 
ATOM     12  N   UNL     1       3.587  -0.654  -0.037  0.00  0.00    -0.380 N 
ATOM     13  C   UNL     1       3.143  -2.053  -0.041  0.00  0.00    +0.144 C 
ATOM     14  C   UNL     1       1.631  -2.008  -0.025  0.00  0.00    -0.043 C 
ATOM     15  C   UNL     1       1.295  -0.698  -0.014  0.00  0.00    -0.001 A 
ATOM     16  C   UNL     1       0.002  -0.004   0.002  0.00  0.00    +0.010 A 
ATOM     17  H   UNL     1       4.509  -0.353  -0.045  0.00  0.00    +0.160 HD
ENDBRANCH   7  14
ENDBRANCH   2   7
ENDBRANCH   1   2
BRANCH   1  18
ATOM     18  O   UNL     1      -0.519  -5.425  -2.785  0.00  0.00    -0.492 OA
BRANCH  18  19
ATOM     19  C   UNL     1      -1.252  -6.557  -2.953  0.00  0.00    +0.139 A 
ATOM     20  C   UNL     1      -1.412  -7.110  -4.217  0.00  0.00    +0.057 A 
ATOM     21  C   UNL     1      -2.174  -8.274  -4.339  0.00  0.00    +0.004 A 
ATOM     22  C   UNL     1      -2.741  -8.832  -3.194  0.00  0.00    +0.119 A 
ATOM     23  N   UNL     1      -2.564  -8.274  -2.015  0.00  0.00    -0.259 NA
ATOM     24  C   UNL     1      -1.846  -7.178  -1.863  0.00  0.00    +0.156 A 
BRANCH  21  25
ATOM     25  C   UNL     1      -2.377  -8.907  -5.665  0.00  0.00    -0.016 A 
ATOM     26  C   UNL     1      -1.794  -8.334  -6.807  0.00  0.00    +0.010 A 
ATOM     27  C   UNL     1      -1.964  -8.893  -8.033  0.00  0.00    +0.029 A 
ATOM     28  C   UNL     1      -2.733 -10.063  -8.174  0.00  0.00    +0.071 A 
ATOM     29  C   UNL     1      -3.325 -10.648  -7.026  0.00  0.00    +0.001 A 
ATOM     30  C   UNL     1      -3.134 -10.059  -5.768  0.00  0.00    +0.018 A 
ATOM     31  C   UNL     1      -4.094 -11.819  -7.175  0.00  0.00    +0.011 A 
ATOM     32  C   UNL     1      -4.235 -12.341  -8.430  0.00  0.00    +0.020 A 
ATOM     33  C   UNL     1      -3.627 -11.716  -9.515  0.00  0.00    +0.111 A 
ATOM     34  N   UNL     1      -2.911 -10.626  -9.373  0.00  0.00    -0.255 NA
ENDBRANCH  21  25
ENDBRANCH  18  19
ENDBRANCH   1  18
TORSDOF 7
