REMARK  Name = ZINC05860866
REMARK  5 active torsions:
REMARK  status: ('A' for Active; 'I' for Inactive)
REMARK    1  A    between atoms: C_1  and  C_2
REMARK    2  A    between atoms: C_2  and  C_3
REMARK    3  A    between atoms: C_2  and  S_4
REMARK    4  A    between atoms: S_4  and  C_5
REMARK    5  A    between atoms: C_16  and  C_18
REMARK                            x       y       z     vdW  Elec       q    Type
REMARK                         _______ _______ _______ _____ _____    ______ ____
ROOT
ATOM      1  C   UNL     1       5.755   3.482   1.160  0.00  0.00    +0.171 A 
ATOM      2  N   UNL     1       5.878   2.126   1.192  0.00  0.00    -0.302 N 
ATOM      3  H   UNL     1       6.823   1.667   1.519  0.00  0.00    +0.171 HD
ATOM      4  C   UNL     1       4.843   1.342   0.824  0.00  0.00    +0.258 A 
ATOM      5  O   UNL     1       4.944   0.126   0.848  0.00  0.00    -0.267 OA
ATOM      6  C   UNL     1       3.651   1.951   0.414  0.00  0.00    +0.069 A 
ATOM      7  C   UNL     1       3.576   3.333   0.404  0.00  0.00    +0.135 A 
ATOM      8  N   UNL     1       4.635   4.060   0.776  0.00  0.00    -0.208 NA
ATOM      9  N   UNL     1       2.406   3.952   0.008  0.00  0.00    -0.302 N 
ATOM     10  C   UNL     1       1.222   3.266  -0.001  0.00  0.00    +0.017 C 
ATOM     11  C   UNL     1       1.202   1.917   0.001  0.00  0.00    +0.024 C 
ATOM     12  C   UNL     1       2.480   1.116  -0.010  0.00  0.00    +0.094 C 
ATOM     13  C   UNL     1      -0.014   1.211   0.009  0.00  0.00    +0.162 C 
ATOM     14  O   UNL     1       0.002  -0.004   0.002  0.00  0.00    -0.292 OA
ATOM     15  C   UNL     1      -1.335   1.930   0.019  0.00  0.00    +0.080 C 
ATOM     16  C   UNL     1      -1.156   3.286   0.716  0.00  0.00    +0.014 C 
ATOM     17  C   UNL     1      -0.060   4.062  -0.018  0.00  0.00    +0.051 C 
ATOM     18  H   UNL     1       2.421   5.006  -0.305  0.00  0.00    +0.153 HD
ENDROOT
BRANCH  12  19
ATOM     19  C   UNL     1       2.724   0.596  -1.403  0.00  0.00    -0.017 A 
ATOM     20  C   UNL     1       2.805  -0.768  -1.639  0.00  0.00    +0.007 A 
ATOM     21  C   UNL     1       3.030  -1.201  -2.937  0.00  0.00    +0.020 A 
ATOM     22  C   UNL     1       3.166  -0.266  -3.945  0.00  0.00    +0.111 A 
ATOM     23  N   UNL     1       3.083   1.024  -3.684  0.00  0.00    -0.263 NA
ATOM     24  C   UNL     1       2.864   1.472  -2.463  0.00  0.00    +0.115 A 
ENDBRANCH  12  19
BRANCH   1  25
ATOM     25  S   UNL     1       7.122   4.484   1.640  0.00  0.00    -0.085 S 
BRANCH  25  27
ATOM     26  C   UNL     1       5.252   6.329   2.390  0.00  0.00    +0.019 C 
ATOM     27  C   UNL     1       6.405   6.129   1.404  0.00  0.00    +0.048 C 
ATOM     28  C   UNL     1       7.476   7.193   1.649  0.00  0.00    +0.019 C 
ENDBRANCH  25  27
ENDBRANCH   1  25
TORSDOF 3
