REMARK  Name = ZINC38705476
REMARK  8 active torsions:
REMARK  status: ('A' for Active; 'I' for Inactive)
REMARK    1  A    between atoms: C_1  and  C_2
REMARK    2  A    between atoms: C_4  and  C_30
REMARK    3  A    between atoms: C_5  and  C_9
REMARK    4  A    between atoms: C_6  and  O_8
REMARK    5  A    between atoms: N_17  and  C_27
REMARK    6  A    between atoms: C_18  and  C_20
REMARK    7  A    between atoms: C_24  and  O_26
REMARK    8  A    between atoms: C_27  and  C_28
REMARK                            x       y       z     vdW  Elec       q    Type
REMARK                         _______ _______ _______ _____ _____    ______ ____
ROOT
ATOM      1  C   UNL     1       0.060  -4.346  -0.119  0.00  0.00    +0.102 A 
ATOM      2  C   UNL     1       0.160  -5.136   1.031  0.00  0.00    +0.035 A 
ATOM      3  C   UNL     1       0.122  -6.446   0.593  0.00  0.00    +0.126 A 
ATOM      4  N   UNL     1       0.003  -6.387  -0.767  0.00  0.00    -0.272 N 
ATOM      5  H   UNL     1      -0.049  -7.157  -1.355  0.00  0.00    +0.189 HD
ATOM      6  N   UNL     1      -0.036  -5.161  -1.151  0.00  0.00    -0.173 NA
ATOM      7  C   UNL     1       0.223  -7.331   1.758  0.00  0.00    +0.266 C 
ATOM      8  O   UNL     1       0.218  -8.547   1.709  0.00  0.00    -0.268 OA
ATOM      9  N   UNL     1       0.321  -6.609   2.888  0.00  0.00    -0.281 N 
ATOM     10  C   UNL     1       0.290  -5.185   2.529  0.00  0.00    +0.142 C 
ENDROOT
BRANCH   1  15
ATOM     11  C   UNL     1       0.046   1.414  -0.314  0.00  0.00    +0.044 C 
ATOM     12  C   UNL     1       0.048  -0.092  -0.261  0.00  0.00    -0.047 A 
ATOM     13  C   UNL     1       0.899  -0.810  -1.082  0.00  0.00    +0.007 A 
ATOM     14  C   UNL     1       0.907  -2.189  -1.040  0.00  0.00    -0.037 A 
ATOM     15  C   UNL     1       0.056  -2.862  -0.168  0.00  0.00    +0.047 A 
ATOM     16  C   UNL     1      -0.804  -2.135   0.661  0.00  0.00    +0.127 A 
ATOM     17  C   UNL     1      -0.797  -0.750   0.612  0.00  0.00    +0.049 A 
ATOM     18  C   UNL     1       1.836  -2.966  -1.937  0.00  0.00    +0.044 C 
BRANCH  16  19
ATOM     19  O   UNL     1      -1.638  -2.784   1.515  0.00  0.00    -0.506 OA
ATOM     20  H   UNL     1      -1.289  -2.876   2.412  0.00  0.00    +0.292 HD
ENDBRANCH  16  19
ENDBRANCH   1  15
BRANCH  10  21
ATOM     21  C   UNL     1       1.569  -4.513   2.960  0.00  0.00    -0.019 A 
ATOM     22  C   UNL     1       2.785  -5.128   2.727  0.00  0.00    +0.006 A 
ATOM     23  C   UNL     1       3.959  -4.514   3.121  0.00  0.00    +0.004 A 
ATOM     24  C   UNL     1       3.920  -3.284   3.751  0.00  0.00    +0.045 A 
ATOM     25  C   UNL     1       2.701  -2.666   3.986  0.00  0.00    +0.117 A 
ATOM     26  C   UNL     1       1.524  -3.281   3.584  0.00  0.00    +0.051 A 
BRANCH  25  27
ATOM     27  O   UNL     1       2.659  -1.457   4.606  0.00  0.00    -0.507 OA
ATOM     28  H   UNL     1       2.700  -0.704   4.000  0.00  0.00    +0.292 HD
ENDBRANCH  25  27
ENDBRANCH  10  21
BRANCH   9  29
ATOM     29  C   UNL     1       0.437  -7.149   4.245  0.00  0.00    +0.135 C 
BRANCH  29  30
ATOM     30  C   UNL     1       1.893  -7.335   4.588  0.00  0.00    -0.016 C 
ATOM     31  C   UNL     1       2.388  -6.779   5.666  0.00  0.00    +0.005 C 
ENDBRANCH  29  30
ENDBRANCH   9  29
TORSDOF 6
