REMARK  Name = ZINC16362330
REMARK  6 active torsions:
REMARK  status: ('A' for Active; 'I' for Inactive)
REMARK    1  A    between atoms: C_1  and  C_2
REMARK    2  A    between atoms: C_6  and  C_35
REMARK    3  A    between atoms: C_7  and  N_8
REMARK    4  A    between atoms: N_8  and  S_9
REMARK    5  A    between atoms: S_9  and  C_12
REMARK    6  A    between atoms: C_25  and  C_28
REMARK                            x       y       z     vdW  Elec       q    Type
REMARK                         _______ _______ _______ _____ _____    ______ ____
ROOT
ATOM      1  C   UNL     1       3.373   1.075   0.656  0.00  0.00    +0.109 A 
ATOM      2  C   UNL     1       2.001   1.250   0.657  0.00  0.00    +0.030 A 
ATOM      3  C   UNL     1       1.181   0.224   1.081  0.00  0.00    +0.025 A 
ATOM      4  C   UNL     1       1.734  -0.979   1.504  0.00  0.00    +0.031 A 
ATOM      5  C   UNL     1       3.108  -1.159   1.505  0.00  0.00    -0.018 A 
ATOM      6  C   UNL     1       3.923  -0.119   1.078  0.00  0.00    +0.034 A 
ATOM      7  C   UNL     1       3.739  -2.431   1.929  0.00  0.00    +0.049 C 
ATOM      8  C   UNL     1       4.364  -2.271   3.295  0.00  0.00    -0.023 C 
ATOM      9  C   UNL     1       4.231  -3.377   3.986  0.00  0.00    -0.030 C 
ATOM     10  C   UNL     1       3.491  -4.447   3.165  0.00  0.00    +0.033 C 
ATOM     11  C   UNL     1       2.739  -3.590   2.104  0.00  0.00    +0.029 C 
ATOM     12  C   UNL     1       1.456  -3.075   2.763  0.00  0.00    +0.106 C 
ATOM     13  N   UNL     1       0.889  -2.009   1.932  0.00  0.00    -0.336 N 
ATOM     14  H   UNL     1      -0.049  -2.017   1.684  0.00  0.00    +0.147 HD
ENDROOT
BRANCH  12  15
ATOM     15  C   UNL     1       1.772  -2.533   4.133  0.00  0.00    -0.013 A 
ATOM     16  C   UNL     1       2.219  -1.232   4.276  0.00  0.00    +0.006 A 
ATOM     17  C   UNL     1       2.509  -0.734   5.532  0.00  0.00    +0.000 A 
ATOM     18  C   UNL     1       2.351  -1.537   6.647  0.00  0.00    +0.001 A 
ATOM     19  C   UNL     1       1.905  -2.837   6.506  0.00  0.00    +0.015 A 
ATOM     20  C   UNL     1       1.610  -3.334   5.249  0.00  0.00    +0.023 A 
ATOM     21 BR   UNL     1       0.993  -5.111   5.056  0.00  0.00    -0.050 Br
ENDBRANCH  12  15
BRANCH   1  22
ATOM     22  S   UNL     1       4.424   2.382   0.115  0.00  0.00    +0.072 S 
ATOM     23  O   UNL     1       5.602   1.771  -0.395  0.00  0.00    -0.150 OA
ATOM     24  O   UNL     1       3.618   3.253  -0.667  0.00  0.00    -0.150 OA
BRANCH  22  25
ATOM     25  N   UNL     1       4.877   3.235   1.460  0.00  0.00    -0.216 N 
ATOM     26  H   UNL     1       4.544   4.136   1.597  0.00  0.00    +0.174 HD
BRANCH  25  33
ATOM     27  C   UNL     1       3.760   2.265   3.890  0.00  0.00    +0.046 C 
ATOM     28  C   UNL     1       5.235   2.171   3.596  0.00  0.00    -0.028 A 
ATOM     29  C   UNL     1       6.088   1.597   4.518  0.00  0.00    +0.005 A 
ATOM     30  C   UNL     1       7.443   1.515   4.251  0.00  0.00    +0.001 A 
ATOM     31  C   UNL     1       7.947   2.003   3.060  0.00  0.00    +0.005 A 
ATOM     32  C   UNL     1       7.098   2.574   2.131  0.00  0.00    -0.028 A 
ATOM     33  C   UNL     1       5.737   2.658   2.396  0.00  0.00    +0.054 A 
ATOM     34  C   UNL     1       7.649   3.106   0.833  0.00  0.00    +0.046 C 
ENDBRANCH  25  33
ENDBRANCH  22  25
ENDBRANCH   1  22
TORSDOF 4
