REMARK  Name = ZINC25162937
REMARK  9 active torsions:
REMARK  status: ('A' for Active; 'I' for Inactive)
REMARK    1  A    between atoms: C_4  and  C_7
REMARK    2  A    between atoms: C_9  and  C_13
REMARK    3  A    between atoms: N_15  and  C_16
REMARK    4  A    between atoms: C_16  and  C_17
REMARK    5  A    between atoms: C_17  and  C_18
REMARK    6  A    between atoms: C_18  and  C_19
REMARK    7  A    between atoms: C_20  and  C_32
REMARK    8  A    between atoms: C_21  and  N_31
REMARK    9  A    between atoms: N_22  and  C_24
REMARK                            x       y       z     vdW  Elec       q    Type
REMARK                         _______ _______ _______ _____ _____    ______ ____
ROOT
ATOM      1  C   UNL     1      -0.753   1.593  -1.232  0.00  0.00    +0.025 C 
ENDROOT
BRANCH   1   2
ATOM      2  C   UNL     1      -0.037   1.099  -2.490  0.00  0.00    +0.105 C 
BRANCH   2   5
ATOM      3  C   UNL     1      -0.292   1.272  -4.907  0.00  0.00    +0.264 C 
ATOM      4  O   UNL     1       0.705   0.587  -5.032  0.00  0.00    -0.268 OA
ATOM      5  N   UNL     1      -0.745   1.585  -3.677  0.00  0.00    -0.310 N 
ATOM      6  H   UNL     1      -1.647   2.204  -3.564  0.00  0.00    +0.149 HD
BRANCH   3   9
ATOM      7  C   UNL     1      -1.595   2.162  -8.198  0.00  0.00    +0.066 A 
ATOM      8  C   UNL     1      -0.652   1.516  -7.449  0.00  0.00    +0.062 A 
ATOM      9  C   UNL     1      -1.006   1.761  -6.104  0.00  0.00    +0.147 A 
ATOM     10  N   UNL     1      -2.096   2.503  -6.114  0.00  0.00    -0.169 NA
ATOM     11  N   UNL     1      -2.456   2.755  -7.322  0.00  0.00    -0.276 N 
ATOM     12  H   UNL     1      -3.306   3.343  -7.698  0.00  0.00    +0.189 HD
BRANCH   7  16
ATOM     13  C   UNL     1      -1.804   2.300 -12.439  0.00  0.00    +0.000 A 
ATOM     14  C   UNL     1      -2.757   2.956 -11.681  0.00  0.00    +0.001 A 
ATOM     15  C   UNL     1      -2.695   2.915 -10.303  0.00  0.00    +0.010 A 
ATOM     16  C   UNL     1      -1.668   2.210  -9.675  0.00  0.00    -0.000 A 
ATOM     17  C   UNL     1      -0.706   1.556 -10.445  0.00  0.00    +0.010 A 
ATOM     18  C   UNL     1      -0.782   1.600 -11.822  0.00  0.00    +0.001 A 
ENDBRANCH   7  16
ENDBRANCH   3   9
ENDBRANCH   2   5
ENDBRANCH   1   2
BRANCH   1  19
ATOM     19  C   UNL     1      -0.013   1.086   0.008  0.00  0.00    +0.060 C 
BRANCH  19  20
ATOM     20  C   UNL     1      -0.718   1.572   1.248  0.00  0.00    +0.083 A 
ATOM     21  C   UNL     1      -1.755   0.894   1.931  0.00  0.00    +0.114 A 
ATOM     22  C   UNL     1      -2.116   1.690   3.015  0.00  0.00    +0.138 A 
ATOM     23  N   UNL     1      -1.331   2.790   2.979  0.00  0.00    -0.217 N 
ATOM     24  N   UNL     1      -0.474   2.687   1.879  0.00  0.00    -0.168 NA
BRANCH  23  25
ATOM     25  C   UNL     1      -1.367   3.853   3.893  0.00  0.00    +0.068 A 
ATOM     26  C   UNL     1      -2.576   4.255   4.445  0.00  0.00    +0.030 A 
ATOM     27  C   UNL     1      -2.609   5.299   5.348  0.00  0.00    +0.040 A 
ATOM     28  C   UNL     1      -1.438   5.952   5.696  0.00  0.00    +0.124 A 
ATOM     29  C   UNL     1      -0.232   5.555   5.144  0.00  0.00    +0.040 A 
ATOM     30  C   UNL     1      -0.194   4.508   4.244  0.00  0.00    +0.030 A 
ATOM     31  F   UNL     1      -1.473   6.977   6.576  0.00  0.00    -0.205 F 
ENDBRANCH  23  25
BRANCH  22  32
ATOM     32  N   UNL     1      -3.092   1.408   3.951  0.00  0.00    -0.342 N 
ATOM     33  H   UNL     1      -3.291   2.116   4.769  0.00  0.00    +0.144 HD
ATOM     34  H   UNL     1      -3.671   0.475   3.879  0.00  0.00    +0.144 HD
ENDBRANCH  22  32
BRANCH  21  35
ATOM     35  C   UNL     1      -2.325  -0.370   1.575  0.00  0.00    +0.104 C 
ATOM     36  N   UNL     1      -2.777  -1.373   1.293  0.00  0.00    -0.191 NA
ENDBRANCH  21  35
ENDBRANCH  19  20
ENDBRANCH   1  19
TORSDOF 9
