REMARK  Name = ZINC58865439
REMARK  18 active torsions:
REMARK  status: ('A' for Active; 'I' for Inactive)
REMARK    1  A    between atoms: C_1  and  C_2
REMARK    2  A    between atoms: C_2  and  N_3
REMARK    3  A    between atoms: N_3  and  C_4
REMARK    4  A    between atoms: N_3  and  C_6
REMARK    5  A    between atoms: C_4  and  C_5
REMARK    6  A    between atoms: C_6  and  C_8
REMARK    7  A    between atoms: C_6  and  C_12
REMARK    8  A    between atoms: C_8  and  C_9
REMARK    9  A    between atoms: C_9  and  C_10
REMARK   10  A    between atoms: C_9  and  C_11
REMARK   11  A    between atoms: C_12  and  N_13
REMARK   12  A    between atoms: N_16  and  C_17
REMARK   13  A    between atoms: C_20  and  S_23
REMARK   14  A    between atoms: S_23  and  N_26
REMARK   15  A    between atoms: N_26  and  C_27
REMARK   16  A    between atoms: N_26  and  C_28
REMARK   17  A    between atoms: C_28  and  C_29
REMARK   18  A    between atoms: C_28  and  C_30
REMARK                            x       y       z     vdW  Elec       q    Type
REMARK                         _______ _______ _______ _____ _____    ______ ____
ROOT
ATOM      1  N   UNL     1       2.072   1.936   0.789  0.00  0.00    -0.301 N 
ATOM      2  C   UNL     1       2.463   3.155   1.210  0.00  0.00    +0.304 C 
ATOM      3  O   UNL     1       3.223   3.258   2.154  0.00  0.00    -0.253 OA
ATOM      4  N   UNL     1       2.013   4.260   0.584  0.00  0.00    -0.269 N 
ATOM      5  H   UNL     1       1.466   1.854   0.036  0.00  0.00    +0.150 HD
ATOM      6  H   UNL     1       1.351   4.183  -0.121  0.00  0.00    +0.156 HD
ENDROOT
BRANCH   4   7
ATOM      7  C   UNL     1       2.499   5.520   0.952  0.00  0.00    +0.035 A 
ATOM      8  C   UNL     1       1.673   6.634   0.875  0.00  0.00    +0.025 A 
ATOM      9  C   UNL     1       2.156   7.876   1.240  0.00  0.00    +0.030 A 
ATOM     10  C   UNL     1       3.459   8.010   1.681  0.00  0.00    +0.106 A 
ATOM     11  C   UNL     1       4.284   6.903   1.758  0.00  0.00    +0.030 A 
ATOM     12  C   UNL     1       3.806   5.658   1.401  0.00  0.00    +0.025 A 
BRANCH  10  13
ATOM     13  S   UNL     1       4.071   9.596   2.145  0.00  0.00    +0.061 S 
ATOM     14  O   UNL     1       5.484   9.544   2.004  0.00  0.00    -0.153 OA
ATOM     15  O   UNL     1       3.273  10.555   1.465  0.00  0.00    -0.153 OA
BRANCH  13  16
ATOM     16  N   UNL     1       3.764   9.786   3.761  0.00  0.00    -0.177 NA
ATOM     17  C   UNL     1       4.754   9.355   4.751  0.00  0.00    +0.132 C 
BRANCH  16  18
ATOM     18  C   UNL     1       2.501  10.385   4.201  0.00  0.00    +0.073 C 
ATOM     19  C   UNL     1       1.740   9.386   5.075  0.00  0.00    +0.025 C 
ATOM     20  C   UNL     1       2.792  11.651   5.009  0.00  0.00    +0.025 C 
ENDBRANCH  16  18
ENDBRANCH  13  16
ENDBRANCH  10  13
ENDBRANCH   4   7
BRANCH   1  21
ATOM     21  C   UNL     1       2.562   0.734   1.469  0.00  0.00    +0.090 C 
BRANCH  21  22
ATOM     22  C   UNL     1       1.909  -0.504   0.851  0.00  0.00    -0.051 C 
BRANCH  22  23
ATOM     23  N   UNL     1       0.477  -0.518   1.180  0.00  0.00    +0.382 N 
ATOM     24  H   UNL     1       0.161  -1.472   1.266  0.00  0.00    -0.081 HD
BRANCH  23  26
ATOM     25  C   UNL     1       0.889  -0.616   3.592  0.00  0.00    -0.017 C 
ATOM     26  C   UNL     1       0.260   0.186   2.451  0.00  0.00    -0.082 C 
ENDBRANCH  23  26
BRANCH  23  27
ATOM     27  C   UNL     1      -0.277   0.154   0.114  0.00  0.00    -0.082 C 
ATOM     28  C   UNL     1      -0.096  -0.611  -1.199  0.00  0.00    -0.017 C 
ENDBRANCH  23  27
ENDBRANCH  22  23
BRANCH  22  29
ATOM     29  C   UNL     1       2.573  -1.764   1.410  0.00  0.00    -0.011 C 
BRANCH  29  30
ATOM     30  C   UNL     1       1.975  -2.998   0.733  0.00  0.00    -0.019 C 
ATOM     31  C   UNL     1       2.338  -2.991  -0.754  0.00  0.00    +0.007 C 
ATOM     32  C   UNL     1       2.536  -4.262   1.388  0.00  0.00    +0.007 C 
ENDBRANCH  29  30
ENDBRANCH  22  29
ENDBRANCH  21  22
ENDBRANCH   1  21
TORSDOF 11
