REMARK  Name = ZINC13769462
REMARK  3 active torsions:
REMARK  status: ('A' for Active; 'I' for Inactive)
REMARK    1  A    between atoms: C_2  and  N_9
REMARK    2  A    between atoms: C_10  and  C_12
REMARK    3  A    between atoms: C_12  and  C_13
REMARK                            x       y       z     vdW  Elec       q    Type
REMARK                         _______ _______ _______ _____ _____    ______ ____
ROOT
ATOM      1  C   UNL     1       7.230   0.306  -0.385  0.00  0.00    +0.025 C 
ATOM      2  C   UNL     1       8.515  -0.427  -0.646  0.00  0.00    +0.200 C 
ATOM      3  O   UNL     1       8.514  -1.332  -1.453  0.00  0.00    -0.278 OA
ATOM      4  N   UNL     1       9.662  -0.125  -0.029  0.00  0.00    -0.315 N 
ATOM      5  C   UNL     1       9.750   0.914   0.988  0.00  0.00    +0.059 C 
ATOM      6  C   UNL     1      11.069   1.671   0.881  0.00  0.00    +0.020 C 
ATOM      7  C   UNL     1      11.131   2.430  -0.445  0.00  0.00    +0.002 C 
ATOM      8  C   UNL     1       9.962   3.417  -0.514  0.00  0.00    -0.001 C 
ATOM      9  C   UNL     1       8.645   2.642  -0.446  0.00  0.00    -0.014 C 
ATOM     10  C   UNL     1       8.565   1.870   0.874  0.00  0.00    -0.050 C 
ATOM     11  H   UNL     1      10.464  -0.617  -0.266  0.00  0.00    +0.149 HD
ATOM     12  N   UNL     1       7.325   1.067   0.871  0.00  0.00    +0.390 N 
ATOM     13  H   UNL     1       7.339   0.415   1.664  0.00  0.00    -0.084 HD
ATOM     14  H   UNL     1       6.514   1.690   0.954  0.00  0.00    -0.084 HD
ENDROOT
BRANCH   1  15
ATOM     15  C   UNL     1       6.084  -0.702  -0.278  0.00  0.00    +0.089 C 
BRANCH  15  17
ATOM     16  N   UNL     1       3.623  -0.651  -0.038  0.00  0.00    -0.285 N 
ATOM     17  C   UNL     1       4.777   0.036  -0.147  0.00  0.00    +0.216 C 
ATOM     18  O   UNL     1       4.763   1.249  -0.139  0.00  0.00    -0.276 OA
ATOM     19  H   UNL     1       3.639  -1.619   0.034  0.00  0.00    +0.155 HD
BRANCH  16  21
ATOM     20  C   UNL     1       1.339  -0.456   0.725  0.00  0.00    +0.043 A 
ATOM     21  C   UNL     1       2.400   0.030  -0.027  0.00  0.00    +0.036 A 
ATOM     22  C   UNL     1       2.247   1.194  -0.768  0.00  0.00    +0.043 A 
ATOM     23  C   UNL     1       1.038   1.866  -0.756  0.00  0.00    +0.044 A 
ATOM     24  C   UNL     1      -0.017   1.379  -0.005  0.00  0.00    +0.040 A 
ATOM     25  C   UNL     1       0.133   0.219   0.735  0.00  0.00    +0.044 A 
ATOM     26 CL   UNL     1      -1.193  -0.387   1.676  0.00  0.00    -0.083 Cl
ATOM     27 CL   UNL     1       0.846   3.321  -1.683  0.00  0.00    -0.083 Cl
ENDBRANCH  16  21
ENDBRANCH  15  17
ENDBRANCH   1  15
TORSDOF 3
