REMARK  Name = ZINC17919230
REMARK  9 active torsions:
REMARK  status: ('A' for Active; 'I' for Inactive)
REMARK    1  A    between atoms: C_1  and  C_2
REMARK    2  A    between atoms: C_2  and  C_3
REMARK    3  A    between atoms: C_2  and  N_4
REMARK    4  A    between atoms: N_4  and  C_5
REMARK    5  A    between atoms: C_11  and  C_13
REMARK    6  A    between atoms: C_13  and  S_14
REMARK    7  A    between atoms: S_14  and  C_15
REMARK    8  A    between atoms: C_23  and  C_24
REMARK    9  A    between atoms: C_30  and  C_33
REMARK                            x       y       z     vdW  Elec       q    Type
REMARK                         _______ _______ _______ _____ _____    ______ ____
ROOT
ATOM      1  C   UNL     1       5.407   6.033  -0.114  0.00  0.00    +0.133 C 
ATOM      2  N   UNL     1       4.393   5.211  -0.230  0.00  0.00    -0.338 N 
ATOM      3  C   UNL     1       3.181   5.628  -0.710  0.00  0.00    +0.045 C 
ATOM      4  C   UNL     1       2.895   6.938  -0.822  0.00  0.00    -0.022 C 
ATOM      5  C   UNL     1       1.578   7.432  -1.353  0.00  0.00    +0.035 C 
ATOM      6  C   UNL     1       0.884   6.373  -2.205  0.00  0.00    +0.009 C 
ATOM      7  C   UNL     1       0.771   5.077  -1.398  0.00  0.00    +0.037 C 
ATOM      8  C   UNL     1       2.180   4.610  -1.099  0.00  0.00    -0.023 C 
ATOM      9  C   UNL     1       2.514   3.312  -1.190  0.00  0.00    +0.013 C 
ATOM     10  C   UNL     1       3.930   7.956  -0.390  0.00  0.00    +0.131 C 
ATOM     11  N   UNL     1       5.260   7.344  -0.516  0.00  0.00    -0.315 N 
ATOM     12  H   UNL     1       6.099   7.929  -0.920  0.00  0.00    +0.149 HD
ATOM     13  H   UNL     1       4.503   4.156   0.061  0.00  0.00    +0.168 HD
ENDROOT
BRANCH   9  14
ATOM     14  C   UNL     1       1.474   2.301  -1.451  0.00  0.00    -0.025 A 
ATOM     15  C   UNL     1       1.753   1.200  -2.264  0.00  0.00    +0.008 A 
ATOM     16  C   UNL     1       0.775   0.258  -2.504  0.00  0.00    +0.001 A 
ATOM     17  C   UNL     1      -0.483   0.405  -1.946  0.00  0.00    +0.000 A 
ATOM     18  C   UNL     1      -0.765   1.489  -1.135  0.00  0.00    +0.001 A 
ATOM     19  C   UNL     1       0.203   2.439  -0.886  0.00  0.00    +0.008 A 
ENDBRANCH   9  14
BRANCH  10  20
ATOM     20  C   UNL     1       3.687   8.351   1.044  0.00  0.00    -0.023 A 
ATOM     21  C   UNL     1       4.093   7.518   2.069  0.00  0.00    +0.006 A 
ATOM     22  C   UNL     1       3.874   7.882   3.385  0.00  0.00    +0.000 A 
ATOM     23  C   UNL     1       3.240   9.076   3.674  0.00  0.00    +0.000 A 
ATOM     24  C   UNL     1       2.829   9.907   2.649  0.00  0.00    +0.000 A 
ATOM     25  C   UNL     1       3.053   9.545   1.334  0.00  0.00    +0.006 A 
ENDBRANCH  10  20
BRANCH   1  26
ATOM     26  S   UNL     1       6.940   5.470   0.548  0.00  0.00    -0.083 S 
BRANCH  26  27
ATOM     27  C   UNL     1       6.524   3.739   0.875  0.00  0.00    +0.173 C 
BRANCH  27  29
ATOM     28  N   UNL     1       7.644   1.731   1.788  0.00  0.00    -0.268 N 
ATOM     29  C   UNL     1       7.721   3.037   1.462  0.00  0.00    +0.230 C 
ATOM     30  O   UNL     1       8.754   3.647   1.642  0.00  0.00    -0.274 OA
BRANCH  28  31
ATOM     31  C   UNL     1       8.720   1.105   2.427  0.00  0.00    +0.037 A 
ATOM     32  C   UNL     1       9.769   0.588   1.679  0.00  0.00    +0.023 A 
ATOM     33  C   UNL     1      10.832  -0.024   2.313  0.00  0.00    +0.002 A 
ATOM     34  C   UNL     1      10.847  -0.133   3.691  0.00  0.00    +0.000 A 
ATOM     35  C   UNL     1       9.801   0.376   4.439  0.00  0.00    +0.002 A 
ATOM     36  C   UNL     1       8.738   0.995   3.811  0.00  0.00    +0.023 A 
ENDBRANCH  28  31
BRANCH  28  38
ATOM     37  C   UNL     1       6.808  -0.256   0.634  0.00  0.00    +0.028 C 
ATOM     38  C   UNL     1       6.434   0.968   1.473  0.00  0.00    +0.075 C 
ATOM     39  C   UNL     1       5.766   0.512   2.771  0.00  0.00    +0.028 C 
ENDBRANCH  28  38
ENDBRANCH  27  29
ENDBRANCH  26  27
ENDBRANCH   1  26
TORSDOF 7
