REMARK  Name = ZINC28467079
REMARK  8 active torsions:
REMARK  status: ('A' for Active; 'I' for Inactive)
REMARK    1  A    between atoms: C_1  and  O_2
REMARK    2  A    between atoms: O_2  and  C_3
REMARK    3  A    between atoms: C_3  and  C_5
REMARK    4  A    between atoms: C_8  and  C_11
REMARK    5  A    between atoms: C_13  and  C_25
REMARK    6  A    between atoms: C_15  and  C_20
REMARK    7  A    between atoms: C_15  and  O_24
REMARK    8  A    between atoms: C_25  and  C_27
REMARK                            x       y       z     vdW  Elec       q    Type
REMARK                         _______ _______ _______ _____ _____    ______ ____
ROOT
ATOM      1  C   UNL     1       6.092  -0.758  -0.672  0.00  0.00    +0.117 C 
ATOM      2  C   UNL     1       5.180   0.379  -0.199  0.00  0.00    +0.144 C 
ATOM      3  C   UNL     1       5.555   0.736   1.243  0.00  0.00    +0.241 C 
ATOM      4  N   UNL     1       5.475  -0.468   2.072  0.00  0.00    -0.291 N 
ATOM      5  C   UNL     1       5.693  -1.686   1.556  0.00  0.00    +0.133 C 
ATOM      6  S   UNL     1       5.597  -3.047   2.590  0.00  0.00    -0.019 S 
ATOM      7  N   UNL     1       5.983  -1.881   0.261  0.00  0.00    -0.319 N 
ATOM      8  H   UNL     1       5.232  -0.384   3.142  0.00  0.00    +0.151 HD
ATOM      9  H   UNL     1       6.141  -2.909  -0.096  0.00  0.00    +0.148 HD
ENDROOT
BRANCH   1  13
ATOM     10  C   UNL     1       4.888  -2.023  -4.576  0.00  0.00    +0.059 A 
ATOM     11  C   UNL     1       5.836  -1.008  -4.429  0.00  0.00    +0.015 A 
ATOM     12  C   UNL     1       6.220  -0.605  -3.167  0.00  0.00    +0.006 A 
ATOM     13  C   UNL     1       5.668  -1.204  -2.048  0.00  0.00    -0.026 A 
ATOM     14  C   UNL     1       4.732  -2.213  -2.187  0.00  0.00    +0.006 A 
ATOM     15  C   UNL     1       4.335  -2.623  -3.443  0.00  0.00    +0.015 A 
BRANCH  10  16
ATOM     16  C   UNL     1       4.473  -2.460  -5.925  0.00  0.00    +0.339 C 
ATOM     17  O   UNL     1       4.956  -1.936  -6.909  0.00  0.00    -0.245 OA
BRANCH  16  19
ATOM     18  C   UNL     1       3.198  -3.818  -7.418  0.00  0.00    +0.280 C 
ATOM     19  O   UNL     1       3.558  -3.439  -6.063  0.00  0.00    -0.464 OA
ENDBRANCH  16  19
ENDBRANCH  10  16
ENDBRANCH   1  13
BRANCH   3  20
ATOM     20  C   UNL     1       6.982   1.289   1.279  0.00  0.00    +0.436 C 
ATOM     21  F   UNL     1       7.058   2.435   0.480  0.00  0.00    -0.166 F 
ATOM     22  F   UNL     1       7.323   1.615   2.596  0.00  0.00    -0.166 F 
ATOM     23  F   UNL     1       7.868   0.322   0.793  0.00  0.00    -0.166 F 
ENDBRANCH   3  20
BRANCH   3  24
ATOM     24  O   UNL     1       4.648   1.721   1.743  0.00  0.00    -0.364 OA
ATOM     25  H   UNL     1       4.760   2.103   2.768  0.00  0.00    +0.212 HD
ENDBRANCH   3  24
BRANCH   2  26
ATOM     26  C   UNL     1       3.743  -0.069  -0.252  0.00  0.00    +0.173 C 
ATOM     27  O   UNL     1       3.456  -1.219   0.005  0.00  0.00    -0.292 OA
BRANCH  26  28
ATOM     28  C   UNL     1       2.686   0.889  -0.615  0.00  0.00    +0.018 A 
ATOM     29  C   UNL     1       1.350   0.476  -0.665  0.00  0.00    +0.011 A 
ATOM     30  C   UNL     1       0.366   1.379  -1.008  0.00  0.00    +0.001 A 
ATOM     31  C   UNL     1       0.697   2.691  -1.301  0.00  0.00    +0.000 A 
ATOM     32  C   UNL     1       2.017   3.107  -1.254  0.00  0.00    +0.001 A 
ATOM     33  C   UNL     1       3.012   2.216  -0.913  0.00  0.00    +0.011 A 
ENDBRANCH  26  28
ENDBRANCH   2  26
TORSDOF 7
