REMARK  Name = ZINC27348279
REMARK  10 active torsions:
REMARK  status: ('A' for Active; 'I' for Inactive)
REMARK    1  A    between atoms: C_1  and  C_2
REMARK    2  A    between atoms: C_2  and  C_26
REMARK    3  A    between atoms: N_5  and  C_9
REMARK    4  A    between atoms: C_9  and  C_10
REMARK    5  A    between atoms: N_12  and  C_13
REMARK    6  A    between atoms: C_13  and  C_14
REMARK    7  A    between atoms: C_14  and  C_16
REMARK    8  A    between atoms: C_14  and  N_23
REMARK    9  A    between atoms: N_23  and  C_24
REMARK   10  A    between atoms: N_23  and  C_25
REMARK                            x       y       z     vdW  Elec       q    Type
REMARK                         _______ _______ _______ _____ _____    ______ ____
ROOT
ATOM      1  C   UNL     1       4.118  -1.702  -0.930  0.00  0.00    +0.213 C 
ENDROOT
BRANCH   1   6
ATOM      2  C   UNL     1       3.169   2.582   0.748  0.00  0.00    +0.047 C 
ATOM      3  C   UNL     1       3.043   1.836  -0.583  0.00  0.00    +0.135 C 
ATOM      4  C   UNL     1       2.846   0.352  -0.346  0.00  0.00    +0.251 C 
ATOM      5  O   UNL     1       1.927  -0.180   0.240  0.00  0.00    -0.272 OA
ATOM      6  N   UNL     1       3.903  -0.253  -0.922  0.00  0.00    -0.215 N 
ATOM      7  C   UNL     1       4.733   0.634  -1.484  0.00  0.00    +0.310 C 
ATOM      8  O   UNL     1       5.757   0.328  -2.063  0.00  0.00    -0.252 OA
ATOM      9  N   UNL     1       4.308   1.902  -1.335  0.00  0.00    -0.281 N 
ATOM     10  H   UNL     1       4.710   2.875  -1.651  0.00  0.00    +0.152 HD
BRANCH   3  11
ATOM     11  C   UNL     1       1.910   2.398  -1.401  0.00  0.00    -0.015 A 
ATOM     12  C   UNL     1       0.651   1.833  -1.318  0.00  0.00    +0.009 A 
ATOM     13  C   UNL     1      -0.391   2.350  -2.064  0.00  0.00    +0.039 A 
ATOM     14  C   UNL     1      -0.170   3.429  -2.905  0.00  0.00    +0.123 A 
ATOM     15  C   UNL     1       1.092   3.990  -2.992  0.00  0.00    +0.039 A 
ATOM     16  C   UNL     1       2.131   3.475  -2.240  0.00  0.00    +0.009 A 
ATOM     17  F   UNL     1      -1.187   3.932  -3.639  0.00  0.00    -0.205 F 
ENDBRANCH   3  11
ENDBRANCH   1   6
BRANCH   1  18
ATOM     18  C   UNL     1       3.471  -2.298  -2.154  0.00  0.00    +0.231 C 
ATOM     19  O   UNL     1       2.887  -1.583  -2.941  0.00  0.00    -0.274 OA
ATOM     20  N   UNL     1       3.540  -3.626  -2.373  0.00  0.00    -0.315 N 
ATOM     21  H   UNL     1       4.070  -4.274  -1.659  0.00  0.00    +0.149 HD
BRANCH  20  22
ATOM     22  C   UNL     1       2.911  -4.206  -3.562  0.00  0.00    +0.093 C 
BRANCH  22  23
ATOM     23  C   UNL     1       2.972  -5.732  -3.478  0.00  0.00    -0.020 C 
BRANCH  23  24
ATOM     24  C   UNL     1       2.418  -6.328  -4.747  0.00  0.00    -0.041 A 
ATOM     25  C   UNL     1       1.153  -6.885  -4.755  0.00  0.00    +0.003 A 
ATOM     26  C   UNL     1       0.645  -7.431  -5.918  0.00  0.00    +0.000 A 
ATOM     27  C   UNL     1       1.401  -7.420  -7.075  0.00  0.00    +0.001 A 
ATOM     28  C   UNL     1       2.666  -6.863  -7.069  0.00  0.00    +0.020 A 
ATOM     29  C   UNL     1       3.173  -6.312  -5.906  0.00  0.00    +0.043 A 
ATOM     30 CL   UNL     1       4.759  -5.605  -5.899  0.00  0.00    -0.083 Cl
ENDBRANCH  23  24
BRANCH  23  31
ATOM     31  N   UNL     1       2.174  -6.192  -2.333  0.00  0.00    +0.382 N 
ATOM     32  C   UNL     1       2.947  -6.109  -1.087  0.00  0.00    -0.096 C 
ATOM     33  C   UNL     1       0.921  -5.434  -2.227  0.00  0.00    -0.096 C 
ATOM     34  H   UNL     1       1.917  -7.248  -2.502  0.00  0.00    -0.082 HD
ENDBRANCH  23  31
ENDBRANCH  22  23
ENDBRANCH  20  22
ENDBRANCH   1  18
TORSDOF 7
