REMARK  Name = ZINC59890359
REMARK  11 active torsions:
REMARK  status: ('A' for Active; 'I' for Inactive)
REMARK    1  A    between atoms: C_1  and  C_2
REMARK    2  A    between atoms: C_2  and  C_3
REMARK    3  A    between atoms: C_3  and  C_4
REMARK    4  A    between atoms: C_4  and  C_36
REMARK    5  A    between atoms: N_5  and  N_6
REMARK    6  A    between atoms: C_9  and  S_12
REMARK    7  A    between atoms: S_12  and  C_13
REMARK    8  A    between atoms: C_13  and  C_14
REMARK    9  A    between atoms: N_16  and  C_17
REMARK   10  A    between atoms: C_20  and  S_23
REMARK   11  A    between atoms: S_23  and  N_26
REMARK                            x       y       z     vdW  Elec       q    Type
REMARK                         _______ _______ _______ _____ _____    ______ ____
ROOT
ATOM      1  C   UNL     1       9.334  -8.605   0.959  0.00  0.00    +0.227 C 
ATOM      2  O   UNL     1      10.040  -9.477   1.419  0.00  0.00    -0.275 OA
ATOM      3  N   UNL     1       9.889  -7.551   0.328  0.00  0.00    -0.285 N 
ATOM      4  H   UNL     1       9.323  -6.889  -0.099  0.00  0.00    +0.155 HD
ENDROOT
BRANCH   3   5
ATOM      5  C   UNL     1      11.281  -7.413   0.288  0.00  0.00    +0.034 A 
ATOM      6  C   UNL     1      11.857  -6.151   0.346  0.00  0.00    +0.025 A 
ATOM      7  C   UNL     1      13.231  -6.018   0.306  0.00  0.00    +0.030 A 
ATOM      8  C   UNL     1      14.033  -7.140   0.209  0.00  0.00    +0.106 A 
ATOM      9  C   UNL     1      13.463  -8.399   0.150  0.00  0.00    +0.030 A 
ATOM     10  C   UNL     1      12.089  -8.539   0.196  0.00  0.00    +0.025 A 
BRANCH   8  11
ATOM     11  S   UNL     1      15.786  -6.966   0.159  0.00  0.00    +0.061 S 
ATOM     12  O   UNL     1      16.291  -8.129  -0.483  0.00  0.00    -0.153 OA
ATOM     13  O   UNL     1      16.050  -5.655  -0.322  0.00  0.00    -0.153 OA
BRANCH  11  14
ATOM     14  N   UNL     1      16.328  -7.016   1.722  0.00  0.00    -0.172 NA
ATOM     15  C   UNL     1      16.451  -5.791   2.529  0.00  0.00    +0.114 C 
ATOM     16  C   UNL     1      15.470  -5.896   3.696  0.00  0.00    +0.052 C 
ATOM     17  C   UNL     1      15.580  -7.239   4.369  0.00  0.00    -0.042 A 
ATOM     18  C   UNL     1      15.095  -7.351   5.667  0.00  0.00    +0.004 A 
ATOM     19  C   UNL     1      15.156  -8.555   6.337  0.00  0.00    +0.000 A 
ATOM     20  C   UNL     1      15.702  -9.662   5.714  0.00  0.00    +0.000 A 
ATOM     21  C   UNL     1      16.188  -9.553   4.427  0.00  0.00    +0.005 A 
ATOM     22  C   UNL     1      16.132  -8.340   3.754  0.00  0.00    -0.028 A 
ATOM     23  C   UNL     1      16.698  -8.283   2.361  0.00  0.00    +0.144 C 
ENDBRANCH  11  14
ENDBRANCH   8  11
ENDBRANCH   3   5
BRANCH   1  24
ATOM     24  C   UNL     1       7.836  -8.700   1.093  0.00  0.00    +0.173 C 
BRANCH  24  25
ATOM     25  S   UNL     1       7.403 -10.220   1.983  0.00  0.00    -0.075 S 
BRANCH  25  29
ATOM     26  N   UNL     1       2.520 -11.496   2.972  0.00  0.00    -0.205 N 
ATOM     27  C   UNL     1       3.605 -10.777   2.503  0.00  0.00    +0.232 A 
ATOM     28  N   UNL     1       4.871 -11.114   2.629  0.00  0.00    -0.186 NA
ATOM     29  C   UNL     1       5.643 -10.185   2.057  0.00  0.00    +0.211 A 
ATOM     30  N   UNL     1       4.878  -9.242   1.559  0.00  0.00    -0.144 NA
ATOM     31  N   UNL     1       3.550  -9.607   1.832  0.00  0.00    -0.245 N 
ATOM     32  H   UNL     1       1.620 -11.167   2.826  0.00  0.00    +0.177 HD
ATOM     33  H   UNL     1       2.751  -9.114   1.587  0.00  0.00    +0.192 HD
BRANCH  26  35
ATOM     34  C   UNL     1       1.720 -13.368   4.090  0.00  0.00    +0.034 C 
ATOM     35  N   UNL     1       2.723 -12.702   3.657  0.00  0.00    -0.189 NA
ATOM     36  C   UNL     1       0.320 -12.856   3.865  0.00  0.00    +0.062 C 
BRANCH  34  37
ATOM     37  C   UNL     1       1.938 -14.665   4.827  0.00  0.00    +0.052 C 
BRANCH  37  39
ATOM     38  C   UNL     1       1.686 -15.831   7.022  0.00  0.00    +0.004 C 
ATOM     39  C   UNL     1       1.465 -14.514   6.274  0.00  0.00    +0.002 C 
ENDBRANCH  37  39
ENDBRANCH  34  37
ENDBRANCH  26  35
ENDBRANCH  25  29
ENDBRANCH  24  25
ENDBRANCH   1  24
TORSDOF 9
