REMARK  Name = ZINC67349867
REMARK  2 active torsions:
REMARK  status: ('A' for Active; 'I' for Inactive)
REMARK    1  A    between atoms: C_1  and  N_2
REMARK    2  A    between atoms: C_7  and  N_12
REMARK                            x       y       z     vdW  Elec       q    Type
REMARK                         _______ _______ _______ _____ _____    ______ ____
ROOT
ATOM      1  C   UNL     1      -0.018   1.461   0.010  0.00  0.00    +0.172 C 
ATOM      2  N   UNL     1       0.002  -0.004   0.002  0.00  0.00    -0.271 N 
ATOM      3  C   UNL     1       0.008  -0.789  -1.088  0.00  0.00    +0.044 A 
ATOM      4  C   UNL     1       0.025  -2.081  -0.670  0.00  0.00    +0.013 A 
ATOM      5  C   UNL     1       0.032  -2.082   0.723  0.00  0.00    +0.140 A 
ATOM      6  N   UNL     1       0.025  -0.837   1.131  0.00  0.00    -0.179 NA
ATOM      7  C   UNL     1       0.033  -3.270  -1.598  0.00  0.00    +0.107 C 
ATOM      8  C   UNL     1      -0.395  -2.798  -2.993  0.00  0.00    +0.027 C 
ATOM      9  C   UNL     1       0.427  -1.569  -3.391  0.00  0.00    +0.008 C 
ATOM     10  C   UNL     1      -0.001  -0.369  -2.536  0.00  0.00    +0.055 C 
ENDROOT
BRANCH   7  11
ATOM     11  N   UNL     1      -0.906  -4.283  -1.109  0.00  0.00    -0.307 N 
ATOM     12  C   UNL     1      -0.502  -5.198  -0.152  0.00  0.00    +0.216 A 
ATOM     13  N   UNL     1       0.736  -5.140   0.315  0.00  0.00    -0.222 NA
ATOM     14  C   UNL     1       1.155  -5.999   1.230  0.00  0.00    +0.131 A 
ATOM     15  C   UNL     1       0.280  -6.967   1.699  0.00  0.00    +0.054 A 
ATOM     16  C   UNL     1      -1.009  -6.999   1.188  0.00  0.00    +0.131 A 
ATOM     17  N   UNL     1      -1.364  -6.107   0.278  0.00  0.00    -0.222 NA
ATOM     18 BR   UNL     1       0.833  -8.217   3.006  0.00  0.00    -0.047 Br
ATOM     19  H   UNL     1      -1.812  -4.312  -1.456  0.00  0.00    +0.150 HD
ENDBRANCH   7  11
TORSDOF 1
