REMARK  Name = ZINC02679405
REMARK  9 active torsions:
REMARK  status: ('A' for Active; 'I' for Inactive)
REMARK    1  A    between atoms: C_1  and  C_2
REMARK    2  A    between atoms: C_2  and  O_3
REMARK    3  A    between atoms: O_3  and  C_4
REMARK    4  A    between atoms: C_4  and  C_6
REMARK    5  A    between atoms: C_7  and  C_22
REMARK    6  A    between atoms: C_8  and  C_21
REMARK    7  A    between atoms: C_10  and  N_11
REMARK    8  A    between atoms: C_12  and  C_14
REMARK    9  A    between atoms: C_14  and  N_56
REMARK                            x       y       z     vdW  Elec       q    Type
REMARK                         _______ _______ _______ _____ _____    ______ ____
ROOT
ATOM      1  C   UNL     1      -1.291   1.927   0.019  0.00  0.00    +0.095 A 
ATOM      2  C   UNL     1      -1.949   2.291   1.259  0.00  0.00    +0.008 A 
ATOM      3  C   UNL     1      -3.130   2.953   1.152  0.00  0.00    -0.003 A 
ATOM      4  S   UNL     1      -3.365   3.089  -0.608  0.00  0.00    -0.077 S 
ATOM      5  C   UNL     1      -1.929   2.294  -1.159  0.00  0.00    +0.087 A 
ATOM      6  C   UNL     1      -4.026   3.450   2.256  0.00  0.00    +0.052 C 
ENDROOT
BRANCH   2   7
ATOM      7  C   UNL     1      -1.361   1.959   2.578  0.00  0.00    -0.016 A 
ATOM      8  C   UNL     1      -1.226   0.627   2.968  0.00  0.00    +0.010 A 
ATOM      9  C   UNL     1      -0.673   0.323   4.195  0.00  0.00    +0.020 A 
ATOM     10  C   UNL     1      -0.263   1.337   5.043  0.00  0.00    +0.041 A 
ATOM     11  C   UNL     1      -0.400   2.661   4.663  0.00  0.00    +0.020 A 
ATOM     12  C   UNL     1      -0.946   2.977   3.436  0.00  0.00    +0.010 A 
ATOM     13 CL   UNL     1       0.425   0.948   6.589  0.00  0.00    -0.084 Cl
ENDBRANCH   2   7
BRANCH   5  14
ATOM     14  N   UNL     1      -1.517   2.074  -2.463  0.00  0.00    -0.281 N 
ATOM     15  C   UNL     1      -2.274   2.506  -3.491  0.00  0.00    +0.201 C 
ATOM     16  O   UNL     1      -3.316   3.087  -3.275  0.00  0.00    -0.278 OA
ATOM     17  H   UNL     1      -0.683   1.609  -2.636  0.00  0.00    +0.155 HD
BRANCH  15  18
ATOM     18  C   UNL     1      -1.825   2.267  -4.910  0.00  0.00    +0.019 C 
BRANCH  18  25
ATOM     19  C   UNL     1      -4.132   2.176  -5.667  0.00  0.00    -0.078 C 
ATOM     20  C   UNL     1      -5.101   2.519  -6.767  0.00  0.00    -0.019 C 
ATOM     21  C   UNL     1      -5.012   1.428  -7.855  0.00  0.00    -0.002 C 
ATOM     22  C   UNL     1      -3.848   1.602  -8.716  0.00  0.00    -0.002 C 
ATOM     23  C   UNL     1      -2.523   1.518  -7.930  0.00  0.00    -0.019 C 
ATOM     24  C   UNL     1      -2.302   2.829  -7.226  0.00  0.00    -0.078 C 
ATOM     25  N   UNL     1      -2.812   2.879  -5.814  0.00  0.00    +0.385 N 
ATOM     26  H   UNL     1      -2.938   3.863  -5.550  0.00  0.00    -0.081 HD
ENDBRANCH  18  25
ENDBRANCH  15  18
ENDBRANCH   5  14
BRANCH   1  27
ATOM     27  C   UNL     1      -0.014   1.212   0.009  0.00  0.00    +0.342 C 
ATOM     28  O   UNL     1       0.002  -0.004   0.002  0.00  0.00    -0.245 OA
BRANCH  27  29
ATOM     29  O   UNL     1       1.145   1.903   0.001  0.00  0.00    -0.461 OA
BRANCH  29  31
ATOM     30  C   UNL     1       3.573   2.077  -0.021  0.00  0.00    +0.048 C 
ATOM     31  C   UNL     1       2.373   1.129  -0.015  0.00  0.00    +0.229 C 
ENDBRANCH  29  31
ENDBRANCH  27  29
ENDBRANCH   1  27
TORSDOF 7
