REMARK  Name = ZINC63383784
REMARK  8 active torsions:
REMARK  status: ('A' for Active; 'I' for Inactive)
REMARK    1  A    between atoms: C_1  and  C_2
REMARK    2  A    between atoms: C_7  and  C_8
REMARK    3  A    between atoms: C_17  and  C_20
REMARK    4  A    between atoms: C_20  and  C_21
REMARK    5  A    between atoms: N_32  and  C_35
REMARK    6  A    between atoms: C_35  and  C_36
REMARK    7  A    between atoms: C_36  and  O_37
REMARK    8  A    between atoms: O_37  and  C_38
REMARK                            x       y       z     vdW  Elec       q    Type
REMARK                         _______ _______ _______ _____ _____    ______ ____
ROOT
ATOM      1  C   UNL     1      -0.018   1.503   0.010  0.00  0.00    +0.044 C 
ATOM      2  C   UNL     1       0.002  -0.004   0.002  0.00  0.00    -0.046 A 
ATOM      3  C   UNL     1       0.006  -0.685  -1.201  0.00  0.00    +0.004 A 
ATOM      4  C   UNL     1       0.025  -2.069  -1.209  0.00  0.00    +0.008 A 
ATOM      5  C   UNL     1       0.042  -2.764  -0.021  0.00  0.00    +0.004 A 
ATOM      6  C   UNL     1       0.038  -2.090   1.196  0.00  0.00    +0.042 A 
ATOM      7  C   UNL     1       0.023  -0.697   1.195  0.00  0.00    -0.026 A 
ATOM      8  C   UNL     1       0.025   0.056   2.500  0.00  0.00    +0.046 C 
ATOM      9  N   UNL     1       0.055  -3.001   2.254  0.00  0.00    -0.283 N 
ATOM     10  C   UNL     1       0.071  -4.278   1.824  0.00  0.00    +0.243 C 
ATOM     11  O   UNL     1       0.088  -5.275   2.515  0.00  0.00    -0.273 OA
ATOM     12  C   UNL     1       0.066  -4.227   0.321  0.00  0.00    +0.136 C 
ATOM     13  C   UNL     1      -1.149  -4.961  -0.262  0.00  0.00    +0.122 C 
ATOM     14  C   UNL     1      -0.621  -5.609  -1.572  0.00  0.00    +0.107 C 
ATOM     15  C   UNL     1       0.859  -5.179  -1.660  0.00  0.00    +0.072 C 
ATOM     16  N   UNL     1       1.252  -4.895  -0.247  0.00  0.00    -0.295 NA
ATOM     17  C   UNL     1      -0.709  -7.091  -1.290  0.00  0.00    +0.227 C 
ATOM     18  O   UNL     1      -0.385  -7.971  -2.058  0.00  0.00    -0.275 OA
ATOM     19  N   UNL     1      -1.202  -7.280  -0.060  0.00  0.00    -0.239 N 
ATOM     20  C   UNL     1      -1.495  -6.144   0.614  0.00  0.00    +0.228 C 
ATOM     21  O   UNL     1      -1.956  -6.076   1.733  0.00  0.00    -0.275 OA
ATOM     22  H   UNL     1       0.057  -2.745   3.190  0.00  0.00    +0.155 HD
ATOM     23  H   UNL     1       2.058  -4.289  -0.215  0.00  0.00    +0.124 HD
ENDROOT
BRANCH  15  24
ATOM     24  C   UNL     1       1.712  -6.320  -2.216  0.00  0.00    +0.052 C 
BRANCH  24  25
ATOM     25  C   UNL     1       3.128  -5.841  -2.408  0.00  0.00    -0.040 C 
ATOM     26  C   UNL     1       4.159  -5.982  -1.544  0.00  0.00    -0.001 A 
ATOM     27  C   UNL     1       4.265  -6.598  -0.216  0.00  0.00    +0.010 A 
ATOM     28  C   UNL     1       5.458  -6.583   0.421  0.00  0.00    +0.001 A 
ATOM     29  C   UNL     1       6.593  -5.994  -0.154  0.00  0.00    +0.002 A 
ATOM     30  C   UNL     1       6.573  -5.408  -1.370  0.00  0.00    +0.026 A 
ATOM     31  C   UNL     1       5.371  -5.367  -2.129  0.00  0.00    +0.043 A 
ATOM     32  N   UNL     1       5.101  -4.866  -3.310  0.00  0.00    -0.380 N 
ATOM     33  C   UNL     1       3.686  -5.112  -3.610  0.00  0.00    +0.144 C 
ATOM     34  H   UNL     1       5.732  -4.412  -3.890  0.00  0.00    +0.160 HD
ENDBRANCH  24  25
ENDBRANCH  15  24
BRANCH  19  35
ATOM     35  C   UNL     1      -1.414  -8.612   0.512  0.00  0.00    +0.144 C 
BRANCH  35  36
ATOM     36  C   UNL     1      -0.150  -9.057   1.250  0.00  0.00    +0.179 C 
BRANCH  36  37
ATOM     37  O   UNL     1       0.076  -8.197   2.369  0.00  0.00    -0.381 OA
ATOM     38  C   UNL     1       1.239  -8.527   3.131  0.00  0.00    +0.194 C 
ENDBRANCH  36  37
ENDBRANCH  35  36
ENDBRANCH  19  35
TORSDOF 5
