REMARK  Name = ZINC09193991
REMARK  12 active torsions:
REMARK  status: ('A' for Active; 'I' for Inactive)
REMARK    1  A    between atoms: C_1  and  C_2
REMARK    2  A    between atoms: C_2  and  C_4
REMARK    3  A    between atoms: C_2  and  O_31
REMARK    4  A    between atoms: C_7  and  C_10
REMARK    5  A    between atoms: C_13  and  C_15
REMARK    6  A    between atoms: C_15  and  N_55
REMARK    7  A    between atoms: C_16  and  C_17
REMARK    8  A    between atoms: C_16  and  N_55
REMARK    9  A    between atoms: C_17  and  C_18
REMARK   10  A    between atoms: C_18  and  S_19
REMARK   11  A    between atoms: S_19  and  C_20
REMARK   12  A    between atoms: N_24  and  C_25
REMARK                            x       y       z     vdW  Elec       q    Type
REMARK                         _______ _______ _______ _____ _____    ______ ____
ROOT
ATOM      1  N   UNL     1       6.555   4.156   1.357  0.00  0.00    +0.384 N 
ATOM      2  H   UNL     1       6.114   3.363   1.837  0.00  0.00    -0.085 HD
ATOM      3  H   UNL     1       6.313   5.027   1.843  0.00  0.00    -0.085 HD
ENDROOT
BRANCH   1   4
ATOM      4  C   UNL     1       6.062   4.221  -0.032  0.00  0.00    -0.007 C 
BRANCH   4   8
ATOM      5  C   UNL     1       2.420   3.937   0.001  0.00  0.00    +0.135 A 
ATOM      6  C   UNL     1       2.536   5.292   0.007  0.00  0.00    +0.050 A 
ATOM      7  C   UNL     1       3.916   5.580  -0.004  0.00  0.00    +0.043 A 
ATOM      8  C   UNL     1       4.566   4.400  -0.017  0.00  0.00    +0.089 A 
ATOM      9  O   UNL     1       3.659   3.409  -0.008  0.00  0.00    -0.462 OA
BRANCH   5  13
ATOM     10  C   UNL     1      -1.221   1.750   0.017  0.00  0.00    -0.019 A 
ATOM     11  C   UNL     1      -0.013   1.076   0.008  0.00  0.00    +0.007 A 
ATOM     12  C   UNL     1       1.173   1.780   0.000  0.00  0.00    +0.012 A 
ATOM     13  C   UNL     1       1.153   3.176   0.008  0.00  0.00    +0.017 A 
ATOM     14  C   UNL     1      -0.070   3.850   0.023  0.00  0.00    +0.012 A 
ATOM     15  C   UNL     1      -1.249   3.133   0.031  0.00  0.00    +0.007 A 
BRANCH  10  17
ATOM     16  C   UNL     1      -3.072   0.918   1.442  0.00  0.00    +0.043 C 
ATOM     17  C   UNL     1      -2.513   0.974   0.019  0.00  0.00    +0.141 C 
BRANCH  17  18
ATOM     18  O   UNL     1      -3.457   1.618  -0.839  0.00  0.00    -0.387 OA
ATOM     19  H   UNL     1      -3.668   2.525  -0.580  0.00  0.00    +0.210 HD
ENDBRANCH  17  18
ENDBRANCH  10  17
ENDBRANCH   5  13
ENDBRANCH   4   8
ENDBRANCH   1   4
BRANCH   1  20
ATOM     20  C   UNL     1       8.020   3.981   1.373  0.00  0.00    -0.081 C 
BRANCH  20  21
ATOM     21  C   UNL     1       8.501   3.917   2.824  0.00  0.00    -0.008 C 
BRANCH  21  22
ATOM     22  C   UNL     1      10.020   3.736   2.849  0.00  0.00    +0.075 C 
BRANCH  22  23
ATOM     23  S   UNL     1      10.590   3.660   4.565  0.00  0.00    -0.084 S 
BRANCH  23  24
ATOM     24  C   UNL     1      12.321   3.454   4.304  0.00  0.00    +0.214 A 
ATOM     25  N   UNL     1      12.934   3.386   3.142  0.00  0.00    -0.101 NA
ATOM     26  N   UNL     1      14.198   3.235   3.309  0.00  0.00    -0.022 NA
ATOM     27  N   UNL     1      14.484   3.195   4.565  0.00  0.00    -0.038 NA
ATOM     28  N   UNL     1      13.274   3.342   5.264  0.00  0.00    -0.187 N 
BRANCH  28  29
ATOM     29  C   UNL     1      13.090   3.365   6.654  0.00  0.00    +0.070 A 
ATOM     30  C   UNL     1      12.115   4.180   7.213  0.00  0.00    +0.028 A 
ATOM     31  C   UNL     1      11.932   4.197   8.582  0.00  0.00    +0.002 A 
ATOM     32  C   UNL     1      12.727   3.411   9.396  0.00  0.00    +0.000 A 
ATOM     33  C   UNL     1      13.702   2.602   8.843  0.00  0.00    +0.002 A 
ATOM     34  C   UNL     1      13.886   2.577   7.474  0.00  0.00    +0.028 A 
ENDBRANCH  28  29
ENDBRANCH  23  24
ENDBRANCH  22  23
ENDBRANCH  21  22
ENDBRANCH  20  21
ENDBRANCH   1  20
TORSDOF 11
