REMARK  Name = ZINC52618159
REMARK  9 active torsions:
REMARK  status: ('A' for Active; 'I' for Inactive)
REMARK    1  A    between atoms: C_1  and  C_2
REMARK    2  A    between atoms: C_3  and  N_27
REMARK    3  A    between atoms: C_4  and  O_26
REMARK    4  A    between atoms: C_7  and  O_8
REMARK    5  A    between atoms: C_15  and  O_23
REMARK    6  A    between atoms: C_16  and  C_18
REMARK    7  A    between atoms: C_18  and  O_19
REMARK    8  A    between atoms: O_19  and  C_20
REMARK    9  A    between atoms: O_23  and  C_24
REMARK                            x       y       z     vdW  Elec       q    Type
REMARK                         _______ _______ _______ _____ _____    ______ ____
ROOT
ATOM      1  C   UNL     1      -0.050   0.032  -2.549  0.00  0.00    +0.050 C 
ATOM      2  C   UNL     1      -0.082  -1.337  -1.920  0.00  0.00    +0.022 A 
ATOM      3  C   UNL     1      -0.186  -2.483  -2.734  0.00  0.00    +0.113 A 
ATOM      4  C   UNL     1      -0.244  -3.759  -2.126  0.00  0.00    +0.148 A 
ATOM      5  C   UNL     1      -0.170  -3.869  -0.752  0.00  0.00    +0.031 A 
ATOM      6  C   UNL     1      -0.030  -2.736   0.044  0.00  0.00    +0.081 A 
ATOM      7  C   UNL     1      -0.004  -1.464  -0.567  0.00  0.00    +0.143 A 
ATOM      8  N   UNL     1       0.101  -3.074   1.375  0.00  0.00    -0.301 N 
ATOM      9  C   UNL     1       0.533  -2.644   2.719  0.00  0.00    +0.091 C 
ATOM     10  C   UNL     1       1.387  -3.829   3.231  0.00  0.00    -0.064 C 
ATOM     11  C   UNL     1       0.860  -5.057   2.452  0.00  0.00    -0.032 C 
ATOM     12  C   UNL     1      -0.262  -4.497   1.562  0.00  0.00    +0.132 C 
ATOM     13  C   UNL     1      -0.230  -5.085   0.150  0.00  0.00    +0.111 C 
ATOM     14  N   UNL     1       0.711  -4.925   3.934  0.00  0.00    +0.385 N 
ATOM     15  H   UNL     1       1.286  -5.528   4.503  0.00  0.00    -0.085 HD
ATOM     16  H   UNL     1      -0.212  -4.736   4.297  0.00  0.00    -0.085 HD
ENDROOT
BRANCH   3  17
ATOM     17  N   UNL     1      -0.231  -2.364  -4.067  0.00  0.00    -0.242 NA
ATOM     18  C   UNL     1       0.892  -2.379  -4.772  0.00  0.00    +0.083 C 
ATOM     19  C   UNL     1       0.866  -2.244  -6.235  0.00  0.00    +0.033 C 
ATOM     20  C   UNL     1       2.038  -1.989  -6.863  0.00  0.00    +0.049 C 
ATOM     21  C   UNL     1       3.258  -1.857  -6.061  0.00  0.00    +0.145 C 
ATOM     22  N   UNL     1       4.338  -1.331  -6.601  0.00  0.00    -0.282 NA
ATOM     23  N   UNL     1       3.289  -2.269  -4.772  0.00  0.00    -0.235 NA
ATOM     24  C   UNL     1       2.192  -2.523  -4.112  0.00  0.00    +0.140 C 
ATOM     25  H   UNL     1       5.149  -1.241  -6.076  0.00  0.00    +0.188 HD
ENDBRANCH   3  17
BRANCH   7  26
ATOM     26  O   UNL     1       0.096  -0.349   0.207  0.00  0.00    -0.505 OA
ATOM     27  H   UNL     1      -0.756   0.014   0.485  0.00  0.00    +0.292 HD
ENDBRANCH   7  26
BRANCH  12  28
ATOM     28  O   UNL     1      -1.543  -4.640   2.178  0.00  0.00    -0.360 OA
ATOM     29  C   UNL     1      -2.531  -3.735   1.682  0.00  0.00    +0.196 C 
ENDBRANCH  12  28
BRANCH   4  30
ATOM     30  O   UNL     1      -0.373  -4.871  -2.891  0.00  0.00    -0.504 OA
ATOM     31  H   UNL     1       0.469  -5.259  -3.166  0.00  0.00    +0.292 HD
ENDBRANCH   4  30
BRANCH  13  32
ATOM     32  C   UNL     1      -1.500  -5.893  -0.123  0.00  0.00    +0.246 C 
BRANCH  32  33
ATOM     33  O   UNL     1      -1.430  -6.464  -1.431  0.00  0.00    -0.450 OA
BRANCH  33  34
ATOM     34  C   UNL     1      -2.477  -7.210  -1.829  0.00  0.00    +0.398 C 
ATOM     35  O   UNL     1      -3.425  -7.373  -1.086  0.00  0.00    -0.227 OA
ATOM     36  N   UNL     1      -2.474  -7.778  -3.052  0.00  0.00    -0.295 N 
ATOM     37  H   UNL     1      -1.717  -7.648  -3.645  0.00  0.00    +0.148 HD
ATOM     38  H   UNL     1      -3.228  -8.316  -3.339  0.00  0.00    +0.148 HD
ENDBRANCH  33  34
ENDBRANCH  32  33
ENDBRANCH  13  32
TORSDOF 7
