REMARK  Name = ZINC44385722
REMARK  3 active torsions:
REMARK  status: ('A' for Active; 'I' for Inactive)
REMARK    1  A    between atoms: C_2  and  N_10
REMARK    2  A    between atoms: C_11  and  C_13
REMARK    3  A    between atoms: C_13  and  C_19
REMARK                            x       y       z     vdW  Elec       q    Type
REMARK                         _______ _______ _______ _____ _____    ______ ____
ROOT
ATOM      1  N   UNL     1       1.161   3.487   0.009  0.00  0.00    -0.283 N 
ATOM      2  C   UNL     1      -0.011   4.148  -0.078  0.00  0.00    +0.237 C 
ATOM      3  O   UNL     1      -1.056   3.533  -0.072  0.00  0.00    -0.274 OA
ATOM      4  H   UNL     1       1.993   3.982   0.069  0.00  0.00    +0.155 HD
ENDROOT
BRANCH   1   6
ATOM      5  C   UNL     1       0.148   1.382   0.625  0.00  0.00    +0.046 A 
ATOM      6  C   UNL     1       1.176   2.087   0.013  0.00  0.00    +0.053 A 
ATOM      7  C   UNL     1       2.220   1.401  -0.595  0.00  0.00    +0.064 A 
ATOM      8  C   UNL     1       2.233   0.019  -0.590  0.00  0.00    +0.043 A 
ATOM      9  C   UNL     1       1.207  -0.681   0.019  0.00  0.00    +0.061 A 
ATOM     10  C   UNL     1       0.165   0.000   0.627  0.00  0.00    +0.061 A 
ATOM     11 CL   UNL     1      -1.120  -0.882   1.391  0.00  0.00    -0.082 Cl
ATOM     12 CL   UNL     1       1.225  -2.417   0.023  0.00  0.00    -0.082 Cl
ATOM     13 CL   UNL     1       3.507   2.279  -1.361  0.00  0.00    -0.082 Cl
ENDBRANCH   1   6
BRANCH   2  14
ATOM     14  C   UNL     1      -0.022   5.651  -0.184  0.00  0.00    +0.133 C 
ATOM     15  C   UNL     1       0.651   6.255   1.050  0.00  0.00    +0.031 C 
ATOM     16  C   UNL     1       0.640   7.781   0.943  0.00  0.00    +0.002 C 
ATOM     17  C   UNL     1      -0.805   8.275   0.857  0.00  0.00    +0.000 C 
ATOM     18  C   UNL     1      -1.478   7.672  -0.377  0.00  0.00    +0.002 C 
ATOM     19  C   UNL     1      -1.467   6.146  -0.270  0.00  0.00    +0.031 C 
BRANCH  14  20
ATOM     20  C   UNL     1       0.710   6.064  -1.393  0.00  0.00    +0.079 C 
ATOM     21  N   UNL     1       1.275   6.382  -2.326  0.00  0.00    -0.195 NA
ENDBRANCH  14  20
ENDBRANCH   2  14
TORSDOF 3
