REMARK  Name = ZINC21250529
REMARK  10 active torsions:
REMARK  status: ('A' for Active; 'I' for Inactive)
REMARK    1  A    between atoms: C_1  and  O_2
REMARK    2  A    between atoms: O_2  and  C_3
REMARK    3  A    between atoms: C_7  and  C_9
REMARK    4  A    between atoms: C_14  and  C_24
REMARK    5  A    between atoms: C_26  and  O_34
REMARK    6  A    between atoms: C_27  and  O_32
REMARK    7  A    between atoms: C_28  and  O_30
REMARK    8  A    between atoms: O_30  and  C_31
REMARK    9  A    between atoms: O_32  and  C_33
REMARK   10  A    between atoms: O_34  and  C_35
REMARK                            x       y       z     vdW  Elec       q    Type
REMARK                         _______ _______ _______ _____ _____    ______ ____
ROOT
ATOM      1  C   UNL     1       1.005   9.148  -2.092  0.00  0.00    +0.032 C 
ATOM      2  C   UNL     1       1.973   8.752  -0.979  0.00  0.00    +0.059 C 
ATOM      3  C   UNL     1       1.195   8.302   0.247  0.00  0.00    +0.017 C 
ATOM      4  C   UNL     1       0.013   7.679   0.113  0.00  0.00    +0.036 C 
ATOM      5  C   UNL     1      -0.849   7.160   1.239  0.00  0.00    +0.136 C 
ATOM      6  N   UNL     1      -0.444   7.607   2.555  0.00  0.00    -0.331 N 
ATOM      7  C   UNL     1       0.781   7.234   3.100  0.00  0.00    +0.049 A 
ATOM      8  C   UNL     1       0.860   6.387   4.193  0.00  0.00    +0.025 A 
ATOM      9  C   UNL     1       2.100   5.957   4.633  0.00  0.00    +0.002 A 
ATOM     10  C   UNL     1       3.252   6.370   3.989  0.00  0.00    +0.002 A 
ATOM     11  C   UNL     1       3.178   7.234   2.909  0.00  0.00    +0.025 A 
ATOM     12  C   UNL     1       1.939   7.678   2.479  0.00  0.00    +0.052 A 
ATOM     13  N   UNL     1       1.796   8.581   1.432  0.00  0.00    -0.316 N 
ATOM     14  C   UNL     1      -0.535   7.461  -1.174  0.00  0.00    +0.163 C 
ATOM     15  O   UNL     1      -1.599   6.881  -1.267  0.00  0.00    -0.292 OA
ATOM     16  C   UNL     1       0.150   7.920  -2.426  0.00  0.00    +0.088 C 
ATOM     17  H   UNL     1      -1.109   8.255   3.144  0.00  0.00    +0.147 HD
ATOM     18  H   UNL     1       2.212   9.582   1.616  0.00  0.00    +0.152 HD
ENDROOT
BRANCH   1  23
ATOM     19  C   UNL     1       2.304  11.241  -4.958  0.00  0.00    +0.120 A 
ATOM     20  C   UNL     1       3.200  10.364  -5.554  0.00  0.00    +0.045 A 
ATOM     21  C   UNL     1       3.381   9.100  -5.027  0.00  0.00    +0.004 A 
ATOM     22  C   UNL     1       2.670   8.708  -3.908  0.00  0.00    +0.004 A 
ATOM     23  C   UNL     1       1.778   9.579  -3.313  0.00  0.00    -0.040 A 
ATOM     24  C   UNL     1       1.589  10.843  -3.838  0.00  0.00    +0.049 A 
BRANCH  19  26
ATOM     25  C   UNL     1       2.890  12.825  -6.632  0.00  0.00    +0.277 C 
ATOM     26  O   UNL     1       2.124  12.485  -5.474  0.00  0.00    -0.495 OA
ENDBRANCH  19  26
ENDBRANCH   1  23
BRANCH   5  27
ATOM     27  C   UNL     1      -0.812   5.654   1.214  0.00  0.00    -0.016 A 
ATOM     28  C   UNL     1       0.390   4.991   1.375  0.00  0.00    +0.055 A 
ATOM     29  C   UNL     1       0.428   3.605   1.352  0.00  0.00    +0.165 A 
ATOM     30  C   UNL     1      -0.744   2.882   1.166  0.00  0.00    +0.204 A 
ATOM     31  C   UNL     1      -1.950   3.553   0.998  0.00  0.00    +0.165 A 
ATOM     32  C   UNL     1      -1.980   4.939   1.028  0.00  0.00    +0.055 A 
BRANCH  31  33
ATOM     33  O   UNL     1      -3.099   2.850   0.810  0.00  0.00    -0.491 OA
ATOM     34  C   UNL     1      -4.282   3.603   0.533  0.00  0.00    +0.277 C 
ENDBRANCH  31  33
BRANCH  30  35
ATOM     35  O   UNL     1      -0.710   1.522   1.142  0.00  0.00    -0.488 OA
ATOM     36  C   UNL     1      -0.878   0.847   2.390  0.00  0.00    +0.277 C 
ENDBRANCH  30  35
BRANCH  29  37
ATOM     37  O   UNL     1       1.612   2.954   1.512  0.00  0.00    -0.491 OA
ATOM     38  C   UNL     1       2.776   3.761   1.699  0.00  0.00    +0.277 C 
ENDBRANCH  29  37
ENDBRANCH   5  27
TORSDOF 6
