REMARK  Name = ZINC11898414
REMARK  9 active torsions:
REMARK  status: ('A' for Active; 'I' for Inactive)
REMARK    1  A    between atoms: C_1  and  N_2
REMARK    2  A    between atoms: C_6  and  C_7
REMARK    3  A    between atoms: C_7  and  C_9
REMARK    4  A    between atoms: C_7  and  N_66
REMARK    5  A    between atoms: C_9  and  N_10
REMARK    6  A    between atoms: C_11  and  C_13
REMARK    7  A    between atoms: N_15  and  C_16
REMARK    8  A    between atoms: C_16  and  C_17
REMARK    9  A    between atoms: C_17  and  C_18
REMARK                            x       y       z     vdW  Elec       q    Type
REMARK                         _______ _______ _______ _____ _____    ______ ____
ROOT
ATOM      1  C   UNL     1       2.051   7.958  -9.020  0.00  0.00    -0.003 C 
ENDROOT
BRANCH   1  11
ATOM      2  C   UNL     1       3.526   7.687  -7.117  0.00  0.00    -0.073 C 
ATOM      3  C   UNL     1       4.634   8.412  -6.353  0.00  0.00    +0.017 C 
ATOM      4  C   UNL     1       4.094   9.678  -5.741  0.00  0.00    -0.048 A 
ATOM      5  C   UNL     1       4.823  10.290  -4.732  0.00  0.00    +0.004 A 
ATOM      6  C   UNL     1       4.368  11.456  -4.151  0.00  0.00    +0.000 A 
ATOM      7  C   UNL     1       3.179  12.018  -4.576  0.00  0.00    +0.000 A 
ATOM      8  C   UNL     1       2.451  11.409  -5.578  0.00  0.00    +0.002 A 
ATOM      9  C   UNL     1       2.906  10.236  -6.163  0.00  0.00    -0.061 A 
ATOM     10  C   UNL     1       2.075   9.607  -7.250  0.00  0.00    -0.042 C 
ATOM     11  N   UNL     1       2.894   8.663  -8.028  0.00  0.00    +0.389 N 
ATOM     12  H   UNL     1       3.627   9.183  -8.523  0.00  0.00    -0.080 HD
ENDBRANCH   1  11
BRANCH   1  18
ATOM     13  C   UNL     1       0.187   7.384 -11.430  0.00  0.00    +0.148 C 
ATOM     14  N   UNL     1       0.893   8.646 -11.194  0.00  0.00    -0.355 N 
ATOM     15  C   UNL     1       0.834   9.751 -11.991  0.00  0.00    +0.085 A 
ATOM     16  C   UNL     1       1.620  10.703 -11.449  0.00  0.00    +0.019 A 
ATOM     17  C   UNL     1       2.180  10.169 -10.272  0.00  0.00    +0.021 A 
ATOM     18  C   UNL     1       1.715   8.911 -10.139  0.00  0.00    +0.006 A 
ENDBRANCH   1  18
BRANCH   1  19
ATOM     19  C   UNL     1       0.759   7.466  -8.364  0.00  0.00    +0.095 C 
BRANCH  19  20
ATOM     20  N   UNL     1       1.081   6.471  -7.338  0.00  0.00    -0.309 N 
ATOM     21  C   UNL     1       0.111   5.998  -6.531  0.00  0.00    +0.299 C 
ATOM     22  O   UNL     1      -1.029   6.395  -6.654  0.00  0.00    -0.265 OA
ATOM     23  H   UNL     1       1.992   6.154  -7.239  0.00  0.00    +0.149 HD
BRANCH  21  24
ATOM     24  C   UNL     1       0.439   4.983  -5.484  0.00  0.00    +0.299 C 
ATOM     25  O   UNL     1       1.579   4.586  -5.360  0.00  0.00    -0.265 OA
ATOM     26  N   UNL     1      -0.531   4.509  -4.677  0.00  0.00    -0.307 N 
ATOM     27  H   UNL     1      -1.442   4.827  -4.776  0.00  0.00    +0.149 HD
BRANCH  26  28
ATOM     28  C   UNL     1      -0.209   3.515  -3.651  0.00  0.00    +0.109 C 
BRANCH  28  29
ATOM     29  C   UNL     1      -1.479   3.148  -2.880  0.00  0.00    +0.049 C 
BRANCH  29  30
ATOM     30  C   UNL     1      -1.148   2.125  -1.824  0.00  0.00    -0.072 C 
ATOM     31  C   UNL     1      -0.899   2.548  -0.626  0.00  0.00    -0.028 C 
ATOM     32  C   UNL     1      -0.545   1.652   0.525  0.00  0.00    +0.027 C 
ATOM     33  C   UNL     1      -0.925   0.205   0.208  0.00  0.00    +0.004 C 
ATOM     34  C   UNL     1      -0.377  -0.148  -1.181  0.00  0.00    +0.005 C 
ATOM     35  C   UNL     1      -1.127   0.680  -2.227  0.00  0.00    +0.030 C 
ENDBRANCH  29  30
ENDBRANCH  28  29
ENDBRANCH  26  28
ENDBRANCH  21  24
ENDBRANCH  19  20
ENDBRANCH   1  19
TORSDOF 8
