REMARK  Name = ZINC10059433
REMARK  9 active torsions:
REMARK  status: ('A' for Active; 'I' for Inactive)
REMARK    1  A    between atoms: C_1  and  O_2
REMARK    2  A    between atoms: O_2  and  C_3
REMARK    3  A    between atoms: C_8  and  N_9
REMARK    4  A    between atoms: C_10  and  N_34
REMARK    5  A    between atoms: C_15  and  S_16
REMARK    6  A    between atoms: S_16  and  C_17
REMARK    7  A    between atoms: C_17  and  C_18
REMARK    8  A    between atoms: N_20  and  C_21
REMARK    9  A    between atoms: C_22  and  C_32
REMARK                            x       y       z     vdW  Elec       q    Type
REMARK                         _______ _______ _______ _____ _____    ______ ____
ROOT
ATOM      1  S   UNL     1      -0.990  -0.626   2.706  0.00  0.00    -0.078 S 
ENDROOT
BRANCH   1   8
ATOM      2  N   UNL     1      -1.202  -0.724   0.009  0.00  0.00    -0.273 N 
ATOM      3  C   UNL     1      -1.803  -1.063  -1.176  0.00  0.00    +0.108 A 
ATOM      4  C   UNL     1      -2.972  -1.768  -1.149  0.00  0.00    +0.114 A 
ATOM      5  C   UNL     1      -3.529  -2.115   0.098  0.00  0.00    +0.276 A 
ATOM      6  O   UNL     1      -4.578  -2.741   0.149  0.00  0.00    -0.266 OA
ATOM      7  N   UNL     1      -2.905  -1.754   1.230  0.00  0.00    -0.185 NA
ATOM      8  C   UNL     1      -1.775  -1.079   1.195  0.00  0.00    +0.179 A 
BRANCH   2  14
ATOM      9  C   UNL     1      -0.017   1.389   0.010  0.00  0.00    +0.144 A 
ATOM     10  C   UNL     1       1.176   2.094   0.002  0.00  0.00    +0.048 A 
ATOM     11  C   UNL     1       2.380   1.416  -0.013  0.00  0.00    +0.004 A 
ATOM     12  C   UNL     1       2.400   0.034  -0.021  0.00  0.00    +0.002 A 
ATOM     13  C   UNL     1       1.215  -0.677  -0.013  0.00  0.00    +0.030 A 
ATOM     14  C   UNL     1       0.002  -0.004   0.002  0.00  0.00    +0.092 A 
BRANCH   9  16
ATOM     15  C   UNL     1      -1.145   3.482   0.026  0.00  0.00    +0.277 C 
ATOM     16  O   UNL     1      -1.202   2.054   0.019  0.00  0.00    -0.493 OA
ENDBRANCH   9  16
ENDBRANCH   2  14
BRANCH   3  17
ATOM     17  N   UNL     1      -1.233  -0.703  -2.376  0.00  0.00    -0.344 N 
ATOM     18  H   UNL     1      -0.401  -0.205  -2.388  0.00  0.00    +0.144 HD
ATOM     19  H   UNL     1      -1.664  -0.947  -3.210  0.00  0.00    +0.144 HD
ENDBRANCH   3  17
ENDBRANCH   1   8
BRANCH   1  20
ATOM     20  C   UNL     1      -2.158  -1.337   3.892  0.00  0.00    +0.173 C 
BRANCH  20  21
ATOM     21  C   UNL     1      -1.677  -1.065   5.295  0.00  0.00    +0.228 C 
ATOM     22  O   UNL     1      -0.647  -0.451   5.474  0.00  0.00    -0.275 OA
ATOM     23  N   UNL     1      -2.393  -1.504   6.349  0.00  0.00    -0.278 N 
ATOM     24  H   UNL     1      -3.217  -1.995   6.205  0.00  0.00    +0.155 HD
BRANCH  23  25
ATOM     25  C   UNL     1      -1.950  -1.254   7.641  0.00  0.00    +0.090 A 
ATOM     26  C   UNL     1      -2.540  -1.613   8.836  0.00  0.00    +0.084 A 
ATOM     27  C   UNL     1      -1.861  -1.248  10.085  0.00  0.00    -0.018 A 
ATOM     28  C   UNL     1      -0.730  -0.545   9.906  0.00  0.00    -0.004 A 
ATOM     29  S   UNL     1      -0.528  -0.409   8.148  0.00  0.00    -0.077 S 
ATOM     30  C   UNL     1       0.167   0.072  10.942  0.00  0.00    +0.043 C 
ATOM     31  C   UNL     1      -0.492   1.396  11.367  0.00  0.00    +0.005 C 
ATOM     32  C   UNL     1      -1.935   1.098  11.795  0.00  0.00    +0.000 C 
ATOM     33  C   UNL     1      -1.818   0.167  12.982  0.00  0.00    +0.000 C 
ATOM     34  C   UNL     1      -1.627  -1.293  12.610  0.00  0.00    +0.005 C 
ATOM     35  C   UNL     1      -2.471  -1.706  11.411  0.00  0.00    +0.037 C 
BRANCH  26  36
ATOM     36  C   UNL     1      -3.781  -2.327   8.857  0.00  0.00    +0.102 C 
ATOM     37  N   UNL     1      -4.766  -2.893   8.874  0.00  0.00    -0.191 NA
ENDBRANCH  26  36
ENDBRANCH  23  25
ENDBRANCH  20  21
ENDBRANCH   1  20
TORSDOF 8
