REMARK  Name = ZINC14963254
REMARK  13 active torsions:
REMARK  status: ('A' for Active; 'I' for Inactive)
REMARK    1  A    between atoms: C_1  and  N_2
REMARK    2  A    between atoms: N_2  and  C_3
REMARK    3  A    between atoms: N_2  and  C_10
REMARK    4  A    between atoms: C_3  and  C_4
REMARK    5  A    between atoms: C_10  and  C_11
REMARK    6  A    between atoms: C_11  and  C_13
REMARK    7  A    between atoms: C_11  and  O_33
REMARK    8  A    between atoms: C_13  and  O_14
REMARK    9  A    between atoms: O_14  and  C_15
REMARK   10  A    between atoms: C_18  and  C_21
REMARK   11  A    between atoms: C_21  and  N_22
REMARK   12  A    between atoms: N_22  and  C_23
REMARK   13  A    between atoms: C_23  and  C_24
REMARK                            x       y       z     vdW  Elec       q    Type
REMARK                         _______ _______ _______ _____ _____    ______ ____
ROOT
ATOM      1  C   UNL     1      -5.451  -0.577   2.679  0.00  0.00    +0.121 A 
ATOM      2  C   UNL     1      -6.061  -1.385   1.732  0.00  0.00    +0.046 A 
ATOM      3  C   UNL     1      -7.376  -1.774   1.901  0.00  0.00    +0.008 A 
ATOM      4  C   UNL     1      -8.083  -1.358   3.015  0.00  0.00    -0.033 A 
ATOM      5  C   UNL     1      -7.477  -0.552   3.960  0.00  0.00    +0.008 A 
ATOM      6  C   UNL     1      -6.160  -0.165   3.798  0.00  0.00    +0.046 A 
ENDROOT
BRANCH   1   7
ATOM      7  O   UNL     1      -4.157  -0.193   2.515  0.00  0.00    -0.489 OA
BRANCH   7   8
ATOM      8  C   UNL     1      -3.488  -0.654   1.339  0.00  0.00    +0.258 C 
BRANCH   8   9
ATOM      9  C   UNL     1      -2.053  -0.124   1.328  0.00  0.00    +0.135 C 
BRANCH   9  10
ATOM     10  O   UNL     1      -1.328  -0.690   2.422  0.00  0.00    -0.390 OA
ATOM     11  H   UNL     1      -1.276  -1.656   2.402  0.00  0.00    +0.210 HD
ENDBRANCH   9  10
BRANCH   9  12
ATOM     12  C   UNL     1      -1.376  -0.512   0.012  0.00  0.00    -0.044 C 
BRANCH  12  14
ATOM     13  C   UNL     1      -0.018   1.465   0.010  0.00  0.00    -0.096 C 
ATOM     14  N   UNL     1       0.002  -0.004   0.002  0.00  0.00    +0.382 N 
ATOM     15  H   UNL     1       0.490  -0.338   0.820  0.00  0.00    -0.082 HD
BRANCH  14  16
ATOM     16  C   UNL     1       0.690  -0.478  -1.207  0.00  0.00    -0.043 C 
BRANCH  16  17
ATOM     17  C   UNL     1       2.137  -0.060  -1.158  0.00  0.00    -0.064 A 
ATOM     18  C   UNL     1       2.523   1.157  -1.688  0.00  0.00    +0.002 A 
ATOM     19  C   UNL     1       3.850   1.540  -1.644  0.00  0.00    +0.000 A 
ATOM     20  C   UNL     1       4.791   0.708  -1.068  0.00  0.00    +0.000 A 
ATOM     21  C   UNL     1       4.405  -0.509  -0.536  0.00  0.00    +0.000 A 
ATOM     22  C   UNL     1       3.077  -0.890  -0.577  0.00  0.00    +0.002 A 
ENDBRANCH  16  17
ENDBRANCH  14  16
ENDBRANCH  12  14
ENDBRANCH   9  12
ENDBRANCH   8   9
ENDBRANCH   7   8
ENDBRANCH   1   7
BRANCH   4  23
ATOM     23  C   UNL     1      -9.517  -1.783   3.197  0.00  0.00    +0.116 C 
BRANCH  23  24
ATOM     24  N   UNL     1      -9.562  -3.047   3.945  0.00  0.00    -0.308 NA
ATOM     25  H   UNL     1      -9.015  -3.759   3.484  0.00  0.00    +0.123 HD
BRANCH  24  26
ATOM     26  C   UNL     1     -10.947  -3.494   4.142  0.00  0.00    +0.116 C 
BRANCH  26  27
ATOM     27  C   UNL     1     -10.953  -4.790   4.910  0.00  0.00    -0.031 A 
ATOM     28  C   UNL     1     -10.898  -5.999   4.206  0.00  0.00    +0.007 A 
ATOM     29  C   UNL     1     -10.900  -7.195   4.838  0.00  0.00    +0.034 A 
ATOM     30  C   UNL     1     -10.958  -7.239   6.255  0.00  0.00    +0.134 A 
ATOM     31  C   UNL     1     -11.015  -5.966   6.997  0.00  0.00    +0.134 A 
ATOM     32  C   UNL     1     -11.005  -4.753   6.262  0.00  0.00    +0.038 A 
ATOM     33  N   UNL     1     -11.064  -6.242   8.280  0.00  0.00    -0.049 NA
ATOM     34  O   UNL     1     -11.041  -7.652   8.423  0.00  0.00    -0.242 OA
ATOM     35  N   UNL     1     -10.975  -8.221   7.127  0.00  0.00    -0.049 NA
ENDBRANCH  26  27
ENDBRANCH  24  26
ENDBRANCH  23  24
ENDBRANCH   4  23
TORSDOF 12
