REMARK  Name = ZINC02300060
REMARK  8 active torsions:
REMARK  status: ('A' for Active; 'I' for Inactive)
REMARK    1  A    between atoms: C_1  and  C_2
REMARK    2  A    between atoms: C_5  and  O_9
REMARK    3  A    between atoms: C_6  and  C_8
REMARK    4  A    between atoms: O_9  and  C_10
REMARK    5  A    between atoms: C_10  and  C_11
REMARK    6  A    between atoms: C_11  and  N_12
REMARK    7  A    between atoms: C_14  and  C_21
REMARK    8  A    between atoms: N_28  and  C_31
REMARK                            x       y       z     vdW  Elec       q    Type
REMARK                         _______ _______ _______ _____ _____    ______ ____
ROOT
ATOM      1  N   UNL     1       4.077   1.116   2.662  0.00  0.00    -0.343 N 
ATOM      2  C   UNL     1       4.299  -0.018   1.973  0.00  0.00    +0.095 A 
ATOM      3  C   UNL     1       3.089  -0.606   1.646  0.00  0.00    +0.001 A 
ATOM      4  C   UNL     1       2.042   0.275   2.203  0.00  0.00    +0.007 A 
ATOM      5  C   UNL     1       2.723   1.333   2.825  0.00  0.00    +0.050 A 
ATOM      6  C   UNL     1       1.992   2.336   3.453  0.00  0.00    +0.026 A 
ATOM      7  C   UNL     1       0.615   2.288   3.453  0.00  0.00    +0.002 A 
ATOM      8  C   UNL     1      -0.055   1.242   2.837  0.00  0.00    +0.001 A 
ATOM      9  C   UNL     1       0.652   0.236   2.213  0.00  0.00    +0.010 A 
ENDROOT
BRANCH   3  10
ATOM     10  C   UNL     1       2.896  -1.804   0.928  0.00  0.00    +0.028 C 
ATOM     11  C   UNL     1       3.587  -2.022  -0.256  0.00  0.00    +0.100 C 
ATOM     12  C   UNL     1       3.574  -3.337  -0.922  0.00  0.00    +0.257 C 
ATOM     13  O   UNL     1       2.954  -4.271  -0.450  0.00  0.00    -0.270 OA
ATOM     14  N   UNL     1       4.263  -3.475  -2.074  0.00  0.00    -0.235 N 
ATOM     15  C   UNL     1       4.955  -2.456  -2.602  0.00  0.00    +0.320 C 
ATOM     16  O   UNL     1       5.560  -2.647  -3.639  0.00  0.00    -0.251 OA
ATOM     17  N   UNL     1       5.016  -1.237  -2.047  0.00  0.00    -0.190 N 
ATOM     18  C   UNL     1       4.370  -0.953  -0.898  0.00  0.00    +0.263 C 
ATOM     19  O   UNL     1       4.432   0.158  -0.405  0.00  0.00    -0.269 OA
ATOM     20  H   UNL     1       4.261  -4.332  -2.527  0.00  0.00    +0.159 HD
BRANCH  17  21
ATOM     21  C   UNL     1       5.768  -0.235  -2.676  0.00  0.00    +0.046 A 
ATOM     22  C   UNL     1       5.167   0.610  -3.599  0.00  0.00    +0.025 A 
ATOM     23  C   UNL     1       5.908   1.600  -4.213  0.00  0.00    +0.022 A 
ATOM     24  C   UNL     1       7.253   1.743  -3.918  0.00  0.00    +0.041 A 
ATOM     25  C   UNL     1       7.856   0.898  -3.002  0.00  0.00    +0.022 A 
ATOM     26  C   UNL     1       7.117  -0.089  -2.381  0.00  0.00    +0.025 A 
ATOM     27 CL   UNL     1       8.184   2.984  -4.697  0.00  0.00    -0.084 Cl
ENDBRANCH  17  21
ENDBRANCH   3  10
BRANCH   1  28
ATOM     28  C   UNL     1       5.128   2.000   3.170  0.00  0.00    +0.163 C 
BRANCH  28  29
ATOM     29  C   UNL     1       5.436   1.643   4.625  0.00  0.00    +0.250 C 
BRANCH  29  30
ATOM     30  O   UNL     1       6.462   2.505   5.121  0.00  0.00    -0.490 OA
BRANCH  30  35
ATOM     31  C   UNL     1       8.095   1.732  10.456  0.00  0.00    +0.044 C 
ATOM     32  C   UNL     1       7.658   1.939   9.029  0.00  0.00    -0.050 A 
ATOM     33  C   UNL     1       6.669   1.139   8.487  0.00  0.00    +0.007 A 
ATOM     34  C   UNL     1       6.263   1.329   7.180  0.00  0.00    +0.046 A 
ATOM     35  C   UNL     1       6.856   2.319   6.409  0.00  0.00    +0.123 A 
ATOM     36  C   UNL     1       7.847   3.121   6.955  0.00  0.00    -0.009 A 
ATOM     37  C   UNL     1       8.246   2.929   8.264  0.00  0.00    +0.010 A 
ATOM     38  C   UNL     1       8.489   4.200   6.121  0.00  0.00    +0.047 C 
ENDBRANCH  30  35
ENDBRANCH  29  30
ENDBRANCH  28  29
ENDBRANCH   1  28
TORSDOF 6
