REMARK  Name = ZINC39451333
REMARK  0 active torsions:
REMARK  status: ('A' for Active; 'I' for Inactive)
REMARK                            x       y       z     vdW  Elec       q    Type
REMARK                         _______ _______ _______ _____ _____    ______ ____
ROOT
ATOM      1  C   UNL     1      -0.017   1.391   0.010  0.00  0.00    +0.037 A 
ATOM      2  C   UNL     1       1.198   2.057   0.002  0.00  0.00    +0.060 A 
ATOM      3  C   UNL     1       2.380   1.328  -0.013  0.00  0.00    +0.131 A 
ATOM      4  N   UNL     1       2.377   0.012  -0.019  0.00  0.00    -0.251 NA
ATOM      5  C   UNL     1       1.243  -0.677  -0.012  0.00  0.00    +0.099 A 
ATOM      6  C   UNL     1       0.002  -0.004   0.002  0.00  0.00    +0.070 A 
ATOM      7  C   UNL     1      -1.236  -0.796   0.008  0.00  0.00    +0.289 A 
ATOM      8  O   UNL     1      -2.317  -0.235   0.022  0.00  0.00    -0.265 OA
ATOM      9  N   UNL     1      -1.176  -2.140  -0.002  0.00  0.00    -0.136 N 
ATOM     10  C   UNL     1       0.032  -2.826  -0.018  0.00  0.00    +0.144 A 
ATOM     11  C   UNL     1       1.236  -2.146  -0.018  0.00  0.00    +0.084 A 
ATOM     12  N   UNL     1       2.424  -2.850  -0.018  0.00  0.00    -0.328 N 
ATOM     13  C   UNL     1       2.434  -4.204   0.558  0.00  0.00    +0.146 C 
ATOM     14  C   UNL     1       1.314  -5.014  -0.105  0.00  0.00    +0.115 C 
ATOM     15  C   UNL     1       0.024  -4.240  -0.030  0.00  0.00    +0.186 C 
ATOM     16  O   UNL     1      -1.033  -4.836   0.022  0.00  0.00    -0.290 OA
ATOM     17 BR   UNL     1       2.122  -4.102   2.496  0.00  0.00    -0.067 Br
ATOM     18  F   UNL     1      -2.284  -2.819   0.004  0.00  0.00    -0.090 F 
ATOM     19 CL   UNL     1       1.242   3.793   0.010  0.00  0.00    -0.082 Cl
ATOM     20  H   UNL     1       3.232  -2.462  -0.389  0.00  0.00    +0.147 HD
ENDROOT
TORSDOF 0
