REMARK  Name = ZINC48355301
REMARK  7 active torsions:
REMARK  status: ('A' for Active; 'I' for Inactive)
REMARK    1  A    between atoms: C_1  and  C_2
REMARK    2  A    between atoms: C_2  and  C_4
REMARK    3  A    between atoms: C_2  and  N_14
REMARK    4  A    between atoms: C_7  and  S_10
REMARK    5  A    between atoms: S_10  and  N_13
REMARK    6  A    between atoms: C_15  and  C_17
REMARK    7  A    between atoms: N_19  and  C_20
REMARK                            x       y       z     vdW  Elec       q    Type
REMARK                         _______ _______ _______ _____ _____    ______ ____
ROOT
ATOM      1  N   UNL     1       0.684  -0.499  -1.198  0.00  0.00    -0.301 N 
ATOM      2  C   UNL     1       0.003  -0.625  -2.354  0.00  0.00    +0.300 C 
ATOM      3  O   UNL     1      -1.179  -0.355  -2.395  0.00  0.00    -0.265 OA
ATOM      4  H   UNL     1       1.629  -0.714  -1.166  0.00  0.00    +0.150 HD
ENDROOT
BRANCH   2   5
ATOM      5  C   UNL     1       0.704  -1.095  -3.586  0.00  0.00    +0.303 C 
ATOM      6  O   UNL     1       1.887  -1.365  -3.546  0.00  0.00    -0.265 OA
ATOM      7  N   UNL     1       0.024  -1.221  -4.742  0.00  0.00    -0.276 N 
ATOM      8  H   UNL     1      -0.934  -1.069  -4.761  0.00  0.00    +0.155 HD
BRANCH   7   9
ATOM      9  C   UNL     1       0.698  -1.571  -5.916  0.00  0.00    +0.054 A 
ATOM     10  C   UNL     1       1.777  -2.444  -5.864  0.00  0.00    +0.044 A 
ATOM     11  C   UNL     1       2.442  -2.787  -7.027  0.00  0.00    +0.043 A 
ATOM     12  C   UNL     1       2.033  -2.263  -8.241  0.00  0.00    +0.021 A 
ATOM     13  C   UNL     1       0.959  -1.394  -8.295  0.00  0.00    +0.023 A 
ATOM     14  C   UNL     1       0.286  -1.051  -7.137  0.00  0.00    +0.062 A 
ATOM     15 CL   UNL     1      -1.067   0.034  -7.208  0.00  0.00    -0.082 Cl
ATOM     16 CL   UNL     1       3.791  -3.878  -6.964  0.00  0.00    -0.083 Cl
ENDBRANCH   7   9
ENDBRANCH   2   5
BRANCH   1  18
ATOM     17  C   UNL     1      -0.030   1.493   0.029  0.00  0.00    +0.033 C 
ATOM     18  C   UNL     1      -0.004  -0.037   0.010  0.00  0.00    +0.101 C 
BRANCH  18  19
ATOM     19  C   UNL     1       0.726  -0.542   1.228  0.00  0.00    -0.027 A 
ATOM     20  C   UNL     1       2.108  -0.548   1.252  0.00  0.00    +0.007 A 
ATOM     21  C   UNL     1       2.778  -1.012   2.369  0.00  0.00    +0.029 A 
ATOM     22  C   UNL     1       2.065  -1.469   3.462  0.00  0.00    +0.105 A 
ATOM     23  C   UNL     1       0.683  -1.462   3.438  0.00  0.00    +0.029 A 
ATOM     24  C   UNL     1       0.014  -0.994   2.323  0.00  0.00    +0.007 A 
BRANCH  22  25
ATOM     25  S   UNL     1       2.919  -2.060   4.886  0.00  0.00    +0.056 S 
ATOM     26  O   UNL     1       2.027  -2.939   5.558  0.00  0.00    -0.153 OA
ATOM     27  O   UNL     1       4.206  -2.471   4.446  0.00  0.00    -0.153 OA
BRANCH  25  28
ATOM     28  N   UNL     1       3.153  -0.765   5.890  0.00  0.00    -0.204 NA
ATOM     29  H   UNL     1       2.833   0.114   5.631  0.00  0.00    +0.144 HD
ATOM     30  H   UNL     1       3.611  -0.884   6.737  0.00  0.00    +0.144 HD
ENDBRANCH  25  28
ENDBRANCH  22  25
ENDBRANCH  18  19
ENDBRANCH   1  18
TORSDOF 6
