REMARK  Name = ZINC08926374
REMARK  9 active torsions:
REMARK  status: ('A' for Active; 'I' for Inactive)
REMARK    1  A    between atoms: C_1  and  C_2
REMARK    2  A    between atoms: C_2  and  C_34
REMARK    3  A    between atoms: C_3  and  N_23
REMARK    4  A    between atoms: N_5  and  C_17
REMARK    5  A    between atoms: N_8  and  C_9
REMARK    6  A    between atoms: C_9  and  C_10
REMARK    7  A    between atoms: C_10  and  C_11
REMARK    8  A    between atoms: N_23  and  O_33
REMARK    9  A    between atoms: N_26  and  C_27
REMARK                            x       y       z     vdW  Elec       q    Type
REMARK                         _______ _______ _______ _____ _____    ______ ____
ROOT
ATOM      1  C   UNL     1      -3.154   5.947   2.068  0.00  0.00    +0.035 C 
ATOM      2  C   UNL     1      -2.234   5.532   0.919  0.00  0.00    +0.070 C 
ATOM      3  C   UNL     1      -2.545   4.091   0.470  0.00  0.00    +0.220 C 
ATOM      4  N   UNL     1      -2.962   4.237  -0.932  0.00  0.00    -0.260 N 
ATOM      5  C   UNL     1      -2.912   5.532  -1.274  0.00  0.00    +0.307 C 
ATOM      6  O   UNL     1      -3.207   5.937  -2.381  0.00  0.00    -0.252 OA
ATOM      7  N   UNL     1      -2.507   6.339  -0.284  0.00  0.00    -0.276 N 
ATOM      8  C   UNL     1      -0.766   5.661   1.331  0.00  0.00    +0.035 C 
ENDROOT
BRANCH   4   9
ATOM      9  C   UNL     1      -3.369   3.142  -1.816  0.00  0.00    +0.080 C 
ATOM     10  C   UNL     1      -2.434   3.089  -3.026  0.00  0.00    +0.022 C 
ATOM     11  C   UNL     1      -2.858   1.945  -3.949  0.00  0.00    +0.002 C 
ATOM     12  C   UNL     1      -4.294   2.178  -4.423  0.00  0.00    +0.000 C 
ATOM     13  C   UNL     1      -5.229   2.231  -3.213  0.00  0.00    +0.002 C 
ATOM     14  C   UNL     1      -4.804   3.375  -2.290  0.00  0.00    +0.022 C 
ENDBRANCH   4   9
BRANCH   3  15
ATOM     15  N   UNL     1      -1.347   3.253   0.565  0.00  0.00    -0.144 N 
ATOM     16  C   UNL     1      -0.285   3.502  -0.227  0.00  0.00    +0.327 C 
ATOM     17  O   UNL     1      -0.354   4.364  -1.082  0.00  0.00    -0.250 OA
ATOM     18  N   UNL     1       0.853   2.797  -0.071  0.00  0.00    -0.295 N 
ATOM     19  H   UNL     1       0.909   2.113   0.614  0.00  0.00    +0.151 HD
BRANCH  18  20
ATOM     20  C   UNL     1       2.007   3.069  -0.932  0.00  0.00    +0.074 C 
ATOM     21  C   UNL     1       1.872   2.272  -2.231  0.00  0.00    +0.022 C 
ATOM     22  C   UNL     1       3.077   2.556  -3.130  0.00  0.00    +0.002 C 
ATOM     23  C   UNL     1       4.361   2.140  -2.409  0.00  0.00    +0.000 C 
ATOM     24  C   UNL     1       4.495   2.937  -1.109  0.00  0.00    +0.002 C 
ATOM     25  C   UNL     1       3.290   2.653  -0.210  0.00  0.00    +0.022 C 
ENDBRANCH  18  20
BRANCH  15  26
ATOM     26  O   UNL     1      -1.304   2.181   1.489  0.00  0.00    -0.289 OA
ATOM     27  H   UNL     1      -2.139   2.028   1.953  0.00  0.00    +0.242 HD
ENDBRANCH  15  26
ENDBRANCH   3  15
BRANCH   7  28
ATOM     28  C   UNL     1      -2.362   7.793  -0.381  0.00  0.00    +0.114 C 
BRANCH  28  29
ATOM     29  C   UNL     1      -3.680   8.465   0.011  0.00  0.00    +0.054 C 
BRANCH  29  30
ATOM     30  C   UNL     1      -3.530   9.961  -0.089  0.00  0.00    -0.046 A 
ATOM     31  C   UNL     1      -3.108  10.688   1.008  0.00  0.00    +0.004 A 
ATOM     32  C   UNL     1      -2.967  12.060   0.916  0.00  0.00    +0.000 A 
ATOM     33  C   UNL     1      -3.256  12.706  -0.271  0.00  0.00    +0.000 A 
ATOM     34  C   UNL     1      -3.684  11.980  -1.367  0.00  0.00    +0.000 A 
ATOM     35  C   UNL     1      -3.821  10.607  -1.276  0.00  0.00    +0.004 A 
ENDBRANCH  29  30
ENDBRANCH  28  29
ENDBRANCH   7  28
TORSDOF 7
