REMARK  Name = ZINC40083817
REMARK  8 active torsions:
REMARK  status: ('A' for Active; 'I' for Inactive)
REMARK    1  A    between atoms: C_1  and  C_2
REMARK    2  A    between atoms: C_4  and  N_15
REMARK    3  A    between atoms: C_5  and  C_14
REMARK    4  A    between atoms: N_7  and  C_8
REMARK    5  A    between atoms: C_16  and  C_18
REMARK    6  A    between atoms: C_18  and  O_19
REMARK    7  A    between atoms: O_19  and  C_20
REMARK    8  A    between atoms: C_20  and  C_22
REMARK                            x       y       z     vdW  Elec       q    Type
REMARK                         _______ _______ _______ _____ _____    ______ ____
ROOT
ATOM      1  N   UNL     1      -2.433  -0.355  -0.838  0.00  0.00    -0.283 N 
ATOM      2  C   UNL     1      -3.610  -0.993  -0.687  0.00  0.00    +0.255 C 
ATOM      3  O   UNL     1      -3.810  -1.673   0.298  0.00  0.00    -0.272 OA
ATOM      4  H   UNL     1      -2.300   0.246  -1.587  0.00  0.00    +0.155 HD
ENDROOT
BRANCH   1   7
ATOM      5  C   UNL     1      -0.146  -2.543  -0.761  0.00  0.00    +0.036 C 
ATOM      6  C   UNL     1      -0.787  -1.888   0.464  0.00  0.00    +0.137 C 
ATOM      7  C   UNL     1      -1.402  -0.559   0.088  0.00  0.00    +0.050 C 
ATOM      8  C   UNL     1      -0.789   0.376   0.794  0.00  0.00    +0.038 C 
ATOM      9  N   UNL     1       0.188  -0.164   1.621  0.00  0.00    -0.266 N 
ATOM     10  N   UNL     1       0.239  -1.559   1.466  0.00  0.00    -0.245 N 
ATOM     11  C   UNL     1      -1.110   1.846   0.711  0.00  0.00    +0.063 C 
ATOM     12  H   UNL     1       0.754   0.348   2.220  0.00  0.00    +0.170 HD
BRANCH  10  13
ATOM     13  C   UNL     1       1.089  -2.451   2.125  0.00  0.00    +0.048 A 
ATOM     14  C   UNL     1       1.018  -3.811   1.852  0.00  0.00    +0.025 A 
ATOM     15  C   UNL     1       1.859  -4.690   2.505  0.00  0.00    +0.002 A 
ATOM     16  C   UNL     1       2.772  -4.217   3.430  0.00  0.00    +0.000 A 
ATOM     17  C   UNL     1       2.846  -2.864   3.704  0.00  0.00    +0.002 A 
ATOM     18  C   UNL     1       2.011  -1.979   3.051  0.00  0.00    +0.025 A 
ENDBRANCH  10  13
ENDBRANCH   1   7
BRANCH   2  19
ATOM     19  C   UNL     1      -4.678  -0.864  -1.742  0.00  0.00    +0.328 C 
BRANCH  19  20
ATOM     20  O   UNL     1      -5.824  -1.627  -1.357  0.00  0.00    -0.452 OA
BRANCH  20  21
ATOM     21  C   UNL     1      -6.876  -1.617  -2.198  0.00  0.00    +0.340 C 
ATOM     22  O   UNL     1      -6.823  -0.979  -3.230  0.00  0.00    -0.245 OA
BRANCH  21  23
ATOM     23  C   UNL     1      -8.093  -2.382  -1.865  0.00  0.00    +0.060 A 
ATOM     24  C   UNL     1      -8.156  -3.115  -0.671  0.00  0.00    +0.017 A 
ATOM     25  C   UNL     1      -9.273  -3.826  -0.351  0.00  0.00    +0.027 A 
ATOM     26  C   UNL     1     -10.371  -3.835  -1.209  0.00  0.00    +0.047 A 
ATOM     27  C   UNL     1     -10.321  -3.103  -2.413  0.00  0.00    +0.004 A 
ATOM     28  C   UNL     1      -9.180  -2.372  -2.735  0.00  0.00    +0.025 A 
ATOM     29  C   UNL     1     -11.609  -3.322  -3.066  0.00  0.00    -0.019 A 
ATOM     30  C   UNL     1     -12.330  -4.130  -2.267  0.00  0.00    +0.020 A 
ATOM     31  N   UNL     1     -11.602  -4.444  -1.154  0.00  0.00    -0.358 N 
ATOM     32  H   UNL     1     -11.909  -5.013  -0.431  0.00  0.00    +0.166 HD
ATOM     33  C   UNL     1     -13.732  -4.595  -2.592  0.00  0.00    +0.053 C 
ATOM     34  C   UNL     1     -14.303  -3.689  -3.689  0.00  0.00    +0.006 C 
ATOM     35  C   UNL     1     -13.301  -3.587  -4.842  0.00  0.00    +0.005 C 
ATOM     36  C   UNL     1     -12.085  -2.771  -4.385  0.00  0.00    +0.037 C 
ENDBRANCH  21  23
ENDBRANCH  20  21
ENDBRANCH  19  20
ENDBRANCH   2  19
TORSDOF 6
