REMARK  Name = ZINC62181865
REMARK  7 active torsions:
REMARK  status: ('A' for Active; 'I' for Inactive)
REMARK    1  A    between atoms: C_1  and  C_2
REMARK    2  A    between atoms: C_2  and  C_3
REMARK    3  A    between atoms: C_2  and  C_10
REMARK    4  A    between atoms: C_2  and  S_13
REMARK    5  A    between atoms: C_3  and  C_4
REMARK    6  A    between atoms: S_13  and  C_14
REMARK    7  A    between atoms: C_15  and  N_20
REMARK                            x       y       z     vdW  Elec       q    Type
REMARK                         _______ _______ _______ _____ _____    ______ ____
ROOT
ATOM      1  C   UNL     1      -0.019   1.526   0.010  0.00  0.00    +0.035 C 
ATOM      2  C   UNL     1       0.002  -0.004   0.002  0.00  0.00    +0.124 C 
ENDROOT
BRANCH   2   3
ATOM      3  C   UNL     1       0.707  -0.490  -1.238  0.00  0.00    +0.372 C 
ATOM      4  O   UNL     1       1.869  -0.179  -1.440  0.00  0.00    -0.245 OA
ATOM      5  O   UNL     1       0.117  -1.195  -2.039  0.00  0.00    -0.245 OA
ENDBRANCH   2   3
BRANCH   2   6
ATOM      6  C   UNL     1       0.742  -0.511   1.242  0.00  0.00    +0.064 C 
BRANCH   6   7
ATOM      7  C   UNL     1       0.110   0.075   2.478  0.00  0.00    -0.046 A 
ATOM      8  C   UNL     1       0.562   1.281   2.980  0.00  0.00    +0.004 A 
ATOM      9  C   UNL     1      -0.018   1.818   4.114  0.00  0.00    +0.000 A 
ATOM     10  C   UNL     1      -1.049   1.149   4.747  0.00  0.00    +0.000 A 
ATOM     11  C   UNL     1      -1.501  -0.057   4.244  0.00  0.00    +0.000 A 
ATOM     12  C   UNL     1      -0.924  -0.592   3.108  0.00  0.00    +0.004 A 
ENDBRANCH   6   7
ENDBRANCH   2   6
BRANCH   2  13
ATOM     13  S   UNL     1      -1.700  -0.632   0.015  0.00  0.00    -0.086 S 
BRANCH  13  14
ATOM     14  C   UNL     1      -2.410   0.030  -1.456  0.00  0.00    +0.119 A 
ATOM     15  C   UNL     1      -3.743  -0.251  -1.770  0.00  0.00    +0.057 A 
ATOM     16  C   UNL     1      -4.285   0.279  -2.932  0.00  0.00    +0.027 A 
ATOM     17  C   UNL     1      -3.477   1.071  -3.739  0.00  0.00    +0.022 A 
ATOM     18  C   UNL     1      -2.170   1.306  -3.365  0.00  0.00    +0.112 A 
ATOM     19  N   UNL     1      -1.679   0.795  -2.251  0.00  0.00    -0.247 NA
BRANCH  15  20
ATOM     20  N   UNL     1      -4.518  -1.055  -0.926  0.00  0.00    -0.356 N 
ATOM     21  H   UNL     1      -4.130  -1.422  -0.116  0.00  0.00    +0.142 HD
ATOM     22  H   UNL     1      -5.441  -1.246  -1.152  0.00  0.00    +0.142 HD
ENDBRANCH  15  20
ENDBRANCH  13  14
ENDBRANCH   2  13
TORSDOF 6
