REMARK  Name = ZINC38684991
REMARK  10 active torsions:
REMARK  status: ('A' for Active; 'I' for Inactive)
REMARK    1  A    between atoms: C_1  and  O_2
REMARK    2  A    between atoms: O_2  and  C_3
REMARK    3  A    between atoms: C_6  and  C_11
REMARK    4  A    between atoms: C_8  and  O_9
REMARK    5  A    between atoms: O_9  and  C_10
REMARK    6  A    between atoms: C_15  and  C_17
REMARK    7  A    between atoms: C_20  and  O_24
REMARK    8  A    between atoms: C_22  and  O_23
REMARK    9  A    between atoms: O_24  and  C_25
REMARK   10  A    between atoms: C_25  and  C_26
REMARK                            x       y       z     vdW  Elec       q    Type
REMARK                         _______ _______ _______ _____ _____    ______ ____
ROOT
ATOM      1  C   UNL     1       2.104  -1.044  -6.354  0.00  0.00    +0.022 A 
ATOM      2  C   UNL     1       3.177  -0.612  -7.111  0.00  0.00    +0.013 A 
ATOM      3  C   UNL     1       3.205   0.679  -7.600  0.00  0.00    +0.046 A 
ATOM      4  C   UNL     1       2.156   1.548  -7.331  0.00  0.00    +0.124 A 
ATOM      5  C   UNL     1       1.079   1.117  -6.571  0.00  0.00    +0.091 A 
ATOM      6  C   UNL     1       1.050  -0.182  -6.087  0.00  0.00    +0.126 A 
ENDROOT
BRANCH   1  11
ATOM      7  C   UNL     1       2.493  -2.486  -4.361  0.00  0.00    +0.008 C 
ATOM      8  C   UNL     1       3.605  -3.260  -4.364  0.00  0.00    +0.139 C 
ATOM      9  N   UNL     1       3.890  -3.669  -5.606  0.00  0.00    -0.185 NA
ATOM     10  N   UNL     1       3.111  -3.275  -6.475  0.00  0.00    -0.297 N 
ATOM     11  C   UNL     1       2.077  -2.454  -5.822  0.00  0.00    +0.164 C 
ATOM     12  H   UNL     1       3.166  -3.474  -7.423  0.00  0.00    +0.183 HD
BRANCH   7  16
ATOM     13  C   UNL     1       0.606  -0.607  -1.055  0.00  0.00    +0.162 A 
ATOM     14  C   UNL     1       1.172   0.165  -2.061  0.00  0.00    +0.050 A 
ATOM     15  C   UNL     1       1.786  -0.441  -3.136  0.00  0.00    +0.012 A 
ATOM     16  C   UNL     1       1.839  -1.837  -3.215  0.00  0.00    -0.014 A 
ATOM     17  C   UNL     1       1.268  -2.614  -2.201  0.00  0.00    +0.057 A 
ATOM     18  C   UNL     1       0.659  -1.998  -1.125  0.00  0.00    +0.162 A 
BRANCH  13  20
ATOM     19  C   UNL     1      -0.017   1.425   0.010  0.00  0.00    +0.277 C 
ATOM     20  O   UNL     1       0.002  -0.004   0.002  0.00  0.00    -0.491 OA
ENDBRANCH  13  20
BRANCH  18  21
ATOM     21  O   UNL     1       0.108  -2.750  -0.134  0.00  0.00    -0.491 OA
ATOM     22  C   UNL     1       0.199  -4.170  -0.270  0.00  0.00    +0.277 C 
ENDBRANCH  18  21
ENDBRANCH   7  16
ENDBRANCH   1  11
BRANCH   6  23
ATOM     23  O   UNL     1      -0.007  -0.608  -5.347  0.00  0.00    -0.506 OA
ATOM     24  H   UNL     1       0.094  -0.462  -4.396  0.00  0.00    +0.292 HD
ENDBRANCH   6  23
BRANCH   4  25
ATOM     25  O   UNL     1       2.184   2.818  -7.811  0.00  0.00    -0.487 OA
BRANCH  25  26
ATOM     26  C   UNL     1       3.325   3.193  -8.586  0.00  0.00    +0.267 C 
BRANCH  26  27
ATOM     27  C   UNL     1       3.182   4.627  -9.030  0.00  0.00    +0.025 A 
ATOM     28  C   UNL     1       2.065   5.355  -8.665  0.00  0.00    +0.010 A 
ATOM     29  C   UNL     1       1.933   6.669  -9.072  0.00  0.00    +0.001 A 
ATOM     30  C   UNL     1       2.918   7.257  -9.844  0.00  0.00    +0.003 A 
ATOM     31  C   UNL     1       4.036   6.531 -10.210  0.00  0.00    +0.039 A 
ATOM     32  C   UNL     1       4.171   5.216  -9.798  0.00  0.00    +0.130 A 
ATOM     33  F   UNL     1       5.266   4.506 -10.151  0.00  0.00    -0.205 F 
ENDBRANCH  26  27
ENDBRANCH  25  26
ENDBRANCH   4  25
TORSDOF 8
