REMARK  Name = ZINC07059976
REMARK  6 active torsions:
REMARK  status: ('A' for Active; 'I' for Inactive)
REMARK    1  A    between atoms: C_1  and  O_2
REMARK    2  A    between atoms: O_2  and  C_3
REMARK    3  A    between atoms: C_6  and  C_9
REMARK    4  A    between atoms: C_20  and  C_22
REMARK    5  A    between atoms: C_25  and  O_28
REMARK    6  A    between atoms: O_28  and  C_29
REMARK                            x       y       z     vdW  Elec       q    Type
REMARK                         _______ _______ _______ _____ _____    ______ ____
ROOT
ATOM      1  C   UNL     1       2.438  -2.259  -4.416  0.00  0.00    +0.159 C 
ATOM      2  C   UNL     1       3.850  -2.650  -4.039  0.00  0.00    +0.027 C 
ATOM      3  C   UNL     1       4.177  -3.958  -4.077  0.00  0.00    +0.083 C 
ATOM      4  C   UNL     1       5.569  -4.327  -3.713  0.00  0.00    +0.044 A 
ATOM      5  C   UNL     1       5.917  -5.636  -3.412  0.00  0.00    +0.033 A 
ATOM      6  C   UNL     1       7.224  -5.935  -3.076  0.00  0.00    +0.042 A 
ATOM      7  C   UNL     1       8.181  -4.934  -3.041  0.00  0.00    +0.023 A 
ATOM      8  C   UNL     1       7.841  -3.628  -3.340  0.00  0.00    +0.048 A 
ATOM      9  C   UNL     1       6.536  -3.315  -3.679  0.00  0.00    +0.131 A 
ATOM     10  O   UNL     1       6.177  -2.042  -3.984  0.00  0.00    -0.479 OA
ATOM     11  C   UNL     1       4.860  -1.621  -3.624  0.00  0.00    +0.234 C 
ATOM     12 CL   UNL     1       7.669  -7.571  -2.699  0.00  0.00    -0.084 Cl
ATOM     13  N   UNL     1       3.275  -4.905  -4.434  0.00  0.00    -0.213 NA
ATOM     14  C   UNL     1       2.033  -4.652  -4.775  0.00  0.00    +0.237 C 
ATOM     15  N   UNL     1       1.546  -3.364  -4.788  0.00  0.00    -0.208 N 
ATOM     16  N   UNL     1       0.211  -3.447  -5.189  0.00  0.00    -0.251 N 
ATOM     17  C   UNL     1      -0.049  -4.768  -5.393  0.00  0.00    +0.203 C 
ATOM     18  N   UNL     1       1.019  -5.462  -5.153  0.00  0.00    -0.205 NA
ATOM     19  H   UNL     1      -0.409  -2.709  -5.300  0.00  0.00    +0.171 HD
ENDROOT
BRANCH   1  23
ATOM     20  C   UNL     1       0.695  -0.195  -1.105  0.00  0.00    +0.120 A 
ATOM     21  C   UNL     1       1.166   0.518  -2.198  0.00  0.00    +0.046 A 
ATOM     22  C   UNL     1       1.730  -0.152  -3.267  0.00  0.00    +0.009 A 
ATOM     23  C   UNL     1       1.824  -1.531  -3.249  0.00  0.00    -0.021 A 
ATOM     24  C   UNL     1       1.355  -2.244  -2.161  0.00  0.00    +0.009 A 
ATOM     25  C   UNL     1       0.796  -1.579  -1.086  0.00  0.00    +0.046 A 
BRANCH  20  27
ATOM     26  C   UNL     1       0.070   1.886  -0.140  0.00  0.00    +0.277 C 
ATOM     27  O   UNL     1       0.141   0.461  -0.052  0.00  0.00    -0.495 OA
ENDBRANCH  20  27
ENDBRANCH   1  23
BRANCH  11  28
ATOM     28  C   UNL     1       4.789  -1.427  -2.131  0.00  0.00    -0.003 A 
ATOM     29  C   UNL     1       5.247  -2.419  -1.284  0.00  0.00    +0.011 A 
ATOM     30  C   UNL     1       5.183  -2.244   0.085  0.00  0.00    +0.046 A 
ATOM     31  C   UNL     1       4.659  -1.071   0.609  0.00  0.00    +0.120 A 
ATOM     32  C   UNL     1       4.201  -0.077  -0.243  0.00  0.00    +0.046 A 
ATOM     33  C   UNL     1       4.272  -0.255  -1.611  0.00  0.00    +0.011 A 
BRANCH  31  34
ATOM     34  O   UNL     1       4.594  -0.896   1.955  0.00  0.00    -0.495 OA
ATOM     35  C   UNL     1       4.043   0.336   2.424  0.00  0.00    +0.277 C 
ENDBRANCH  31  34
ENDBRANCH  11  28
TORSDOF 4
