REMARK  Name = ZINC40759992
REMARK  8 active torsions:
REMARK  status: ('A' for Active; 'I' for Inactive)
REMARK    1  A    between atoms: C_1  and  N_2
REMARK    2  A    between atoms: N_2  and  C_3
REMARK    3  A    between atoms: N_2  and  N_4
REMARK    4  A    between atoms: C_6  and  N_25
REMARK    5  A    between atoms: C_7  and  N_11
REMARK    6  A    between atoms: N_11  and  C_12
REMARK    7  A    between atoms: C_12  and  C_13
REMARK    8  A    between atoms: C_12  and  C_19
REMARK                            x       y       z     vdW  Elec       q    Type
REMARK                         _______ _______ _______ _____ _____    ______ ____
ROOT
ATOM      1  N   UNL     1      -4.549  -3.045  -2.562  0.00  0.00    -0.317 N 
ATOM      2  H   UNL     1      -5.214  -2.909  -1.869  0.00  0.00    +0.148 HD
ENDROOT
BRANCH   1   6
ATOM      3  N   UNL     1      -1.264  -0.510  -0.077  0.00  0.00    -0.261 N 
ATOM      4  C   UNL     1      -1.648  -1.252  -1.187  0.00  0.00    +0.158 A 
ATOM      5  C   UNL     1      -2.942  -1.770  -1.282  0.00  0.00    +0.106 A 
ATOM      6  C   UNL     1      -3.275  -2.507  -2.419  0.00  0.00    +0.145 A 
ATOM      7  N   UNL     1      -2.355  -2.687  -3.363  0.00  0.00    -0.219 NA
ATOM      8  C   UNL     1      -1.145  -2.181  -3.235  0.00  0.00    +0.225 A 
ATOM      9  N   UNL     1      -0.791  -1.475  -2.180  0.00  0.00    -0.218 NA
ATOM     10  H   UNL     1      -1.895  -0.352   0.643  0.00  0.00    +0.168 HD
BRANCH   3  12
ATOM     11  C   UNL     1      -0.018   1.465   0.010  0.00  0.00    +0.127 C 
ATOM     12  N   UNL     1       0.002  -0.004   0.002  0.00  0.00    -0.234 NA
ATOM     13  C   UNL     1       0.706  -0.527   1.180  0.00  0.00    +0.127 C 
ENDBRANCH   3  12
BRANCH   5  14
ATOM     14  N   UNL     1      -3.881  -1.555  -0.260  0.00  0.00    -0.353 N 
ATOM     15  H   UNL     1      -3.635  -1.041   0.525  0.00  0.00    +0.143 HD
ATOM     16  H   UNL     1      -4.776  -1.921  -0.339  0.00  0.00    +0.143 HD
ENDBRANCH   5  14
ENDBRANCH   1   6
BRANCH   1  17
ATOM     17  C   UNL     1      -4.887  -3.817  -3.761  0.00  0.00    +0.132 C 
BRANCH  17  18
ATOM     18  C   UNL     1      -4.460  -5.249  -3.572  0.00  0.00    -0.023 A 
ATOM     19  C   UNL     1      -4.641  -5.870  -2.350  0.00  0.00    +0.006 A 
ATOM     20  C   UNL     1      -4.250  -7.184  -2.178  0.00  0.00    +0.000 A 
ATOM     21  C   UNL     1      -3.677  -7.878  -3.227  0.00  0.00    +0.000 A 
ATOM     22  C   UNL     1      -3.496  -7.258  -4.449  0.00  0.00    +0.000 A 
ATOM     23  C   UNL     1      -3.892  -5.945  -4.623  0.00  0.00    +0.006 A 
ENDBRANCH  17  18
BRANCH  17  24
ATOM     24  C   UNL     1      -6.375  -3.762  -3.990  0.00  0.00    -0.023 A 
ATOM     25  C   UNL     1      -7.243  -3.838  -2.917  0.00  0.00    +0.006 A 
ATOM     26  C   UNL     1      -8.609  -3.787  -3.127  0.00  0.00    +0.000 A 
ATOM     27  C   UNL     1      -9.106  -3.661  -4.411  0.00  0.00    +0.000 A 
ATOM     28  C   UNL     1      -8.238  -3.584  -5.484  0.00  0.00    +0.000 A 
ATOM     29  C   UNL     1      -6.873  -3.630  -5.273  0.00  0.00    +0.006 A 
ENDBRANCH  17  24
ENDBRANCH   1  17
TORSDOF 6
