REMARK  Name = ZINC64870010
REMARK  3 active torsions:
REMARK  status: ('A' for Active; 'I' for Inactive)
REMARK    1  A    between atoms: C_6  and  C_7
REMARK    2  A    between atoms: C_9  and  C_13
REMARK    3  A    between atoms: N_23  and  C_26
REMARK                            x       y       z     vdW  Elec       q    Type
REMARK                         _______ _______ _______ _____ _____    ______ ____
ROOT
ATOM      1  C   UNL     1      -3.315  -3.412  -0.765  0.00  0.00    +0.006 A 
ATOM      2  C   UNL     1      -2.893  -3.389  -2.086  0.00  0.00    +0.009 A 
ATOM      3  C   UNL     1      -2.958  -4.528  -2.860  0.00  0.00    +0.016 A 
ATOM      4  C   UNL     1      -3.451  -5.707  -2.305  0.00  0.00    +0.063 A 
ATOM      5  C   UNL     1      -3.878  -5.730  -0.966  0.00  0.00    +0.056 A 
ATOM      6  C   UNL     1      -3.800  -4.576  -0.202  0.00  0.00    +0.034 A 
ATOM      7  N   UNL     1      -4.364  -6.918  -0.440  0.00  0.00    -0.307 N 
ATOM      8  H   UNL     1      -4.662  -6.949   0.482  0.00  0.00    +0.170 HD
ATOM      9  C   UNL     1      -4.426  -8.027  -1.197  0.00  0.00    +0.334 A 
ATOM     10  O   UNL     1      -4.858  -9.049  -0.699  0.00  0.00    -0.246 OA
ATOM     11  N   UNL     1      -4.030  -8.056  -2.479  0.00  0.00    -0.229 N 
ATOM     12  C   UNL     1      -3.542  -6.953  -3.087  0.00  0.00    +0.269 A 
ATOM     13  O   UNL     1      -3.186  -6.987  -4.249  0.00  0.00    -0.266 OA
ENDROOT
BRANCH   1  16
ATOM     14  C   UNL     1      -2.603  -0.176  -0.788  0.00  0.00    +0.134 C 
ATOM     15  N   UNL     1      -2.125  -1.315  -0.391  0.00  0.00    -0.339 N 
ATOM     16  C   UNL     1      -3.236  -2.158   0.066  0.00  0.00    +0.274 C 
ATOM     17  O   UNL     1      -4.418  -1.364  -0.116  0.00  0.00    -0.243 OA
ATOM     18  N   UNL     1      -3.968  -0.129  -0.649  0.00  0.00    -0.247 N 
ATOM     19  H   UNL     1      -4.532   0.625  -0.879  0.00  0.00    +0.196 HD
ATOM     20  H   UNL     1      -1.188  -1.567  -0.396  0.00  0.00    +0.164 HD
BRANCH  14  26
ATOM     21  C   UNL     1      -2.188   2.257  -1.138  0.00  0.00    +0.013 A 
ATOM     22  C   UNL     1      -1.417   3.288  -1.633  0.00  0.00    +0.021 A 
ATOM     23  C   UNL     1      -0.240   3.013  -2.309  0.00  0.00    +0.041 A 
ATOM     24  C   UNL     1       0.170   1.702  -2.491  0.00  0.00    +0.021 A 
ATOM     25  C   UNL     1      -0.594   0.664  -2.000  0.00  0.00    +0.013 A 
ATOM     26  C   UNL     1      -1.780   0.935  -1.318  0.00  0.00    +0.017 A 
ATOM     27 CL   UNL     1       0.725   4.315  -2.930  0.00  0.00    -0.084 Cl
ENDBRANCH  14  26
ENDBRANCH   1  16
BRANCH  11  28
ATOM     28  C   UNL     1      -4.126  -9.254  -3.202  0.00  0.00    +0.055 A 
ATOM     29  C   UNL     1      -5.283  -9.546  -3.912  0.00  0.00    +0.029 A 
ATOM     30  C   UNL     1      -5.375 -10.726  -4.623  0.00  0.00    +0.040 A 
ATOM     31  C   UNL     1      -4.315 -11.617  -4.629  0.00  0.00    +0.124 A 
ATOM     32  C   UNL     1      -3.161 -11.327  -3.922  0.00  0.00    +0.040 A 
ATOM     33  C   UNL     1      -3.062 -10.145  -3.213  0.00  0.00    +0.029 A 
ATOM     34  F   UNL     1      -4.408 -12.772  -5.325  0.00  0.00    -0.205 F 
ENDBRANCH  11  28
TORSDOF 3
