REMARK  Name = ZINC20167329
REMARK  7 active torsions:
REMARK  status: ('A' for Active; 'I' for Inactive)
REMARK    1  A    between atoms: C_1  and  N_2
REMARK    2  A    between atoms: N_2  and  C_3
REMARK    3  A    between atoms: N_2  and  C_22
REMARK    4  A    between atoms: C_3  and  C_4
REMARK    5  A    between atoms: C_9  and  C_10
REMARK    6  A    between atoms: C_13  and  C_16
REMARK    7  A    between atoms: C_22  and  C_23
REMARK                            x       y       z     vdW  Elec       q    Type
REMARK                         _______ _______ _______ _____ _____    ______ ____
ROOT
ATOM      1  C   UNL     1      -2.218  -0.894   6.404  0.00  0.00    -0.019 A 
ATOM      2  C   UNL     1      -1.082  -1.246   7.045  0.00  0.00    +0.107 A 
ATOM      3  N   UNL     1      -1.265  -2.475   7.574  0.00  0.00    -0.284 N 
ATOM      4  H   UNL     1      -0.456  -2.955   8.143  0.00  0.00    +0.188 HD
ATOM      5  N   UNL     1      -2.560  -2.901   7.251  0.00  0.00    -0.174 NA
ATOM      6  C   UNL     1      -3.140  -1.949   6.551  0.00  0.00    +0.094 A 
ENDROOT
BRANCH   6   7
ATOM      7  C   UNL     1      -4.521  -1.983   6.008  0.00  0.00    +0.002 A 
ATOM      8  C   UNL     1      -5.336  -0.856   6.106  0.00  0.00    +0.010 A 
ATOM      9  C   UNL     1      -6.616  -0.885   5.598  0.00  0.00    +0.009 A 
ATOM     10  C   UNL     1      -7.100  -2.046   4.995  0.00  0.00    -0.018 A 
ATOM     11  C   UNL     1      -6.287  -3.175   4.902  0.00  0.00    +0.009 A 
ATOM     12  C   UNL     1      -5.005  -3.143   5.406  0.00  0.00    +0.010 A 
BRANCH  10  13
ATOM     13  C   UNL     1      -8.480  -2.080   4.453  0.00  0.00    -0.018 A 
ATOM     14  C   UNL     1      -8.965  -3.236   3.845  0.00  0.00    +0.008 A 
ATOM     15  C   UNL     1     -10.252  -3.263   3.346  0.00  0.00    +0.001 A 
ATOM     16  C   UNL     1     -11.056  -2.142   3.440  0.00  0.00    +0.000 A 
ATOM     17  C   UNL     1     -10.579  -0.990   4.038  0.00  0.00    +0.001 A 
ATOM     18  C   UNL     1      -9.296  -0.953   4.544  0.00  0.00    +0.008 A 
ENDBRANCH  10  13
ENDBRANCH   6   7
BRANCH   1  19
ATOM     19  C   UNL     1      -2.458   0.399   5.669  0.00  0.00    -0.039 C 
BRANCH  19  21
ATOM     20  C   UNL     1      -1.054  -0.128   3.768  0.00  0.00    -0.095 C 
ATOM     21  N   UNL     1      -2.423   0.153   4.221  0.00  0.00    +0.384 N 
ATOM     22  H   UNL     1      -3.036  -0.737   4.014  0.00  0.00    -0.081 HD
BRANCH  21  23
ATOM     23  C   UNL     1      -3.001   1.282   3.481  0.00  0.00    -0.023 C 
BRANCH  23  24
ATOM     24  C   UNL     1      -3.174   0.899   2.034  0.00  0.00    +0.023 A 
ATOM     25  C   UNL     1      -2.232   1.075   1.023  0.00  0.00    -0.006 A 
ATOM     26  C   UNL     1      -2.767   0.607  -0.134  0.00  0.00    +0.066 A 
ATOM     27  N   UNL     1      -4.001   0.151   0.137  0.00  0.00    -0.178 NA
ATOM     28  H   UNL     1      -5.111   0.118   2.138  0.00  0.00    +0.188 HD
ATOM     29  N   UNL     1      -4.239   0.345   1.506  0.00  0.00    -0.283 N 
ATOM     30  C   UNL     1      -2.054   0.623  -1.463  0.00  0.00    +0.057 C 
ATOM     31  C   UNL     1      -0.871   1.594  -1.365  0.00  0.00    +0.007 C 
ATOM     32  C   UNL     1      -0.051   1.276  -0.112  0.00  0.00    +0.005 C 
ATOM     33  C   UNL     1      -0.852   1.671   1.136  0.00  0.00    +0.039 C 
ENDBRANCH  23  24
ENDBRANCH  21  23
ENDBRANCH  19  21
ENDBRANCH   1  19
TORSDOF 6
