REMARK  Name = ZINC23081213
REMARK  7 active torsions:
REMARK  status: ('A' for Active; 'I' for Inactive)
REMARK    1  A    between atoms: C_6  and  N_7
REMARK    2  A    between atoms: C_11  and  C_13
REMARK    3  A    between atoms: C_13  and  O_15
REMARK    4  A    between atoms: O_15  and  C_16
REMARK    5  A    between atoms: C_16  and  C_17
REMARK    6  A    between atoms: N_19  and  C_20
REMARK    7  A    between atoms: C_21  and  C_29
REMARK                            x       y       z     vdW  Elec       q    Type
REMARK                         _______ _______ _______ _____ _____    ______ ____
ROOT
ATOM      1  C   UNL     1       1.141   2.072   0.002  0.00  0.00    +0.255 C 
ATOM      2  O   UNL     1       2.200   1.480  -0.011  0.00  0.00    -0.272 OA
ATOM      3  N   UNL     1      -0.017   1.382   0.010  0.00  0.00    -0.277 N 
ATOM      4  H   UNL     1      -0.977   1.919   0.022  0.00  0.00    +0.155 HD
ENDROOT
BRANCH   3   5
ATOM      5  C   UNL     1       0.002  -0.004   0.002  0.00  0.00    +0.084 A 
ATOM      6  C   UNL     1      -1.073  -0.881   0.013  0.00  0.00    +0.068 A 
ATOM      7  C   UNL     1      -0.780  -2.304  -0.003  0.00  0.00    -0.023 A 
ATOM      8  C   UNL     1       0.533  -2.620  -0.016  0.00  0.00    -0.004 A 
ATOM      9  S   UNL     1       1.374  -1.062  -0.016  0.00  0.00    -0.077 S 
ATOM     10  C   UNL     1       1.132  -3.993  -0.028  0.00  0.00    +0.043 C 
ATOM     11  C   UNL     1       0.038  -5.000   0.356  0.00  0.00    +0.005 C 
ATOM     12  C   UNL     1      -1.218  -4.703  -0.467  0.00  0.00    +0.005 C 
ATOM     13  C   UNL     1      -1.848  -3.390   0.002  0.00  0.00    +0.037 C 
BRANCH   6  14
ATOM     14  C   UNL     1      -2.455  -0.390   0.036  0.00  0.00    +0.244 C 
ATOM     15  O   UNL     1      -3.044  -0.181  -1.008  0.00  0.00    -0.270 OA
ATOM     16  N   UNL     1      -3.072  -0.170   1.214  0.00  0.00    -0.325 N 
ATOM     17  H   UNL     1      -4.108   0.198   1.231  0.00  0.00    +0.145 HD
ATOM     18  H   UNL     1      -2.540  -0.359   2.158  0.00  0.00    +0.145 HD
ENDBRANCH   6  14
ENDBRANCH   3   5
BRANCH   1  19
ATOM     19  C   UNL     1       1.121   3.579   0.011  0.00  0.00    +0.328 C 
BRANCH  19  20
ATOM     20  O   UNL     1       2.483   4.082   0.000  0.00  0.00    -0.451 OA
BRANCH  20  21
ATOM     21  C   UNL     1       2.642   5.421   0.006  0.00  0.00    +0.346 C 
ATOM     22  O   UNL     1       1.667   6.148   0.019  0.00  0.00    -0.244 OA
BRANCH  21  30
ATOM     23  C   UNL     1       8.496   8.053  -0.037  0.00  0.00    +0.034 A 
ATOM     24  C   UNL     1       7.985   6.771  -0.038  0.00  0.00    +0.018 A 
ATOM     25  C   UNL     1       6.620   6.583  -0.026  0.00  0.00    +0.020 A 
ATOM     26  C   UNL     1       5.710   7.668  -0.011  0.00  0.00    -0.008 A 
ATOM     27  C   UNL     1       6.278   8.967  -0.010  0.00  0.00    +0.041 A 
ATOM     28  C   UNL     1       7.626   9.136  -0.023  0.00  0.00    +0.127 A 
ATOM     29  C   UNL     1       4.349   7.312  -0.000  0.00  0.00    +0.031 A 
ATOM     30  C   UNL     1       3.991   6.000  -0.004  0.00  0.00    +0.097 A 
ATOM     31  S   UNL     1       5.563   5.157  -0.015  0.00  0.00    -0.082 S 
BRANCH  28  32
ATOM     32  N   UNL     1       8.181  10.508  -0.022  0.00  0.00    +0.056 N 
ATOM     33  O   UNL     1       9.387  10.677  -0.033  0.00  0.00    -0.126 OA
ATOM     34  O   UNL     1       7.432  11.469  -0.009  0.00  0.00    -0.126 OA
ENDBRANCH  28  32
ENDBRANCH  21  30
ENDBRANCH  20  21
ENDBRANCH  19  20
ENDBRANCH   1  19
TORSDOF 7
