REMARK  Name = ZINC39914749
REMARK  10 active torsions:
REMARK  status: ('A' for Active; 'I' for Inactive)
REMARK    1  A    between atoms: C_1  and  C_2
REMARK    2  A    between atoms: C_5  and  C_8
REMARK    3  A    between atoms: C_8  and  N_9
REMARK    4  A    between atoms: C_10  and  C_29
REMARK    5  A    between atoms: C_13  and  C_20
REMARK    6  A    between atoms: C_23  and  C_27
REMARK    7  A    between atoms: C_25  and  O_26
REMARK    8  A    between atoms: C_32  and  O_35
REMARK    9  A    between atoms: O_35  and  C_36
REMARK   10  A    between atoms: C_36  and  C_37
REMARK                            x       y       z     vdW  Elec       q    Type
REMARK                         _______ _______ _______ _____ _____    ______ ____
ROOT
ATOM      1  N   UNL     1       1.242  -4.526  -0.255  0.00  0.00    -0.281 N 
ATOM      2  C   UNL     1       2.340  -4.722  -1.211  0.00  0.00    +0.142 C 
ATOM      3  C   UNL     1       3.536  -5.127  -0.394  0.00  0.00    +0.035 A 
ATOM      4  C   UNL     1       4.887  -5.491  -0.381  0.00  0.00    +0.102 A 
ATOM      5  N   UNL     1       5.225  -5.711   0.874  0.00  0.00    -0.173 NA
ATOM      6  N   UNL     1       4.221  -5.522   1.655  0.00  0.00    -0.272 N 
ATOM      7  H   UNL     1       4.239  -5.625   2.619  0.00  0.00    +0.189 HD
ATOM      8  C   UNL     1       3.127  -5.153   0.925  0.00  0.00    +0.126 A 
ATOM      9  C   UNL     1       1.711  -4.773   0.982  0.00  0.00    +0.266 C 
ATOM     10  O   UNL     1       1.054  -4.694   2.002  0.00  0.00    -0.268 OA
ENDROOT
BRANCH   4  11
ATOM     11  C   UNL     1       5.777  -5.609  -1.564  0.00  0.00    +0.045 A 
ATOM     12  C   UNL     1       5.340  -6.280  -2.703  0.00  0.00    +0.034 A 
ATOM     13  C   UNL     1       6.171  -6.387  -3.801  0.00  0.00    +0.045 A 
ATOM     14  C   UNL     1       7.438  -5.829  -3.772  0.00  0.00    -0.029 A 
ATOM     15  C   UNL     1       7.880  -5.161  -2.646  0.00  0.00    +0.050 A 
ATOM     16  C   UNL     1       7.053  -5.042  -1.540  0.00  0.00    +0.126 A 
ATOM     17  C   UNL     1       8.339  -5.950  -4.974  0.00  0.00    +0.045 C 
ATOM     18 CL   UNL     1       5.626  -7.224  -5.221  0.00  0.00    -0.083 Cl
BRANCH  16  19
ATOM     19  O   UNL     1       7.485  -4.380  -0.435  0.00  0.00    -0.506 OA
ATOM     20  H   UNL     1       7.939  -4.943   0.208  0.00  0.00    +0.292 HD
ENDBRANCH  16  19
ENDBRANCH   4  11
BRANCH   2  21
ATOM     21  C   UNL     1       2.623  -3.438  -1.946  0.00  0.00    -0.022 A 
ATOM     22  C   UNL     1       2.805  -2.264  -1.240  0.00  0.00    +0.009 A 
ATOM     23  C   UNL     1       3.064  -1.085  -1.912  0.00  0.00    +0.046 A 
ATOM     24  C   UNL     1       3.142  -1.080  -3.297  0.00  0.00    +0.121 A 
ATOM     25  C   UNL     1       2.959  -2.260  -4.004  0.00  0.00    +0.046 A 
ATOM     26  C   UNL     1       2.705  -3.437  -3.326  0.00  0.00    +0.009 A 
BRANCH  24  27
ATOM     27  O   UNL     1       3.397   0.078  -3.960  0.00  0.00    -0.488 OA
BRANCH  27  28
ATOM     28  C   UNL     1       3.462   0.008  -5.386  0.00  0.00    +0.256 C 
BRANCH  28  29
ATOM     29  C   UNL     1       3.751   1.379  -5.943  0.00  0.00    +0.006 C 
ATOM     30  C   UNL     1       4.648   1.527  -6.886  0.00  0.00    +0.007 C 
ENDBRANCH  28  29
ENDBRANCH  27  28
ENDBRANCH  24  27
ENDBRANCH   2  21
BRANCH   1  31
ATOM     31  C   UNL     1      -0.126  -4.124  -0.589  0.00  0.00    +0.144 C 
BRANCH  31  36
ATOM     32  C   UNL     1      -0.516   1.641  -0.519  0.00  0.00    +0.044 C 
ATOM     33  C   UNL     1      -0.414   0.137  -0.537  0.00  0.00    -0.050 A 
ATOM     34  C   UNL     1      -0.073  -0.518  -1.706  0.00  0.00    +0.003 A 
ATOM     35  C   UNL     1       0.021  -1.897  -1.722  0.00  0.00    +0.005 A 
ATOM     36  C   UNL     1      -0.227  -2.621  -0.571  0.00  0.00    -0.030 A 
ATOM     37  C   UNL     1      -0.568  -1.965   0.598  0.00  0.00    +0.005 A 
ATOM     38  C   UNL     1      -0.657  -0.586   0.616  0.00  0.00    +0.003 A 
ENDBRANCH  31  36
ENDBRANCH   1  31
TORSDOF 8
