REMARK  Name = ZINC35047226
REMARK  10 active torsions:
REMARK  status: ('A' for Active; 'I' for Inactive)
REMARK    1  A    between atoms: C_1  and  C_2
REMARK    2  A    between atoms: C_4  and  N_16
REMARK    3  A    between atoms: N_8  and  C_9
REMARK    4  A    between atoms: C_9  and  C_11
REMARK    5  A    between atoms: C_9  and  O_15
REMARK    6  A    between atoms: N_16  and  N_17
REMARK    7  A    between atoms: C_18  and  N_19
REMARK    8  A    between atoms: C_20  and  C_25
REMARK    9  A    between atoms: C_25  and  O_27
REMARK   10  A    between atoms: O_27  and  C_28
REMARK                            x       y       z     vdW  Elec       q    Type
REMARK                         _______ _______ _______ _____ _____    ______ ____
ROOT
ATOM      1  C   UNL     1      -0.018   1.503   0.010  0.00  0.00    +0.066 C 
ATOM      2  C   UNL     1       0.002  -0.004   0.002  0.00  0.00    +0.045 A 
ATOM      3  C   UNL     1       0.006  -0.696  -1.194  0.00  0.00    +0.068 A 
ATOM      4  C   UNL     1       0.025  -2.091  -1.156  0.00  0.00    +0.142 A 
ATOM      5  N   UNL     1       0.039  -2.705   0.023  0.00  0.00    -0.198 NA
ATOM      6  C   UNL     1       0.035  -2.005   1.148  0.00  0.00    +0.219 A 
ATOM      7  N   UNL     1       0.022  -0.680   1.141  0.00  0.00    -0.220 NA
ATOM      8  N   UNL     1       0.049  -2.674   2.359  0.00  0.00    -0.285 N 
ATOM      9  H   UNL     1       0.062  -3.643   2.377  0.00  0.00    +0.151 HD
ENDROOT
BRANCH   4  10
ATOM     10  N   UNL     1       0.029  -2.826  -2.330  0.00  0.00    -0.234 N 
ATOM     11  H   UNL     1       0.018  -2.371  -3.187  0.00  0.00    +0.174 HD
BRANCH  10  12
ATOM     12  N   UNL     1       0.048  -4.226  -2.281  0.00  0.00    -0.232 N 
ATOM     13  C   UNL     1       1.185  -4.897  -2.559  0.00  0.00    +0.137 A 
ATOM     14  C   UNL     1       1.111  -6.279  -2.485  0.00  0.00    +0.138 A 
ATOM     15  S   UNL     1      -0.594  -6.517  -2.019  0.00  0.00    -0.052 S 
ATOM     16  C   UNL     1      -1.067  -4.905  -1.949  0.00  0.00    +0.146 A 
ATOM     17  S   UNL     1      -2.608  -4.274  -1.552  0.00  0.00    -0.023 S 
BRANCH  13  18
ATOM     18  N   UNL     1       2.351  -4.247  -2.897  0.00  0.00    -0.342 N 
ATOM     19  H   UNL     1       3.152  -4.758  -3.092  0.00  0.00    +0.144 HD
ATOM     20  H   UNL     1       2.371  -3.279  -2.940  0.00  0.00    +0.144 HD
ENDBRANCH  13  18
BRANCH  14  21
ATOM     21  C   UNL     1       2.115  -7.239  -2.718  0.00  0.00    +0.349 C 
ATOM     22  O   UNL     1       3.236  -6.884  -3.033  0.00  0.00    -0.244 OA
BRANCH  21  23
ATOM     23  O   UNL     1       1.834  -8.554  -2.591  0.00  0.00    -0.464 OA
ATOM     24  C   UNL     1       2.899  -9.473  -2.841  0.00  0.00    +0.280 C 
ENDBRANCH  21  23
ENDBRANCH  14  21
ENDBRANCH  10  12
ENDBRANCH   4  10
BRANCH   8  25
ATOM     25  C   UNL     1       0.044  -1.917   3.614  0.00  0.00    +0.254 C 
BRANCH  25  26
ATOM     26  C   UNL     1      -0.768  -2.677   4.664  0.00  0.00    +0.232 C 
ATOM     27 CL   UNL     1      -0.774  -1.746   6.208  0.00  0.00    -0.079 Cl
ATOM     28 CL   UNL     1      -2.462  -2.883   4.080  0.00  0.00    -0.079 Cl
ATOM     29 CL   UNL     1      -0.027  -4.297   4.942  0.00  0.00    -0.079 Cl
ENDBRANCH  25  26
BRANCH  25  30
ATOM     30  O   UNL     1       1.387  -1.754   4.076  0.00  0.00    -0.370 OA
ATOM     31  H   UNL     1       1.848  -2.587   4.247  0.00  0.00    +0.212 HD
ENDBRANCH  25  30
ENDBRANCH   8  25
TORSDOF 8
