REMARK  Name = ZINC12883759
REMARK  8 active torsions:
REMARK  status: ('A' for Active; 'I' for Inactive)
REMARK    1  A    between atoms: C_1  and  C_2
REMARK    2  A    between atoms: C_2  and  C_3
REMARK    3  A    between atoms: C_3  and  C_5
REMARK    4  A    between atoms: C_3  and  C_6
REMARK    5  A    between atoms: C_6  and  C_8
REMARK    6  A    between atoms: C_6  and  N_17
REMARK    7  A    between atoms: N_10  and  C_11
REMARK    8  A    between atoms: C_18  and  C_20
REMARK                            x       y       z     vdW  Elec       q    Type
REMARK                         _______ _______ _______ _____ _____    ______ ____
ROOT
ATOM      1  C   UNL     1       0.029   4.221   8.403  0.00  0.00    +0.167 C 
ATOM      2  C   UNL     1       1.038   3.070   8.283  0.00  0.00    +0.069 C 
ATOM      3  C   UNL     1       0.434   1.789   8.798  0.00  0.00    -0.015 A 
ATOM      4  C   UNL     1       0.930   0.440   8.592  0.00  0.00    +0.003 A 
ATOM      5  C   UNL     1       2.036  -0.062   7.899  0.00  0.00    +0.010 A 
ATOM      6  C   UNL     1       2.210  -1.424   7.914  0.00  0.00    +0.001 A 
ATOM      7  C   UNL     1       1.338  -2.269   8.581  0.00  0.00    +0.002 A 
ATOM      8  C   UNL     1       0.237  -1.799   9.274  0.00  0.00    +0.026 A 
ATOM      9  C   UNL     1       0.035  -0.420   9.277  0.00  0.00    +0.047 A 
ATOM     10  N   UNL     1      -0.925   0.364   9.847  0.00  0.00    -0.356 N 
ATOM     11  H   UNL     1      -1.666   0.039  10.381  0.00  0.00    +0.166 HD
ATOM     12  C   UNL     1      -0.684   1.678   9.552  0.00  0.00    +0.046 A 
ATOM     13  C   UNL     1      -1.511   2.868   9.973  0.00  0.00    +0.155 C 
ATOM     14  N   UNL     1      -0.685   4.062   9.674  0.00  0.00    -0.273 N 
ATOM     15  C   UNL     1      -0.698   4.868  10.744  0.00  0.00    +0.248 C 
ATOM     16  O   UNL     1      -0.291   6.013  10.764  0.00  0.00    -0.270 OA
ATOM     17  C   UNL     1      -1.279   4.158  11.889  0.00  0.00    +0.042 A 
ATOM     18  C   UNL     1      -1.756   2.909  11.442  0.00  0.00    -0.009 A 
ATOM     19  C   UNL     1      -2.319   2.001  12.311  0.00  0.00    +0.006 A 
ATOM     20  C   UNL     1      -2.409   2.376  13.648  0.00  0.00    +0.000 A 
ATOM     21  C   UNL     1      -1.958   3.603  14.092  0.00  0.00    +0.001 A 
ATOM     22  C   UNL     1      -1.381   4.525  13.232  0.00  0.00    +0.013 A 
ENDROOT
BRANCH   1  24
ATOM     23  N   UNL     1      -0.508   4.255   5.988  0.00  0.00    -0.302 N 
ATOM     24  C   UNL     1      -0.950   4.163   7.258  0.00  0.00    +0.235 C 
ATOM     25  O   UNL     1      -2.135   4.034   7.480  0.00  0.00    -0.274 OA
ATOM     26  H   UNL     1       0.440   4.359   5.811  0.00  0.00    +0.150 HD
BRANCH  23  27
ATOM     27  C   UNL     1      -1.459   4.199   4.876  0.00  0.00    +0.162 C 
BRANCH  27  28
ATOM     28  C   UNL     1      -0.754   3.713   3.636  0.00  0.00    +0.234 C 
ATOM     29  O   UNL     1       0.427   3.441   3.678  0.00  0.00    -0.274 OA
ATOM     30  N   UNL     1      -1.435   3.582   2.481  0.00  0.00    -0.311 N 
ATOM     31  H   UNL     1      -2.380   3.800   2.447  0.00  0.00    +0.149 HD
BRANCH  30  32
ATOM     32  C   UNL     1      -0.750   3.109   1.275  0.00  0.00    +0.073 C 
ATOM     33  C   UNL     1      -0.729   1.579   1.267  0.00  0.00    +0.022 C 
ATOM     34  C   UNL     1      -0.013   1.086   0.008  0.00  0.00    +0.002 C 
ATOM     35  C   UNL     1      -0.753   1.593  -1.232  0.00  0.00    +0.000 C 
ATOM     36  C   UNL     1      -0.773   3.123  -1.223  0.00  0.00    +0.002 C 
ATOM     37  C   UNL     1      -1.490   3.616   0.036  0.00  0.00    +0.022 C 
ENDBRANCH  30  32
ENDBRANCH  27  28
BRANCH  27  38
ATOM     38  C   UNL     1      -2.031   5.596   4.623  0.00  0.00    +0.015 C 
ATOM     39  C   UNL     1      -2.747   6.089   5.882  0.00  0.00    +0.010 C 
BRANCH  38  41
ATOM     40  C   UNL     1      -1.476   7.921   3.899  0.00  0.00    +0.004 C 
ATOM     41  C   UNL     1      -0.893   6.557   4.273  0.00  0.00    +0.002 C 
ENDBRANCH  38  41
ENDBRANCH  27  38
ENDBRANCH  23  27
ENDBRANCH   1  24
TORSDOF 6
