REMARK  Name = ZINC15034267
REMARK  6 active torsions:
REMARK  status: ('A' for Active; 'I' for Inactive)
REMARK    1  A    between atoms: C_1  and  C_2
REMARK    2  A    between atoms: C_5  and  N_11
REMARK    3  A    between atoms: C_6  and  N_8
REMARK    4  A    between atoms: C_12  and  C_14
REMARK    5  A    between atoms: C_14  and  N_50
REMARK    6  A    between atoms: C_22  and  C_24
REMARK                            x       y       z     vdW  Elec       q    Type
REMARK                         _______ _______ _______ _____ _____    ______ ____
ROOT
ATOM      1  C   UNL     1      -3.122   3.233   0.994  0.00  0.00    -0.072 C 
ATOM      2  C   UNL     1      -4.637   3.391   0.781  0.00  0.00    +0.024 C 
ATOM      3  C   UNL     1      -4.898   4.815   0.412  0.00  0.00    -0.010 A 
ATOM      4  C   UNL     1      -3.973   5.739   0.026  0.00  0.00    -0.047 A 
ATOM      5  C   UNL     1      -4.451   7.013  -0.268  0.00  0.00    +0.010 A 
ATOM      6  C   UNL     1      -5.774   7.280  -0.166  0.00  0.00    +0.045 A 
ATOM      7  S   UNL     1      -6.428   5.704   0.366  0.00  0.00    -0.101 S 
ATOM      8  C   UNL     1      -2.502   5.340  -0.061  0.00  0.00    -0.005 C 
ATOM      9  N   UNL     1      -2.428   3.863  -0.155  0.00  0.00    +0.393 N 
ATOM     10  H   UNL     1      -2.887   3.563  -1.023  0.00  0.00    -0.080 HD
ENDROOT
BRANCH   8  11
ATOM     11  C   UNL     1      -1.890   5.936  -1.302  0.00  0.00    -0.057 A 
ATOM     12  C   UNL     1      -2.099   5.339  -2.531  0.00  0.00    +0.002 A 
ATOM     13  C   UNL     1      -1.541   5.888  -3.671  0.00  0.00    +0.000 A 
ATOM     14  C   UNL     1      -0.766   7.029  -3.579  0.00  0.00    +0.000 A 
ATOM     15  C   UNL     1      -0.553   7.624  -2.350  0.00  0.00    +0.000 A 
ATOM     16  C   UNL     1      -1.114   7.077  -1.211  0.00  0.00    +0.002 A 
ENDBRANCH   8  11
BRANCH   9  17
ATOM     17  C   UNL     1      -1.017   3.433  -0.186  0.00  0.00    +0.020 C 
BRANCH  17  19
ATOM     18  N   UNL     1       0.938   3.346   1.327  0.00  0.00    -0.285 N 
ATOM     19  C   UNL     1      -0.328   3.758   1.114  0.00  0.00    +0.201 C 
ATOM     20  O   UNL     1      -0.912   4.391   1.968  0.00  0.00    -0.278 OA
ATOM     21  H   UNL     1       1.430   2.904   0.618  0.00  0.00    +0.155 HD
BRANCH  18  26
ATOM     22  C   UNL     1       3.376   4.177   6.382  0.00  0.00    +0.044 C 
ATOM     23  C   UNL     1       2.728   3.956   5.039  0.00  0.00    -0.048 A 
ATOM     24  C   UNL     1       1.353   3.846   4.947  0.00  0.00    +0.005 A 
ATOM     25  C   UNL     1       0.756   3.644   3.718  0.00  0.00    +0.026 A 
ATOM     26  C   UNL     1       1.539   3.551   2.574  0.00  0.00    +0.064 A 
ATOM     27  C   UNL     1       2.920   3.656   2.671  0.00  0.00    +0.148 A 
ATOM     28  C   UNL     1       3.510   3.864   3.903  0.00  0.00    +0.038 A 
BRANCH  27  29
ATOM     29  N   UNL     1       3.759   3.551   1.456  0.00  0.00    +0.058 N 
ATOM     30  O   UNL     1       4.973   3.534   1.554  0.00  0.00    -0.126 OA
ATOM     31  O   UNL     1       3.235   3.481   0.359  0.00  0.00    -0.126 OA
ENDBRANCH  27  29
ENDBRANCH  18  26
ENDBRANCH  17  19
ENDBRANCH   9  17
TORSDOF 5
