REMARK  Name = ZINC28060643
REMARK  3 active torsions:
REMARK  status: ('A' for Active; 'I' for Inactive)
REMARK    1  A    between atoms: C_1  and  C_2
REMARK    2  A    between atoms: C_10  and  C_13
REMARK    3  A    between atoms: C_20  and  C_28
REMARK                            x       y       z     vdW  Elec       q    Type
REMARK                         _______ _______ _______ _____ _____    ______ ____
ROOT
ATOM      1  C   UNL     1       2.667   3.262   0.071  0.00  0.00    +0.044 C 
ATOM      2  C   UNL     1       1.291   2.648   0.060  0.00  0.00    -0.050 A 
ATOM      3  C   UNL     1       1.151   1.272   0.027  0.00  0.00    +0.007 A 
ATOM      4  C   UNL     1      -0.105   0.693   0.014  0.00  0.00    +0.046 A 
ATOM      5  C   UNL     1      -1.230   1.496   0.030  0.00  0.00    +0.131 A 
ATOM      6  C   UNL     1      -1.091   2.889   0.073  0.00  0.00    +0.038 A 
ATOM      7  C   UNL     1       0.175   3.462   0.084  0.00  0.00    +0.016 A 
ATOM      8  C   UNL     1      -2.319   3.719   0.102  0.00  0.00    +0.050 C 
ATOM      9  C   UNL     1      -3.475   3.154  -0.253  0.00  0.00    +0.026 C 
ATOM     10  C   UNL     1      -3.486   1.703  -0.677  0.00  0.00    +0.234 C 
ATOM     11  O   UNL     1      -2.481   0.968   0.021  0.00  0.00    -0.479 OA
ATOM     12  C   UNL     1      -4.778   3.915  -0.253  0.00  0.00    +0.181 C 
ATOM     13  N   UNL     1      -4.621   5.178   0.453  0.00  0.00    -0.201 N 
ATOM     14  C   UNL     1      -3.419   5.709   0.797  0.00  0.00    +0.240 A 
ATOM     15  N   UNL     1      -3.652   6.839   1.401  0.00  0.00    -0.092 NA
ATOM     16  N   UNL     1      -4.921   7.056   1.469  0.00  0.00    -0.021 NA
ATOM     17  N   UNL     1      -5.574   6.086   0.914  0.00  0.00    -0.042 NA
ATOM     18  N   UNL     1      -2.232   5.057   0.504  0.00  0.00    -0.282 N 
ATOM     19  H   UNL     1      -1.250   5.547   0.577  0.00  0.00    +0.155 HD
ENDROOT
BRANCH  10  20
ATOM     20  C   UNL     1      -3.227   1.616  -2.159  0.00  0.00    -0.000 A 
ATOM     21  C   UNL     1      -1.957   1.849  -2.653  0.00  0.00    +0.008 A 
ATOM     22  C   UNL     1      -1.717   1.764  -4.012  0.00  0.00    +0.003 A 
ATOM     23  C   UNL     1      -2.749   1.458  -4.879  0.00  0.00    +0.038 A 
ATOM     24  C   UNL     1      -4.022   1.230  -4.386  0.00  0.00    +0.124 A 
ATOM     25  C   UNL     1      -4.260   1.310  -3.024  0.00  0.00    +0.046 A 
ATOM     26  F   UNL     1      -5.032   0.931  -5.232  0.00  0.00    -0.205 F 
ENDBRANCH  10  20
BRANCH  12  27
ATOM     27  C   UNL     1      -5.199   4.186  -1.674  0.00  0.00    +0.019 A 
ATOM     28  C   UNL     1      -6.324   3.795  -2.321  0.00  0.00    +0.013 A 
ATOM     29  C   UNL     1      -6.503   4.167  -3.640  0.00  0.00    +0.008 A 
ATOM     30  C   UNL     1      -5.543   4.903  -4.251  0.00  0.00    +0.045 A 
ATOM     31  S   UNL     1      -4.340   5.098  -2.946  0.00  0.00    -0.099 S 
ENDBRANCH  12  27
TORSDOF 2
