REMARK  Name = ZINC39638357
REMARK  10 active torsions:
REMARK  status: ('A' for Active; 'I' for Inactive)
REMARK    1  A    between atoms: C_1  and  O_2
REMARK    2  A    between atoms: O_2  and  C_3
REMARK    3  A    between atoms: C_7  and  C_11
REMARK    4  A    between atoms: C_8  and  O_9
REMARK    5  A    between atoms: O_9  and  C_10
REMARK    6  A    between atoms: C_11  and  N_12
REMARK    7  A    between atoms: C_13  and  C_15
REMARK    8  A    between atoms: C_26  and  C_28
REMARK    9  A    between atoms: C_31  and  O_34
REMARK   10  A    between atoms: O_34  and  C_35
REMARK                            x       y       z     vdW  Elec       q    Type
REMARK                         _______ _______ _______ _____ _____    ______ ____
ROOT
ATOM      1  C   UNL     1      -1.301  -6.516  -2.779  0.00  0.00    +0.100 C 
ATOM      2  C   UNL     1      -2.612  -6.215  -2.019  0.00  0.00    +0.121 C 
ATOM      3  N   UNL     1      -3.437  -7.434  -2.196  0.00  0.00    -0.296 N 
ATOM      4  C   UNL     1      -2.470  -8.552  -2.082  0.00  0.00    +0.115 C 
ATOM      5  C   UNL     1      -1.211  -8.051  -2.818  0.00  0.00    -0.004 C 
ATOM      6  C   UNL     1      -1.213  -8.544  -4.262  0.00  0.00    -0.010 C 
ATOM      7  C   UNL     1      -1.065 -10.068  -4.276  0.00  0.00    -0.082 C 
ATOM      8  N   UNL     1       0.187 -10.446  -3.610  0.00  0.00    +0.379 N 
ATOM      9  C   UNL     1       0.142 -10.051  -2.197  0.00  0.00    -0.082 C 
ATOM     10  C   UNL     1       0.045  -8.526  -2.095  0.00  0.00    -0.010 C 
ATOM     11  C   UNL     1      -4.765  -7.509  -2.412  0.00  0.00    +0.247 C 
ATOM     12  O   UNL     1      -5.407  -6.495  -2.609  0.00  0.00    -0.270 OA
ATOM     13  H   UNL     1       0.312 -11.446  -3.674  0.00  0.00    -0.086 HD
ATOM     14  H   UNL     1       0.961  -9.984  -4.063  0.00  0.00    -0.086 HD
ENDROOT
BRANCH  11  15
ATOM     15  C   UNL     1      -5.440  -8.821  -2.409  0.00  0.00    +0.037 A 
ATOM     16  C   UNL     1      -4.845  -9.914  -1.773  0.00  0.00    +0.016 A 
ATOM     17  C   UNL     1      -5.478 -11.137  -1.772  0.00  0.00    +0.047 A 
ATOM     18  C   UNL     1      -6.708 -11.285  -2.403  0.00  0.00    +0.130 A 
ATOM     19  C   UNL     1      -7.304 -10.200  -3.036  0.00  0.00    +0.047 A 
ATOM     20  C   UNL     1      -6.680  -8.973  -3.036  0.00  0.00    +0.016 A 
BRANCH  18  21
ATOM     21  O   UNL     1      -7.329 -12.491  -2.400  0.00  0.00    -0.406 OA
BRANCH  21  22
ATOM     22  C   UNL     1      -8.591 -12.573  -3.067  0.00  0.00    +0.575 C 
ATOM     23  F   UNL     1      -8.429 -12.236  -4.415  0.00  0.00    -0.133 F 
ATOM     24  F   UNL     1      -9.086 -13.878  -2.968  0.00  0.00    -0.133 F 
ATOM     25  F   UNL     1      -9.492 -11.686  -2.469  0.00  0.00    -0.133 F 
ENDBRANCH  21  22
ENDBRANCH  18  21
ENDBRANCH  11  15
BRANCH   1  27
ATOM     26  N   UNL     1       0.970  -5.537  -2.720  0.00  0.00    -0.311 N 
ATOM     27  C   UNL     1      -0.122  -5.940  -2.039  0.00  0.00    +0.218 C 
ATOM     28  O   UNL     1      -0.154  -5.839  -0.831  0.00  0.00    -0.275 OA
ATOM     29  H   UNL     1       0.995  -5.618  -3.686  0.00  0.00    +0.149 HD
BRANCH  26  30
ATOM     30  C   UNL     1       2.116  -4.977  -2.001  0.00  0.00    +0.143 C 
BRANCH  30  35
ATOM     31  C   UNL     1       4.106  -3.086  -4.607  0.00  0.00    +0.162 A 
ATOM     32  C   UNL     1       5.183  -3.937  -4.796  0.00  0.00    +0.049 A 
ATOM     33  C   UNL     1       5.265  -5.118  -4.081  0.00  0.00    +0.004 A 
ATOM     34  C   UNL     1       4.273  -5.453  -3.178  0.00  0.00    +0.009 A 
ATOM     35  C   UNL     1       3.196  -4.609  -2.986  0.00  0.00    +0.015 A 
ATOM     36  C   UNL     1       3.111  -3.421  -3.694  0.00  0.00    +0.166 A 
BRANCH  31  38
ATOM     37  C   UNL     1       5.082  -1.646  -6.229  0.00  0.00    +0.277 C 
ATOM     38  O   UNL     1       4.024  -1.924  -5.309  0.00  0.00    -0.491 OA
ENDBRANCH  31  38
BRANCH  36  39
ATOM     39  O   UNL     1       2.054  -2.586  -3.501  0.00  0.00    -0.491 OA
ATOM     40  C   UNL     1       0.908  -2.789  -4.330  0.00  0.00    +0.277 C 
ENDBRANCH  36  39
ENDBRANCH  30  35
ENDBRANCH  26  30
ENDBRANCH   1  27
TORSDOF 8
