REMARK  Name = ZINC04498720
REMARK  7 active torsions:
REMARK  status: ('A' for Active; 'I' for Inactive)
REMARK    1  A    between atoms: C_1  and  C_2
REMARK    2  A    between atoms: C_2  and  C_16
REMARK    3  A    between atoms: N_3  and  N_4
REMARK    4  A    between atoms: C_5  and  C_7
REMARK    5  A    between atoms: C_7  and  O_8
REMARK    6  A    between atoms: O_8  and  C_9
REMARK    7  A    between atoms: C_21  and  O_22
REMARK                            x       y       z     vdW  Elec       q    Type
REMARK                         _______ _______ _______ _____ _____    ______ ____
ROOT
ATOM      1  N   UNL     1       0.024   0.035   2.340  0.00  0.00    -0.204 N 
ATOM      2  C   UNL     1       0.044  -0.645   3.503  0.00  0.00    +0.270 C 
ATOM      3  O   UNL     1       0.060  -1.858   3.496  0.00  0.00    -0.270 OA
ATOM      4  H   UNL     1       0.011   1.005   2.345  0.00  0.00    +0.177 HD
ENDROOT
BRANCH   1   7
ATOM      5  C   UNL     1      -0.018   1.503   0.010  0.00  0.00    +0.068 C 
ATOM      6  C   UNL     1       0.002  -0.004   0.002  0.00  0.00    +0.067 C 
ATOM      7  N   UNL     1       0.022  -0.659   1.123  0.00  0.00    -0.184 NA
BRANCH   6   8
ATOM      8  C   UNL     1      -0.000  -0.734  -1.278  0.00  0.00    +0.039 A 
ATOM      9  C   UNL     1      -0.015  -0.033  -2.486  0.00  0.00    +0.013 A 
ATOM     10  C   UNL     1      -0.017  -0.722  -3.681  0.00  0.00    +0.001 A 
ATOM     11  C   UNL     1      -0.003  -2.107  -3.688  0.00  0.00    +0.004 A 
ATOM     12  C   UNL     1       0.012  -2.812  -2.499  0.00  0.00    +0.046 A 
ATOM     13  C   UNL     1       0.019  -2.135  -1.290  0.00  0.00    +0.126 A 
BRANCH  13  14
ATOM     14  O   UNL     1       0.039  -2.827  -0.122  0.00  0.00    -0.506 OA
ATOM     15  H   UNL     1      -0.839  -3.040   0.224  0.00  0.00    +0.292 HD
ENDBRANCH  13  14
ENDBRANCH   6   8
ENDBRANCH   1   7
BRANCH   2  16
ATOM     16  C   UNL     1       0.046   0.101   4.812  0.00  0.00    +0.326 C 
BRANCH  16  17
ATOM     17  O   UNL     1       0.069  -0.833   5.893  0.00  0.00    -0.481 OA
BRANCH  17  18
ATOM     18  C   UNL     1       0.074  -0.320   7.152  0.00  0.00    +0.139 A 
ATOM     19  C   UNL     1       0.051   1.053   7.343  0.00  0.00    +0.047 A 
ATOM     20  C   UNL     1       0.056   1.572   8.623  0.00  0.00    +0.004 A 
ATOM     21  C   UNL     1       0.084   0.724   9.715  0.00  0.00    +0.002 A 
ATOM     22  C   UNL     1       0.107  -0.646   9.528  0.00  0.00    +0.023 A 
ATOM     23  C   UNL     1       0.096  -1.171   8.249  0.00  0.00    +0.083 A 
ATOM     24 CL   UNL     1       0.118  -2.891   8.015  0.00  0.00    -0.080 Cl
ENDBRANCH  17  18
ENDBRANCH  16  17
ENDBRANCH   2  16
TORSDOF 6
