REMARK  Name = ZINC67563617
REMARK  3 active torsions:
REMARK  status: ('A' for Active; 'I' for Inactive)
REMARK    1  A    between atoms: C_3  and  C_8
REMARK    2  A    between atoms: C_11  and  N_13
REMARK    3  A    between atoms: N_16  and  N_17
REMARK                            x       y       z     vdW  Elec       q    Type
REMARK                         _______ _______ _______ _____ _____    ______ ____
ROOT
ATOM      1  N   UNL     1       5.387   3.124  -1.674  0.00  0.00    -0.295 N 
ATOM      2  C   UNL     1       5.824   3.171  -2.948  0.00  0.00    +0.316 C 
ATOM      3  O   UNL     1       5.578   2.255  -3.709  0.00  0.00    -0.251 OA
ATOM      4  N   UNL     1       6.534   4.232  -3.379  0.00  0.00    -0.219 N 
ATOM      5  H   UNL     1       5.584   3.855  -1.067  0.00  0.00    +0.151 HD
ATOM      6  H   UNL     1       6.848   4.266  -4.296  0.00  0.00    +0.174 HD
ENDROOT
BRANCH   4   7
ATOM      7  N   UNL     1       6.817   5.288  -2.503  0.00  0.00    -0.246 N 
ATOM      8  C   UNL     1       7.550   6.384  -2.948  0.00  0.00    +0.157 A 
ATOM      9  C   UNL     1       7.839   7.434  -2.076  0.00  0.00    +0.050 A 
ATOM     10  C   UNL     1       8.572   8.502  -2.567  0.00  0.00    +0.045 A 
ATOM     11  C   UNL     1       8.973   8.461  -3.897  0.00  0.00    +0.152 A 
ATOM     12  N   UNL     1       8.654   7.427  -4.651  0.00  0.00    -0.136 NA
ATOM     13  N   UNL     1       7.981   6.432  -4.199  0.00  0.00    -0.132 NA
ATOM     14 CL   UNL     1       9.892   9.773  -4.567  0.00  0.00    -0.060 Cl
ATOM     15  H   UNL     1       6.503   5.255  -1.586  0.00  0.00    +0.172 HD
ENDBRANCH   4   7
BRANCH   1  18
ATOM     16  C   UNL     1       3.672   2.186  -0.021  0.00  0.00    +0.041 C 
ATOM     17  C   UNL     1       4.968   1.396   0.169  0.00  0.00    +0.033 C 
ATOM     18  C   UNL     1       4.616   1.970  -1.206  0.00  0.00    +0.083 C 
BRANCH  16  21
ATOM     19  C   UNL     1      -0.017   1.377   0.010  0.00  0.00    +0.003 A 
ATOM     20  C   UNL     1       1.171   2.086   0.002  0.00  0.00    +0.004 A 
ATOM     21  C   UNL     1       2.378   1.413  -0.013  0.00  0.00    -0.040 A 
ATOM     22  C   UNL     1       2.399   0.030  -0.021  0.00  0.00    +0.042 A 
ATOM     23  C   UNL     1       1.211  -0.679  -0.013  0.00  0.00    +0.124 A 
ATOM     24  C   UNL     1       0.002  -0.004   0.002  0.00  0.00    +0.038 A 
ATOM     25  F   UNL     1       1.230  -2.030  -0.022  0.00  0.00    -0.205 F 
ENDBRANCH  16  21
ENDBRANCH   1  18
TORSDOF 3
