REMARK  Name = ZINC40494274
REMARK  5 active torsions:
REMARK  status: ('A' for Active; 'I' for Inactive)
REMARK    1  A    between atoms: C_1  and  C_2
REMARK    2  A    between atoms: N_11  and  C_15
REMARK    3  A    between atoms: C_15  and  C_16
REMARK    4  A    between atoms: C_16  and  C_18
REMARK    5  A    between atoms: C_16  and  O_25
REMARK                            x       y       z     vdW  Elec       q    Type
REMARK                         _______ _______ _______ _____ _____    ______ ____
ROOT
ATOM      1  C   UNL     1      -0.019   1.526   0.010  0.00  0.00    +0.010 C 
ATOM      2  C   UNL     1       0.002  -0.004   0.002  0.00  0.00    +0.018 C 
ATOM      3  C   UNL     1       0.718  -0.498  -1.258  0.00  0.00    +0.006 C 
ATOM      4  C   UNL     1       0.756  -2.027  -1.255  0.00  0.00    +0.000 C 
ATOM      5  C   UNL     1       1.516  -2.519  -0.021  0.00  0.00    +0.003 C 
ATOM      6  C   UNL     1       0.803  -2.032   1.243  0.00  0.00    +0.035 C 
ATOM      7  C   UNL     1       0.739  -0.509   1.238  0.00  0.00    +0.115 C 
ATOM      8  C   UNL     1       0.069  -0.004   2.495  0.00  0.00    +0.247 C 
ATOM      9  O   UNL     1      -1.064  -0.228   2.863  0.00  0.00    -0.273 OA
ATOM     10  N   UNL     1       0.998   0.746   3.122  0.00  0.00    -0.221 N 
ATOM     11  C   UNL     1       2.148   0.781   2.437  0.00  0.00    +0.309 C 
ATOM     12  O   UNL     1       3.133   1.393   2.801  0.00  0.00    -0.252 OA
ATOM     13  N   UNL     1       2.091   0.063   1.300  0.00  0.00    -0.285 N 
ATOM     14  H   UNL     1       2.801  -0.054   0.650  0.00  0.00    +0.151 HD
ENDROOT
BRANCH  10  15
ATOM     15  C   UNL     1       0.777   1.438   4.394  0.00  0.00    +0.154 C 
BRANCH  15  16
ATOM     16  C   UNL     1       1.160   0.512   5.551  0.00  0.00    +0.165 C 
BRANCH  16  17
ATOM     17  C   UNL     1       0.932   1.224   6.860  0.00  0.00    +0.018 A 
ATOM     18  C   UNL     1      -0.253   1.041   7.548  0.00  0.00    +0.009 A 
ATOM     19  C   UNL     1      -0.462   1.694   8.749  0.00  0.00    +0.001 A 
ATOM     20  C   UNL     1       0.512   2.529   9.262  0.00  0.00    +0.003 A 
ATOM     21  C   UNL     1       1.698   2.712   8.576  0.00  0.00    +0.039 A 
ATOM     22  C   UNL     1       1.911   2.055   7.376  0.00  0.00    +0.129 A 
ATOM     23  F   UNL     1       3.071   2.230   6.706  0.00  0.00    -0.205 F 
ENDBRANCH  16  17
BRANCH  16  24
ATOM     24  O   UNL     1       0.355  -0.668   5.504  0.00  0.00    -0.386 OA
ATOM     25  H   UNL     1      -0.594  -0.499   5.575  0.00  0.00    +0.210 HD
ENDBRANCH  16  24
ENDBRANCH  15  16
ENDBRANCH  10  15
TORSDOF 4
