REMARK  Name = ZINC01471490
REMARK  4 active torsions:
REMARK  status: ('A' for Active; 'I' for Inactive)
REMARK    1  A    between atoms: C_4  and  C_7
REMARK    2  A    between atoms: C_7  and  C_9
REMARK    3  A    between atoms: C_7  and  O_25
REMARK    4  A    between atoms: N_11  and  N_12
REMARK                            x       y       z     vdW  Elec       q    Type
REMARK                         _______ _______ _______ _____ _____    ______ ____
ROOT
ATOM      1  C   UNL     1      -1.187   1.624   0.017  0.00  0.00    +0.265 C 
ATOM      2  O   UNL     1      -1.204   2.837   0.023  0.00  0.00    -0.271 OA
ATOM      3  N   UNL     1      -0.011   0.966   0.007  0.00  0.00    -0.205 N 
ATOM      4  H   UNL     1       0.002  -0.004   0.002  0.00  0.00    +0.177 HD
ENDROOT
BRANCH   3   5
ATOM      5  N   UNL     1       1.193   1.683  -0.000  0.00  0.00    -0.189 NA
ATOM      6  C   UNL     1       2.310   1.058  -0.014  0.00  0.00    +0.037 C 
ATOM      7  C   UNL     1       2.330  -0.449  -0.016  0.00  0.00    +0.052 C 
ATOM      8  C   UNL     1       1.467  -0.965  -1.175  0.00  0.00    +0.006 C 
ATOM      9  C   UNL     1       2.336  -1.776  -2.139  0.00  0.00    +0.000 C 
ATOM     10  C   UNL     1       2.101  -1.289  -3.570  0.00  0.00    +0.000 C 
ATOM     11  C   UNL     1       3.446  -0.979  -4.231  0.00  0.00    +0.000 C 
ATOM     12  C   UNL     1       3.436   0.457  -4.758  0.00  0.00    +0.000 C 
ATOM     13  C   UNL     1       4.652   1.209  -4.212  0.00  0.00    +0.000 C 
ATOM     14  C   UNL     1       4.193   2.512  -3.553  0.00  0.00    +0.000 C 
ATOM     15  C   UNL     1       4.732   2.577  -2.123  0.00  0.00    +0.000 C 
ATOM     16  C   UNL     1       3.579   2.856  -1.156  0.00  0.00    +0.006 C 
ATOM     17  C   UNL     1       3.604   1.829  -0.022  0.00  0.00    +0.052 C 
ENDBRANCH   3   5
BRANCH   1  18
ATOM     18  C   UNL     1      -2.482   0.853   0.018  0.00  0.00    +0.232 C 
BRANCH  18  22
ATOM     19  C   UNL     1      -2.816  -1.358   3.658  0.00  0.00    +0.000 A 
ATOM     20  C   UNL     1      -2.304  -1.964   2.526  0.00  0.00    +0.000 A 
ATOM     21  C   UNL     1      -2.196  -1.248   1.349  0.00  0.00    +0.006 A 
ATOM     22  C   UNL     1      -2.600   0.073   1.302  0.00  0.00    -0.010 A 
ATOM     23  C   UNL     1      -3.108   0.680   2.436  0.00  0.00    +0.006 A 
ATOM     24  C   UNL     1      -3.220  -0.037   3.613  0.00  0.00    +0.000 A 
ENDBRANCH  18  22
BRANCH  18  25
ATOM     25  O   UNL     1      -3.579   1.763  -0.089  0.00  0.00    -0.378 OA
ATOM     26  H   UNL     1      -3.628   2.405   0.632  0.00  0.00    +0.211 HD
ENDBRANCH  18  25
ENDBRANCH   1  18
TORSDOF 4
