REMARK  Name = ZINC04551148
REMARK  3 active torsions:
REMARK  status: ('A' for Active; 'I' for Inactive)
REMARK    1  A    between atoms: C_8  and  C_24
REMARK    2  A    between atoms: C_14  and  C_19
REMARK    3  A    between atoms: C_28  and  N_30
REMARK                            x       y       z     vdW  Elec       q    Type
REMARK                         _______ _______ _______ _____ _____    ______ ____
ROOT
ATOM      1  C   UNL     1      -0.336   0.267   5.832  0.00  0.00    +0.002 A 
ATOM      2  C   UNL     1       0.634  -0.272   5.007  0.00  0.00    +0.002 A 
ATOM      3  C   UNL     1       0.773   0.179   3.705  0.00  0.00    +0.025 A 
ATOM      4  C   UNL     1      -0.070   1.171   3.237  0.00  0.00    +0.052 A 
ATOM      5  C   UNL     1      -1.069   1.686   4.051  0.00  0.00    +0.049 A 
ATOM      6  C   UNL     1      -1.191   1.248   5.360  0.00  0.00    +0.025 A 
ATOM      7  N   UNL     1      -1.974   2.590   3.500  0.00  0.00    -0.331 N 
ATOM      8  C   UNL     1      -2.880   2.189   2.452  0.00  0.00    +0.136 C 
ATOM      9  C   UNL     1      -2.209   1.796   1.157  0.00  0.00    +0.036 C 
ATOM     10  C   UNL     1      -0.897   1.580   0.984  0.00  0.00    +0.017 C 
ATOM     11  N   UNL     1       0.043   1.700   1.956  0.00  0.00    -0.316 N 
ATOM     12  C   UNL     1      -0.355   1.163  -0.373  0.00  0.00    +0.060 C 
ATOM     13  C   UNL     1      -1.194   1.794  -1.483  0.00  0.00    +0.039 C 
ATOM     14  C   UNL     1      -2.637   1.305  -1.312  0.00  0.00    +0.088 C 
ATOM     15  C   UNL     1      -3.102   1.661   0.068  0.00  0.00    +0.163 C 
ATOM     16  O   UNL     1      -4.289   1.840   0.259  0.00  0.00    -0.292 OA
ATOM     17  H   UNL     1      -1.995   3.504   3.826  0.00  0.00    +0.147 HD
ATOM     18  H   UNL     1       0.852   2.191   1.742  0.00  0.00    +0.152 HD
ENDROOT
BRANCH   8  19
ATOM     19  C   UNL     1      -3.692   1.019   2.944  0.00  0.00    -0.021 A 
ATOM     20  C   UNL     1      -5.066   1.127   3.052  0.00  0.00    +0.006 A 
ATOM     21  C   UNL     1      -5.811   0.054   3.504  0.00  0.00    +0.003 A 
ATOM     22  C   UNL     1      -5.181  -1.128   3.847  0.00  0.00    +0.033 A 
ATOM     23  C   UNL     1      -3.808  -1.237   3.738  0.00  0.00    +0.127 A 
ATOM     24  C   UNL     1      -3.063  -0.165   3.282  0.00  0.00    +0.038 A 
BRANCH  23  25
ATOM     25  N   UNL     1      -3.134  -2.503   4.105  0.00  0.00    +0.056 N 
ATOM     26  O   UNL     1      -3.790  -3.449   4.503  0.00  0.00    -0.126 OA
ATOM     27  O   UNL     1      -1.923  -2.599   4.009  0.00  0.00    -0.126 OA
ENDBRANCH  23  25
ENDBRANCH   8  19
BRANCH  13  28
ATOM     28  C   UNL     1      -0.665   1.369  -2.828  0.00  0.00    -0.006 A 
ATOM     29  C   UNL     1      -0.188   2.135  -3.839  0.00  0.00    +0.011 A 
ATOM     30  C   UNL     1       0.252   1.520  -4.996  0.00  0.00    +0.008 A 
ATOM     31  C   UNL     1       0.185   0.170  -5.090  0.00  0.00    +0.045 A 
ATOM     32  S   UNL     1      -0.512  -0.275  -3.507  0.00  0.00    -0.101 S 
ENDBRANCH  13  28
TORSDOF 3
