REMARK  Name = ZINC66929100
REMARK  6 active torsions:
REMARK  status: ('A' for Active; 'I' for Inactive)
REMARK    1  A    between atoms: C_1  and  C_2
REMARK    2  A    between atoms: C_3  and  C_12
REMARK    3  A    between atoms: C_5  and  C_7
REMARK    4  A    between atoms: N_14  and  C_15
REMARK    5  A    between atoms: C_15  and  C_16
REMARK    6  A    between atoms: C_16  and  O_26
REMARK                            x       y       z     vdW  Elec       q    Type
REMARK                         _______ _______ _______ _____ _____    ______ ____
ROOT
ATOM      1  C   UNL     1      -2.502  -0.429   0.233  0.00  0.00    +0.266 C 
ATOM      2  O   UNL     1      -2.766   0.752   0.107  0.00  0.00    -0.268 OA
ATOM      3  N   UNL     1      -3.489  -1.346   0.203  0.00  0.00    -0.307 N 
ATOM      4  H   UNL     1      -3.278  -2.288   0.303  0.00  0.00    +0.149 HD
ENDROOT
BRANCH   1   7
ATOM      5  C   UNL     1      -0.007   1.458   0.343  0.00  0.00    +0.089 C 
ATOM      6  C   UNL     1      -0.011  -0.044   0.466  0.00  0.00    +0.135 A 
ATOM      7  C   UNL     1      -1.103  -0.856   0.416  0.00  0.00    +0.167 A 
ATOM      8  N   UNL     1      -0.665  -2.133   0.568  0.00  0.00    -0.204 NA
ATOM      9  C   UNL     1       0.640  -2.109   0.706  0.00  0.00    +0.235 A 
ATOM     10  O   UNL     1       1.063  -0.833   0.640  0.00  0.00    -0.439 OA
BRANCH   9  11
ATOM     11  C   UNL     1       1.501  -3.286   0.895  0.00  0.00    +0.074 A 
ATOM     12  C   UNL     1       2.873  -3.346   1.052  0.00  0.00    +0.021 A 
ATOM     13  C   UNL     1       3.461  -4.579   1.216  0.00  0.00    +0.008 A 
ATOM     14  C   UNL     1       2.680  -5.691   1.219  0.00  0.00    +0.046 A 
ATOM     15  S   UNL     1       1.046  -5.010   0.990  0.00  0.00    -0.092 S 
ENDBRANCH   9  11
ENDBRANCH   1   7
BRANCH   3  16
ATOM     16  C   UNL     1      -4.879  -0.921   0.020  0.00  0.00    +0.144 C 
BRANCH  16  17
ATOM     17  C   UNL     1      -5.776  -2.154  -0.108  0.00  0.00    +0.107 C 
ATOM     18  C   UNL     1      -5.282  -3.018  -1.267  0.00  0.00    +0.041 C 
ATOM     19  C   UNL     1      -6.313  -4.125  -1.518  0.00  0.00    +0.008 C 
ATOM     20  C   UNL     1      -7.570  -3.488  -2.107  0.00  0.00    +0.035 C 
ATOM     21  C   UNL     1      -8.021  -2.327  -1.260  0.00  0.00    -0.041 A 
ATOM     22  C   UNL     1      -7.196  -1.712  -0.345  0.00  0.00    -0.011 A 
ATOM     23  C   UNL     1      -7.673  -0.641   0.400  0.00  0.00    +0.007 A 
ATOM     24  C   UNL     1      -8.967  -0.192   0.233  0.00  0.00    +0.000 A 
ATOM     25  C   UNL     1      -9.796  -0.812  -0.683  0.00  0.00    +0.000 A 
ATOM     26  C   UNL     1      -9.324  -1.874  -1.426  0.00  0.00    +0.004 A 
BRANCH  17  27
ATOM     27  O   UNL     1      -5.714  -2.910   1.102  0.00  0.00    -0.382 OA
ATOM     28  H   UNL     1      -6.005  -2.424   1.886  0.00  0.00    +0.211 HD
ENDBRANCH  17  27
ENDBRANCH  16  17
ENDBRANCH   3  16
TORSDOF 5
