REMARK  Name = ZINC13146316
REMARK  10 active torsions:
REMARK  status: ('A' for Active; 'I' for Inactive)
REMARK    1  A    between atoms: C_1  and  C_2
REMARK    2  A    between atoms: C_2  and  C_3
REMARK    3  A    between atoms: C_3  and  C_4
REMARK    4  A    between atoms: C_4  and  N_5
REMARK    5  A    between atoms: N_5  and  C_6
REMARK    6  A    between atoms: C_7  and  N_18
REMARK    7  A    between atoms: N_8  and  C_15
REMARK    8  A    between atoms: C_15  and  C_16
REMARK    9  A    between atoms: C_16  and  C_17
REMARK   10  A    between atoms: C_19  and  C_21
REMARK                            x       y       z     vdW  Elec       q    Type
REMARK                         _______ _______ _______ _____ _____    ______ ____
ROOT
ATOM      1  N   UNL     1       0.619  -0.241  -1.337  0.00  0.00    -0.264 N 
ATOM      2  C   UNL     1      -0.162  -0.574  -2.385  0.00  0.00    +0.226 C 
ATOM      3  O   UNL     1       0.338  -1.023  -3.396  0.00  0.00    -0.275 OA
ENDROOT
BRANCH   2   4
ATOM      4  C   UNL     1      -1.655  -0.389  -2.302  0.00  0.00    +0.050 C 
ATOM      5  C   UNL     1      -2.225  -1.315  -1.225  0.00  0.00    +0.019 C 
ATOM      6  C   UNL     1      -3.741  -1.126  -1.140  0.00  0.00    -0.008 C 
ATOM      7  C   UNL     1      -4.055   0.328  -0.780  0.00  0.00    +0.007 C 
ATOM      8  C   UNL     1      -3.485   1.253  -1.857  0.00  0.00    -0.008 C 
ATOM      9  C   UNL     1      -1.969   1.065  -1.942  0.00  0.00    +0.019 C 
ATOM     10  C   UNL     1      -4.118   0.914  -3.208  0.00  0.00    +0.026 C 
ATOM     11  C   UNL     1      -3.804  -0.540  -3.568  0.00  0.00    +0.047 C 
ATOM     12  C   UNL     1      -4.374  -1.466  -2.491  0.00  0.00    +0.026 C 
ATOM     13  C   UNL     1      -2.288  -0.728  -3.653  0.00  0.00    +0.039 C 
ATOM     14 CL   UNL     1      -4.550  -0.940  -5.160  0.00  0.00    -0.118 Cl
ENDBRANCH   2   4
BRANCH   1  15
ATOM     15  C   UNL     1       2.002  -0.520  -1.370  0.00  0.00    +0.140 A 
ATOM     16  C   UNL     1       2.826   0.127  -2.268  0.00  0.00    +0.127 A 
ATOM     17  N   UNL     1       4.170  -0.165  -2.276  0.00  0.00    -0.280 N 
ATOM     18  C   UNL     1       4.675  -1.072  -1.420  0.00  0.00    +0.331 A 
ATOM     19  O   UNL     1       5.866  -1.317  -1.444  0.00  0.00    -0.246 OA
ATOM     20  N   UNL     1       3.886  -1.713  -0.539  0.00  0.00    -0.273 N 
ATOM     21  H   UNL     1       4.319  -2.454   0.149  0.00  0.00    +0.173 HD
ATOM     22  C   UNL     1       2.564  -1.458  -0.485  0.00  0.00    +0.277 A 
ATOM     23  O   UNL     1       1.859  -2.041   0.321  0.00  0.00    -0.266 OA
BRANCH  16  24
ATOM     24  N   UNL     1       2.310   1.053  -3.143  0.00  0.00    -0.343 N 
ATOM     25  H   UNL     1       2.974   1.565  -3.856  0.00  0.00    +0.144 HD
ATOM     26  H   UNL     1       1.234   1.282  -3.131  0.00  0.00    +0.144 HD
ENDBRANCH  16  24
BRANCH  17  27
ATOM     27  C   UNL     1       5.057   0.514  -3.224  0.00  0.00    +0.128 C 
BRANCH  27  28
ATOM     28  C   UNL     1       5.599   1.795  -2.586  0.00  0.00    +0.018 C 
ATOM     29  C   UNL     1       6.526   2.505  -3.576  0.00  0.00    +0.005 C 
ENDBRANCH  27  28
ENDBRANCH  17  27
ENDBRANCH   1  15
BRANCH   1  30
ATOM     30  C   UNL     1       0.031   0.410  -0.163  0.00  0.00    +0.114 C 
BRANCH  30  31
ATOM     31  C   UNL     1       0.233   1.923  -0.265  0.00  0.00    +0.019 C 
BRANCH  31  33
ATOM     32  C   UNL     1      -0.288   4.126   0.793  0.00  0.00    +0.004 C 
ATOM     33  C   UNL     1      -0.490   2.613   0.894  0.00  0.00    -0.002 C 
ENDBRANCH  31  33
ENDBRANCH  30  31
ENDBRANCH   1  30
TORSDOF 8
