REMARK  Name = ZINC14664371
REMARK  11 active torsions:
REMARK  status: ('A' for Active; 'I' for Inactive)
REMARK    1  A    between atoms: C_1  and  C_2
REMARK    2  A    between atoms: C_2  and  C_3
REMARK    3  A    between atoms: C_2  and  O_4
REMARK    4  A    between atoms: O_4  and  C_5
REMARK    5  A    between atoms: C_10  and  C_11
REMARK    6  A    between atoms: N_13  and  C_14
REMARK    7  A    between atoms: C_14  and  N_16
REMARK    8  A    between atoms: N_16  and  C_17
REMARK    9  A    between atoms: C_20  and  S_23
REMARK   10  A    between atoms: S_23  and  N_26
REMARK   11  A    between atoms: N_26  and  C_27
REMARK                            x       y       z     vdW  Elec       q    Type
REMARK                         _______ _______ _______ _____ _____    ______ ____
ROOT
ATOM      1  N   UNL     1      -1.991   2.724  -1.227  0.00  0.00    -0.297 N 
ATOM      2  H   UNL     1      -2.001   3.808  -1.414  0.00  0.00    +0.154 HD
ENDROOT
BRANCH   1   3
ATOM      3  C   UNL     1      -3.195   2.035  -1.045  0.00  0.00    +0.033 A 
ATOM      4  C   UNL     1      -4.261   2.256  -1.907  0.00  0.00    +0.025 A 
ATOM      5  C   UNL     1      -5.446   1.570  -1.728  0.00  0.00    +0.030 A 
ATOM      6  C   UNL     1      -5.575   0.671  -0.685  0.00  0.00    +0.109 A 
ATOM      7  C   UNL     1      -4.517   0.452   0.178  0.00  0.00    +0.030 A 
ATOM      8  C   UNL     1      -3.327   1.131   0.001  0.00  0.00    +0.025 A 
BRANCH   6   9
ATOM      9  S   UNL     1      -7.091  -0.198  -0.455  0.00  0.00    +0.072 S 
ATOM     10  O   UNL     1      -7.688  -0.319  -1.739  0.00  0.00    -0.150 OA
ATOM     11  O   UNL     1      -6.794  -1.326   0.356  0.00  0.00    -0.150 OA
BRANCH   9  12
ATOM     12  N   UNL     1      -8.084   0.780   0.438  0.00  0.00    -0.216 N 
ATOM     13  H   UNL     1      -8.438   0.449   1.426  0.00  0.00    +0.174 HD
BRANCH  12  14
ATOM     14  C   UNL     1      -8.474   2.025  -0.062  0.00  0.00    +0.048 A 
ATOM     15  C   UNL     1      -7.925   3.188   0.462  0.00  0.00    +0.024 A 
ATOM     16  C   UNL     1      -8.308   4.417  -0.038  0.00  0.00    +0.002 A 
ATOM     17  C   UNL     1      -9.246   4.490  -1.052  0.00  0.00    +0.000 A 
ATOM     18  C   UNL     1      -9.798   3.334  -1.573  0.00  0.00    +0.002 A 
ATOM     19  C   UNL     1      -9.415   2.102  -1.081  0.00  0.00    +0.024 A 
ENDBRANCH  12  14
ENDBRANCH   9  12
ENDBRANCH   6   9
ENDBRANCH   1   3
BRANCH   1  20
ATOM     20  C   UNL     1      -0.820   2.060  -1.173  0.00  0.00    +0.141 C 
ATOM     21  S   UNL     1      -0.795   0.398  -0.765  0.00  0.00    -0.018 S 
BRANCH  20  24
ATOM     22  C   UNL     1       1.504   2.039  -1.398  0.00  0.00    +0.253 C 
ATOM     23  O   UNL     1       1.521   0.859  -1.108  0.00  0.00    -0.270 OA
ATOM     24  N   UNL     1       0.333   2.704  -1.446  0.00  0.00    -0.263 N 
ATOM     25  H   UNL     1       0.317   3.772  -1.709  0.00  0.00    +0.157 HD
BRANCH  22  31
ATOM     26  C   UNL     1       3.985   2.056  -1.648  0.00  0.00    +0.133 A 
ATOM     27  C   UNL     1       5.165   2.728  -1.931  0.00  0.00    +0.046 A 
ATOM     28  C   UNL     1       5.135   4.069  -2.260  0.00  0.00    +0.004 A 
ATOM     29  C   UNL     1       3.931   4.752  -2.310  0.00  0.00    +0.001 A 
ATOM     30  C   UNL     1       2.749   4.099  -2.036  0.00  0.00    +0.017 A 
ATOM     31  C   UNL     1       2.765   2.743  -1.697  0.00  0.00    +0.079 A 
BRANCH  26  32
ATOM     32  O   UNL     1       4.013   0.738  -1.325  0.00  0.00    -0.489 OA
BRANCH  32  34
ATOM     33  C   UNL     1       5.195  -1.084  -0.266  0.00  0.00    +0.051 C 
ATOM     34  C   UNL     1       5.298   0.130  -1.192  0.00  0.00    +0.167 C 
ATOM     35  C   UNL     1       5.795  -0.320  -2.568  0.00  0.00    +0.051 C 
ENDBRANCH  32  34
ENDBRANCH  26  32
ENDBRANCH  22  31
ENDBRANCH  20  24
ENDBRANCH   1  20
TORSDOF 9
