REMARK  Name = ZINC63194896
REMARK  7 active torsions:
REMARK  status: ('A' for Active; 'I' for Inactive)
REMARK    1  A    between atoms: C_7  and  C_10
REMARK    2  A    between atoms: C_10  and  C_11
REMARK    3  A    between atoms: C_11  and  C_13
REMARK    4  A    between atoms: C_11  and  N_28
REMARK    5  A    between atoms: N_15  and  C_16
REMARK    6  A    between atoms: C_20  and  N_22
REMARK    7  A    between atoms: C_29  and  C_31
REMARK                            x       y       z     vdW  Elec       q    Type
REMARK                         _______ _______ _______ _____ _____    ______ ____
ROOT
ATOM      1  C   UNL     1       0.495  -3.674  -1.483  0.00  0.00    +0.163 C 
ENDROOT
BRANCH   1   2
ATOM      2  C   UNL     1      -0.362  -4.913  -1.459  0.00  0.00    +0.238 C 
ATOM      3  O   UNL     1      -1.445  -4.913  -2.006  0.00  0.00    -0.273 OA
ATOM      4  N   UNL     1       0.074  -6.022  -0.829  0.00  0.00    -0.284 N 
ATOM      5  H   UNL     1       0.966  -6.044  -0.448  0.00  0.00    +0.155 HD
BRANCH   4   6
ATOM      6  C   UNL     1      -0.759  -7.141  -0.725  0.00  0.00    +0.035 A 
ATOM      7  C   UNL     1      -1.625  -7.462  -1.763  0.00  0.00    +0.023 A 
ATOM      8  C   UNL     1      -2.448  -8.568  -1.661  0.00  0.00    +0.004 A 
ATOM      9  C   UNL     1      -2.412  -9.357  -0.528  0.00  0.00    +0.023 A 
ATOM     10  C   UNL     1      -1.548  -9.042   0.513  0.00  0.00    +0.038 A 
ATOM     11  C   UNL     1      -0.717  -7.935   0.412  0.00  0.00    +0.046 A 
BRANCH  10  12
ATOM     12  N   UNL     1      -1.513  -9.842   1.661  0.00  0.00    -0.271 N 
ATOM     13  C   UNL     1      -2.252 -11.100   1.816  0.00  0.00    +0.114 C 
ATOM     14  C   UNL     1      -1.587 -11.825   3.007  0.00  0.00    +0.029 C 
ATOM     15  C   UNL     1      -0.986 -10.641   3.800  0.00  0.00    +0.098 C 
ATOM     16  C   UNL     1      -0.793  -9.559   2.760  0.00  0.00    +0.220 C 
ATOM     17  O   UNL     1      -0.093  -8.579   2.899  0.00  0.00    -0.275 OA
ENDBRANCH  10  12
ENDBRANCH   4   6
ENDBRANCH   1   2
BRANCH   1  18
ATOM     18  N   UNL     1      -0.197  -2.616  -2.224  0.00  0.00    -0.300 N 
ATOM     19  C   UNL     1       0.510  -1.631  -2.812  0.00  0.00    +0.245 C 
ATOM     20  O   UNL     1       1.723  -1.621  -2.728  0.00  0.00    -0.270 OA
ATOM     21  H   UNL     1      -1.165  -2.625  -2.290  0.00  0.00    +0.150 HD
BRANCH  19  22
ATOM     22  C   UNL     1      -0.188  -0.565  -3.558  0.00  0.00    +0.037 A 
ATOM     23  C   UNL     1      -1.581  -0.571  -3.651  0.00  0.00    +0.016 A 
ATOM     24  C   UNL     1      -2.228   0.426  -4.349  0.00  0.00    +0.039 A 
ATOM     25  C   UNL     1      -1.497   1.435  -4.958  0.00  0.00    +0.123 A 
ATOM     26  C   UNL     1      -0.113   1.446  -4.869  0.00  0.00    +0.039 A 
ATOM     27  C   UNL     1       0.543   0.457  -4.169  0.00  0.00    +0.016 A 
ATOM     28  F   UNL     1      -2.135   2.410  -5.642  0.00  0.00    -0.205 F 
ENDBRANCH  19  22
ENDBRANCH   1  18
BRANCH   1  29
ATOM     29  C   UNL     1       0.757  -3.206  -0.050  0.00  0.00    +0.065 C 
BRANCH  29  36
ATOM     30  C   UNL     1       0.109   1.336  -0.017  0.00  0.00    +0.001 A 
ATOM     31  C   UNL     1       1.301   2.074  -0.044  0.00  0.00    +0.002 A 
ATOM     32  C   UNL     1       2.518   1.492  -0.075  0.00  0.00    +0.026 A 
ATOM     33  C   UNL     1       2.637   0.075  -0.084  0.00  0.00    +0.043 A 
ATOM     34  N   UNL     1       3.685  -0.713  -0.113  0.00  0.00    -0.380 N 
ATOM     35  C   UNL     1       3.223  -2.106  -0.107  0.00  0.00    +0.144 C 
ATOM     36  C   UNL     1       1.713  -2.042  -0.069  0.00  0.00    -0.039 C 
ATOM     37  C   UNL     1       1.393  -0.727  -0.056  0.00  0.00    -0.001 A 
ATOM     38  C   UNL     1       0.110  -0.016  -0.021  0.00  0.00    +0.010 A 
ATOM     39  H   UNL     1       4.610  -0.423  -0.135  0.00  0.00    +0.160 HD
ENDBRANCH  29  36
ENDBRANCH   1  29
TORSDOF 7
