REMARK  Name = ZINC10000871
REMARK  12 active torsions:
REMARK  status: ('A' for Active; 'I' for Inactive)
REMARK    1  A    between atoms: C_1  and  C_2
REMARK    2  A    between atoms: C_2  and  C_3
REMARK    3  A    between atoms: C_2  and  C_4
REMARK    4  A    between atoms: C_4  and  C_5
REMARK    5  A    between atoms: C_5  and  C_7
REMARK    6  A    between atoms: C_5  and  N_23
REMARK    7  A    between atoms: N_9  and  N_10
REMARK    8  A    between atoms: C_11  and  C_12
REMARK    9  A    between atoms: C_17  and  O_18
REMARK   10  A    between atoms: O_18  and  C_19
REMARK   11  A    between atoms: C_19  and  C_20
REMARK   12  A    between atoms: C_24  and  C_26
REMARK                            x       y       z     vdW  Elec       q    Type
REMARK                         _______ _______ _______ _____ _____    ______ ____
ROOT
ATOM      1  C   UNL     1       0.019   1.211  -2.468  0.00  0.00    +0.253 C 
ATOM      2  O   UNL     1      -0.495   0.506  -3.311  0.00  0.00    -0.272 OA
ATOM      3  N   UNL     1       1.281   1.654  -2.639  0.00  0.00    -0.205 N 
ATOM      4  H   UNL     1       1.692   2.218  -1.965  0.00  0.00    +0.177 HD
ENDROOT
BRANCH   3   5
ATOM      5  N   UNL     1       1.998   1.299  -3.788  0.00  0.00    -0.188 NA
ATOM      6  C   UNL     1       3.213   1.726  -3.952  0.00  0.00    +0.142 C 
BRANCH   6   7
ATOM      7  C   UNL     1       3.968   1.352  -5.162  0.00  0.00    +0.037 A 
ATOM      8  C   UNL     1       5.274   1.814  -5.345  0.00  0.00    +0.028 A 
ATOM      9  C   UNL     1       5.977   1.456  -6.477  0.00  0.00    +0.019 A 
ATOM     10  C   UNL     1       5.389   0.650  -7.439  0.00  0.00    +0.019 A 
ATOM     11  C   UNL     1       4.096   0.193  -7.271  0.00  0.00    +0.047 A 
ATOM     12  C   UNL     1       3.378   0.538  -6.138  0.00  0.00    +0.131 A 
ATOM     13 BR   UNL     1       7.747   2.074  -6.721  0.00  0.00    -0.050 Br
BRANCH  12  14
ATOM     14  O   UNL     1       2.107   0.088  -5.972  0.00  0.00    -0.479 OA
BRANCH  14  15
ATOM     15  C   UNL     1       1.571  -0.738  -7.008  0.00  0.00    +0.317 C 
BRANCH  15  16
ATOM     16  C   UNL     1       0.195  -1.129  -6.662  0.00  0.00    -0.065 C 
ATOM     17  C   UNL     1      -0.902  -1.441  -6.385  0.00  0.00    +0.007 C 
ENDBRANCH  15  16
ENDBRANCH  14  15
ENDBRANCH  12  14
ENDBRANCH   6   7
ENDBRANCH   3   5
BRANCH   1  18
ATOM     18  C   UNL     1      -0.753   1.593  -1.232  0.00  0.00    +0.161 C 
BRANCH  18  19
ATOM     19  N   UNL     1      -2.087   0.991  -1.284  0.00  0.00    -0.300 N 
ATOM     20  C   UNL     1      -3.107   1.552  -0.604  0.00  0.00    +0.245 C 
ATOM     21  O   UNL     1      -2.919   2.558   0.052  0.00  0.00    -0.270 OA
ATOM     22  H   UNL     1      -2.237   0.188  -1.807  0.00  0.00    +0.150 HD
BRANCH  20  23
ATOM     23  C   UNL     1      -4.453   0.945  -0.657  0.00  0.00    +0.037 A 
ATOM     24  C   UNL     1      -4.673  -0.207  -1.414  0.00  0.00    +0.014 A 
ATOM     25  C   UNL     1      -5.930  -0.773  -1.454  0.00  0.00    +0.021 A 
ATOM     26  C   UNL     1      -6.976  -0.194  -0.755  0.00  0.00    +0.041 A 
ATOM     27  C   UNL     1      -6.765   0.953  -0.007  0.00  0.00    +0.021 A 
ATOM     28  C   UNL     1      -5.511   1.524   0.046  0.00  0.00    +0.014 A 
ATOM     29 CL   UNL     1      -8.557  -0.907  -0.817  0.00  0.00    -0.084 Cl
ENDBRANCH  20  23
ENDBRANCH  18  19
BRANCH  18  30
ATOM     30  C   UNL     1      -0.013   1.086   0.008  0.00  0.00    +0.034 C 
BRANCH  30  32
ATOM     31  C   UNL     1      -0.064   0.971   2.503  0.00  0.00    +0.007 C 
ATOM     32  C   UNL     1      -0.729   1.579   1.267  0.00  0.00    -0.015 C 
ATOM     33  C   UNL     1      -0.641   3.105   1.339  0.00  0.00    +0.007 C 
ENDBRANCH  30  32
ENDBRANCH  18  30
ENDBRANCH   1  18
TORSDOF 10
