REMARK  Name = ZINC08606529
REMARK  9 active torsions:
REMARK  status: ('A' for Active; 'I' for Inactive)
REMARK    1  A    between atoms: C_1  and  C_2
REMARK    2  A    between atoms: C_2  and  C_3
REMARK    3  A    between atoms: C_3  and  O_4
REMARK    4  A    between atoms: O_4  and  C_5
REMARK    5  A    between atoms: C_9  and  C_11
REMARK    6  A    between atoms: C_14  and  C_28
REMARK    7  A    between atoms: N_21  and  C_22
REMARK    8  A    between atoms: C_22  and  C_23
REMARK    9  A    between atoms: C_33  and  O_34
REMARK                            x       y       z     vdW  Elec       q    Type
REMARK                         _______ _______ _______ _____ _____    ______ ____
ROOT
ATOM      1  C   UNL     1       2.152  -6.027   3.467  0.00  0.00    +0.142 C 
ATOM      2  C   UNL     1       1.197  -6.569   4.495  0.00  0.00    +0.035 A 
ATOM      3  C   UNL     1      -0.128  -6.690   4.925  0.00  0.00    +0.102 A 
ATOM      4  N   UNL     1      -0.119  -7.398   6.037  0.00  0.00    -0.173 NA
ATOM      5  N   UNL     1       1.081  -7.737   6.351  0.00  0.00    -0.272 N 
ATOM      6  H   UNL     1       1.326  -8.261   7.130  0.00  0.00    +0.189 HD
ATOM      7  C   UNL     1       1.959  -7.250   5.425  0.00  0.00    +0.126 A 
ATOM      8  C   UNL     1       3.369  -7.161   5.029  0.00  0.00    +0.266 C 
ATOM      9  O   UNL     1       4.295  -7.658   5.641  0.00  0.00    -0.268 OA
ATOM     10  N   UNL     1       3.493  -6.452   3.891  0.00  0.00    -0.278 N 
ENDROOT
BRANCH   1  15
ATOM     11  C   UNL     1       1.505  -2.500   2.275  0.00  0.00    +0.121 A 
ATOM     12  C   UNL     1       1.933  -1.758   3.366  0.00  0.00    +0.045 A 
ATOM     13  C   UNL     1       2.429  -2.400   4.484  0.00  0.00    +0.004 A 
ATOM     14  C   UNL     1       2.499  -3.781   4.516  0.00  0.00    +0.006 A 
ATOM     15  C   UNL     1       2.074  -4.522   3.429  0.00  0.00    -0.019 A 
ATOM     16  C   UNL     1       1.571  -3.885   2.311  0.00  0.00    +0.051 A 
BRANCH  11  17
ATOM     17  O   UNL     1       1.016  -1.871   1.174  0.00  0.00    -0.492 OA
BRANCH  17  18
ATOM     18  C   UNL     1       0.976  -0.443   1.207  0.00  0.00    +0.229 C 
BRANCH  18  20
ATOM     19  C   UNL     1       0.358   1.611  -0.074  0.00  0.00    +0.007 C 
ATOM     20  C   UNL     1       0.400   0.082  -0.110  0.00  0.00    +0.038 C 
ENDBRANCH  18  20
ENDBRANCH  17  18
ENDBRANCH  11  17
ENDBRANCH   1  15
BRANCH   3  21
ATOM     21  C   UNL     1      -1.325  -6.124   4.254  0.00  0.00    +0.044 A 
ATOM     22  C   UNL     1      -1.203  -5.504   3.013  0.00  0.00    +0.014 A 
ATOM     23  C   UNL     1      -2.319  -4.979   2.393  0.00  0.00    +0.001 A 
ATOM     24  C   UNL     1      -3.559  -5.066   3.000  0.00  0.00    +0.004 A 
ATOM     25  C   UNL     1      -3.691  -5.678   4.232  0.00  0.00    +0.046 A 
ATOM     26  C   UNL     1      -2.580  -6.215   4.863  0.00  0.00    +0.126 A 
BRANCH  26  27
ATOM     27  O   UNL     1      -2.709  -6.823   6.071  0.00  0.00    -0.506 OA
ATOM     28  H   UNL     1      -2.607  -6.225   6.825  0.00  0.00    +0.292 HD
ENDBRANCH  26  27
ENDBRANCH   3  21
BRANCH  10  29
ATOM     29  C   UNL     1       4.747  -6.156   3.194  0.00  0.00    +0.183 C 
BRANCH  29  30
ATOM     30  C   UNL     1       5.317  -4.861   3.714  0.00  0.00    +0.122 A 
ATOM     31  C   UNL     1       6.171  -4.736   4.745  0.00  0.00    +0.046 A 
ATOM     32  C   UNL     1       6.442  -3.355   4.887  0.00  0.00    +0.041 A 
ATOM     33  C   UNL     1       5.737  -2.720   3.934  0.00  0.00    +0.195 A 
ATOM     34  O   UNL     1       5.062  -3.638   3.223  0.00  0.00    -0.466 OA
ENDBRANCH  29  30
ENDBRANCH  10  29
TORSDOF 8
