REMARK  Name = ZINC12646231
REMARK  10 active torsions:
REMARK  status: ('A' for Active; 'I' for Inactive)
REMARK    1  A    between atoms: C_1  and  C_2
REMARK    2  A    between atoms: C_2  and  O_3
REMARK    3  A    between atoms: O_3  and  C_4
REMARK    4  A    between atoms: C_11  and  C_28
REMARK    5  A    between atoms: N_13  and  C_14
REMARK    6  A    between atoms: C_14  and  C_15
REMARK    7  A    between atoms: C_15  and  C_16
REMARK    8  A    between atoms: C_16  and  N_17
REMARK    9  A    between atoms: N_17  and  S_18
REMARK   10  A    between atoms: S_18  and  C_21
REMARK                            x       y       z     vdW  Elec       q    Type
REMARK                         _______ _______ _______ _____ _____    ______ ____
ROOT
ATOM      1  C   UNL     1      -3.267  11.285  -5.636  0.00  0.00    +0.121 A 
ATOM      2  C   UNL     1      -2.810  11.057  -4.335  0.00  0.00    +0.047 A 
ATOM      3  C   UNL     1      -2.539   9.797  -3.897  0.00  0.00    +0.030 A 
ATOM      4  C   UNL     1      -2.719   8.703  -4.760  0.00  0.00    +0.048 A 
ATOM      5  C   UNL     1      -3.182   8.934  -6.080  0.00  0.00    +0.003 A 
ATOM      6  C   UNL     1      -3.453  10.246  -6.502  0.00  0.00    +0.055 A 
ATOM      7  C   UNL     1      -3.363   7.841  -6.947  0.00  0.00    +0.032 A 
ATOM      8  C   UNL     1      -3.072   6.571  -6.467  0.00  0.00    +0.090 A 
ATOM      9  C   UNL     1      -2.619   6.418  -5.136  0.00  0.00    +0.114 A 
ATOM     10  N   UNL     1      -2.335   5.151  -4.657  0.00  0.00    -0.329 N 
ATOM     11  H   UNL     1      -2.451   4.378  -5.232  0.00  0.00    +0.147 HD
ATOM     12  N   UNL     1      -2.432   7.445  -4.271  0.00  0.00    -0.342 N 
ATOM     13  H   UNL     1      -2.097   7.296  -3.312  0.00  0.00    +0.167 HD
ENDROOT
BRANCH   8  14
ATOM     14  C   UNL     1      -3.235   5.425  -7.311  0.00  0.00    +0.103 C 
ATOM     15  N   UNL     1      -3.364   4.516  -7.981  0.00  0.00    -0.191 NA
ENDBRANCH   8  14
BRANCH   1  16
ATOM     16  O   UNL     1      -3.529  12.555  -6.043  0.00  0.00    -0.492 OA
BRANCH  16  18
ATOM     17  C   UNL     1      -3.661  14.948  -5.726  0.00  0.00    +0.048 C 
ATOM     18  C   UNL     1      -3.315  13.600  -5.091  0.00  0.00    +0.225 C 
ENDBRANCH  16  18
ENDBRANCH   1  16
BRANCH  10  19
ATOM     19  C   UNL     1      -1.859   4.977  -3.283  0.00  0.00    +0.104 C 
BRANCH  19  20
ATOM     20  C   UNL     1      -1.622   3.491  -3.009  0.00  0.00    +0.035 C 
BRANCH  20  21
ATOM     21  C   UNL     1      -1.125   3.309  -1.574  0.00  0.00    +0.107 C 
BRANCH  21  22
ATOM     22  N   UNL     1      -0.897   1.885  -1.312  0.00  0.00    -0.190 NA
ATOM     23  H   UNL     1      -1.263   1.218  -1.913  0.00  0.00    +0.148 HD
BRANCH  22  24
ATOM     24  S   UNL     1      -0.017   1.417   0.010  0.00  0.00    +0.058 S 
ATOM     25  O   UNL     1       0.002  -0.004   0.002  0.00  0.00    -0.153 OA
ATOM     26  O   UNL     1       1.172   2.195   0.003  0.00  0.00    -0.153 OA
BRANCH  24  27
ATOM     27  C   UNL     1      -0.927   1.900   1.439  0.00  0.00    +0.105 A 
ATOM     28  C   UNL     1      -0.717   3.145   2.004  0.00  0.00    +0.030 A 
ATOM     29  C   UNL     1      -1.434   3.527   3.122  0.00  0.00    +0.022 A 
ATOM     30  C   UNL     1      -2.354   2.659   3.683  0.00  0.00    +0.041 A 
ATOM     31  C   UNL     1      -2.559   1.411   3.121  0.00  0.00    +0.022 A 
ATOM     32  C   UNL     1      -1.846   1.033   2.000  0.00  0.00    +0.030 A 
ATOM     33 CL   UNL     1      -3.251   3.135   5.091  0.00  0.00    -0.084 Cl
ENDBRANCH  24  27
ENDBRANCH  22  24
ENDBRANCH  21  22
ENDBRANCH  20  21
ENDBRANCH  19  20
ENDBRANCH  10  19
TORSDOF 9
