REMARK  Name = ZINC09335527
REMARK  11 active torsions:
REMARK  status: ('A' for Active; 'I' for Inactive)
REMARK    1  A    between atoms: C_1  and  C_2
REMARK    2  A    between atoms: C_2  and  C_26
REMARK    3  A    between atoms: N_3  and  N_4
REMARK    4  A    between atoms: N_4  and  C_5
REMARK    5  A    between atoms: C_8  and  N_23
REMARK    6  A    between atoms: C_10  and  S_11
REMARK    7  A    between atoms: S_11  and  N_14
REMARK    8  A    between atoms: N_14  and  C_15
REMARK    9  A    between atoms: C_18  and  O_21
REMARK   10  A    between atoms: O_21  and  C_22
REMARK   11  A    between atoms: C_29  and  C_32
REMARK                            x       y       z     vdW  Elec       q    Type
REMARK                         _______ _______ _______ _____ _____    ______ ____
ROOT
ATOM      1  C   UNL     1      -3.605   2.832   0.539  0.00  0.00    +0.075 A 
ATOM      2  C   UNL     1      -2.306   3.307   0.674  0.00  0.00    +0.029 A 
ATOM      3  C   UNL     1      -1.251   2.419   0.739  0.00  0.00    +0.035 A 
ATOM      4  C   UNL     1      -1.485   1.058   0.659  0.00  0.00    +0.128 A 
ATOM      5  C   UNL     1      -2.776   0.581   0.524  0.00  0.00    +0.063 A 
ATOM      6  C   UNL     1      -3.837   1.463   0.464  0.00  0.00    +0.133 A 
ENDROOT
BRANCH   6   7
ATOM      7  S   UNL     1      -5.481   0.855   0.292  0.00  0.00    +0.074 S 
ATOM      8  O   UNL     1      -5.383  -0.558   0.186  0.00  0.00    -0.150 OA
ATOM      9  O   UNL     1      -6.257   1.491   1.299  0.00  0.00    -0.150 OA
BRANCH   7  10
ATOM     10  N   UNL     1      -6.056   1.400  -1.162  0.00  0.00    -0.216 N 
ATOM     11  H   UNL     1      -6.783   2.041  -1.187  0.00  0.00    +0.174 HD
BRANCH  10  12
ATOM     12  C   UNL     1      -5.491   0.936  -2.356  0.00  0.00    +0.048 A 
ATOM     13  C   UNL     1      -4.111   0.884  -2.497  0.00  0.00    +0.028 A 
ATOM     14  C   UNL     1      -3.555   0.420  -3.673  0.00  0.00    +0.047 A 
ATOM     15  C   UNL     1      -4.375   0.017  -4.717  0.00  0.00    +0.120 A 
ATOM     16  C   UNL     1      -5.753   0.074  -4.578  0.00  0.00    +0.047 A 
ATOM     17  C   UNL     1      -6.311   0.532  -3.401  0.00  0.00    +0.028 A 
BRANCH  15  18
ATOM     18  O   UNL     1      -3.826  -0.434  -5.877  0.00  0.00    -0.495 OA
ATOM     19  C   UNL     1      -2.404  -0.569  -5.912  0.00  0.00    +0.277 C 
ENDBRANCH  15  18
ENDBRANCH  10  12
ENDBRANCH   7  10
ENDBRANCH   6   7
BRANCH   4  20
ATOM     20  N   UNL     1      -0.350   0.109   0.722  0.00  0.00    +0.056 N 
ATOM     21  O   UNL     1      -0.555  -1.090   0.656  0.00  0.00    -0.126 OA
ATOM     22  O   UNL     1       0.788   0.527   0.835  0.00  0.00    -0.126 OA
ENDBRANCH   4  20
BRANCH   1  23
ATOM     23  N   UNL     1      -4.674   3.726   0.478  0.00  0.00    -0.236 N 
ATOM     24  H   UNL     1      -5.585   3.393   0.456  0.00  0.00    +0.174 HD
BRANCH  23  27
ATOM     25  C   UNL     1      -6.844   5.428   0.433  0.00  0.00    +0.068 C 
ATOM     26  C   UNL     1      -5.428   5.941   0.487  0.00  0.00    +0.063 C 
ATOM     27  N   UNL     1      -4.433   5.106   0.449  0.00  0.00    -0.187 NA
BRANCH  26  28
ATOM     28  C   UNL     1      -5.171   7.387   0.584  0.00  0.00    -0.002 A 
ATOM     29  C   UNL     1      -6.240   8.279   0.731  0.00  0.00    +0.011 A 
ATOM     30  C   UNL     1      -6.002   9.620   0.826  0.00  0.00    +0.019 A 
ATOM     31  C   UNL     1      -4.690  10.104   0.766  0.00  0.00    +0.052 A 
ATOM     32  C   UNL     1      -3.623   9.213   0.614  0.00  0.00    +0.019 A 
ATOM     33  C   UNL     1      -3.860   7.871   0.524  0.00  0.00    +0.011 A 
BRANCH  31  34
ATOM     34  C   UNL     1      -4.441  11.511   0.859  0.00  0.00    +0.099 C 
ATOM     35  N   UNL     1      -4.244  12.627   0.934  0.00  0.00    -0.191 NA
ENDBRANCH  31  34
ENDBRANCH  26  28
ENDBRANCH  23  27
ENDBRANCH   1  23
TORSDOF 9
