REMARK  Name = ZINC09041981
REMARK  9 active torsions:
REMARK  status: ('A' for Active; 'I' for Inactive)
REMARK    1  A    between atoms: C_1  and  C_2
REMARK    2  A    between atoms: C_5  and  C_8
REMARK    3  A    between atoms: C_8  and  O_9
REMARK    4  A    between atoms: O_9  and  C_10
REMARK    5  A    between atoms: C_13  and  C_16
REMARK    6  A    between atoms: N_17  and  N_18
REMARK    7  A    between atoms: C_19  and  C_21
REMARK    8  A    between atoms: C_21  and  N_22
REMARK    9  A    between atoms: C_33  and  C_37
REMARK                            x       y       z     vdW  Elec       q    Type
REMARK                         _______ _______ _______ _____ _____    ______ ____
ROOT
ATOM      1  N   UNL     1       4.814   1.062  -0.036  0.00  0.00    -0.205 N 
ATOM      2  C   UNL     1       5.970   1.755  -0.044  0.00  0.00    +0.254 C 
ATOM      3  O   UNL     1       5.950   2.968  -0.038  0.00  0.00    -0.272 OA
ATOM      4  H   UNL     1       4.829   0.092  -0.041  0.00  0.00    +0.177 HD
ENDROOT
BRANCH   1   6
ATOM      5  C   UNL     1       2.476   1.076  -0.015  0.00  0.00    +0.138 C 
ATOM      6  N   UNL     1       3.589   1.743  -0.022  0.00  0.00    -0.188 NA
BRANCH   5  10
ATOM      7  C   UNL     1      -1.235   3.138   0.030  0.00  0.00    +0.121 A 
ATOM      8  C   UNL     1      -1.215   1.750   0.017  0.00  0.00    +0.046 A 
ATOM      9  C   UNL     1      -0.013   1.076   0.008  0.00  0.00    +0.013 A 
ATOM     10  C   UNL     1       1.187   1.792   0.000  0.00  0.00    -0.005 A 
ATOM     11  C   UNL     1       1.162   3.189   0.008  0.00  0.00    +0.013 A 
ATOM     12  C   UNL     1      -0.044   3.854   0.022  0.00  0.00    +0.046 A 
BRANCH   7  13
ATOM     13  O   UNL     1      -2.422   3.798   0.044  0.00  0.00    -0.487 OA
BRANCH  13  14
ATOM     14  C   UNL     1      -3.607   3.001   0.051  0.00  0.00    +0.264 C 
BRANCH  14  19
ATOM     15  C   UNL     1      -8.247   6.445   0.112  0.00  0.00    +0.044 C 
ATOM     16  C   UNL     1      -7.037   5.547   0.096  0.00  0.00    -0.050 A 
ATOM     17  C   UNL     1      -6.493   5.141  -1.108  0.00  0.00    +0.004 A 
ATOM     18  C   UNL     1      -5.383   4.317  -1.123  0.00  0.00    +0.007 A 
ATOM     19  C   UNL     1      -4.817   3.899   0.067  0.00  0.00    -0.010 A 
ATOM     20  C   UNL     1      -5.364   4.301   1.271  0.00  0.00    +0.007 A 
ATOM     21  C   UNL     1      -6.471   5.128   1.286  0.00  0.00    +0.004 A 
ENDBRANCH  14  19
ENDBRANCH  13  14
ENDBRANCH   7  13
ENDBRANCH   5  10
ENDBRANCH   1   6
BRANCH   2  22
ATOM     22  C   UNL     1       7.287   1.023  -0.059  0.00  0.00    +0.246 C 
BRANCH  22  23
ATOM     23  N   UNL     1       8.384   1.992  -0.065  0.00  0.00    -0.201 N 
ATOM     24  C   UNL     1       8.894   2.428   1.104  0.00  0.00    +0.279 A 
ATOM     25  O   UNL     1       8.450   2.023   2.164  0.00  0.00    -0.265 OA
ATOM     26  C   UNL     1       9.970   3.378   1.077  0.00  0.00    +0.079 A 
ATOM     27  C   UNL     1      10.670   3.980   2.209  0.00  0.00    -0.023 A 
ATOM     28  C   UNL     1      11.657   4.857   1.924  0.00  0.00    -0.004 A 
ATOM     29  S   UNL     1      11.710   4.928   0.154  0.00  0.00    -0.071 S 
ATOM     30  C   UNL     1      10.403   3.777  -0.197  0.00  0.00    +0.138 A 
ATOM     31  N   UNL     1       9.857   3.309  -1.315  0.00  0.00    -0.123 NA
ATOM     32  N   UNL     1       8.896   2.452  -1.283  0.00  0.00    -0.061 NA
ATOM     33  C   UNL     1      12.518   5.603   2.897  0.00  0.00    +0.046 C 
ATOM     34  C   UNL     1      12.368   4.946   4.277  0.00  0.00    -0.009 C 
ATOM     35  C   UNL     1      10.877   4.743   4.564  0.00  0.00    +0.008 C 
ATOM     36  C   UNL     1      10.317   3.648   3.657  0.00  0.00    +0.037 C 
ATOM     37  C   UNL     1      12.977   5.855   5.347  0.00  0.00    +0.008 C 
ENDBRANCH  22  23
ENDBRANCH   2  22
TORSDOF 7
