REMARK  Name = ZINC09993231
REMARK  10 active torsions:
REMARK  status: ('A' for Active; 'I' for Inactive)
REMARK    1  A    between atoms: C_4  and  C_7
REMARK    2  A    between atoms: C_9  and  C_29
REMARK    3  A    between atoms: C_11  and  S_15
REMARK    4  A    between atoms: C_12  and  C_13
REMARK    5  A    between atoms: S_15  and  C_16
REMARK    6  A    between atoms: C_16  and  C_17
REMARK    7  A    between atoms: C_17  and  C_19
REMARK    8  A    between atoms: C_17  and  O_28
REMARK    9  A    between atoms: C_19  and  N_20
REMARK   10  A    between atoms: N_20  and  C_21
REMARK                            x       y       z     vdW  Elec       q    Type
REMARK                         _______ _______ _______ _____ _____    ______ ____
ROOT
ATOM      1  C   UNL     1       2.743   6.689   0.013  0.00  0.00    +0.004 A 
ATOM      2  C   UNL     1       2.287   5.374   0.009  0.00  0.00    +0.038 A 
ATOM      3  C   UNL     1       0.913   5.129   0.021  0.00  0.00    +0.079 A 
ATOM      4  N   UNL     1       0.036   6.130   0.030  0.00  0.00    -0.239 NA
ATOM      5  C   UNL     1       0.420   7.395   0.039  0.00  0.00    +0.116 A 
ATOM      6  C   UNL     1       1.787   7.729   0.028  0.00  0.00    +0.091 A 
ENDROOT
BRANCH   1  10
ATOM      7  C   UNL     1       6.905   7.552  -0.022  0.00  0.00    +0.000 A 
ATOM      8  C   UNL     1       6.396   6.653   0.897  0.00  0.00    +0.001 A 
ATOM      9  C   UNL     1       5.045   6.368   0.913  0.00  0.00    +0.008 A 
ATOM     10  C   UNL     1       4.194   6.990   0.001  0.00  0.00    -0.017 A 
ATOM     11  C   UNL     1       4.714   7.892  -0.927  0.00  0.00    +0.008 A 
ATOM     12  C   UNL     1       6.065   8.172  -0.930  0.00  0.00    +0.001 A 
ENDBRANCH   1  10
BRANCH   3  13
ATOM     13  C   UNL     1       0.425   3.737   0.018  0.00  0.00    +0.038 A 
ATOM     14  C   UNL     1      -0.866   3.274   0.028  0.00  0.00    +0.017 A 
ATOM     15  C   UNL     1      -1.081   1.916   0.017  0.00  0.00    +0.008 A 
ATOM     16  C   UNL     1      -0.013   1.076   0.008  0.00  0.00    +0.046 A 
ATOM     17  S   UNL     1       1.360   2.217   0.001  0.00  0.00    -0.095 S 
ENDBRANCH   3  13
BRANCH   6  18
ATOM     18  C   UNL     1       2.202   9.100   0.031  0.00  0.00    +0.102 C 
ATOM     19  N   UNL     1       2.531  10.187   0.034  0.00  0.00    -0.191 NA
ENDBRANCH   6  18
BRANCH   5  20
ATOM     20  S   UNL     1      -0.791   8.675   0.057  0.00  0.00    -0.102 S 
BRANCH  20  21
ATOM     21  C   UNL     1      -2.301   7.678   0.067  0.00  0.00    +0.108 C 
BRANCH  21  22
ATOM     22  C   UNL     1      -3.522   8.601   0.083  0.00  0.00    +0.142 C 
BRANCH  22  23
ATOM     23  O   UNL     1      -3.484   9.419   1.254  0.00  0.00    -0.389 OA
ATOM     24  H   UNL     1      -3.492   8.921   2.083  0.00  0.00    +0.210 HD
ENDBRANCH  22  23
BRANCH  22  25
ATOM     25  C   UNL     1      -4.798   7.758   0.091  0.00  0.00    +0.133 C 
BRANCH  25  26
ATOM     26  N   UNL     1      -5.965   8.638  -0.014  0.00  0.00    -0.341 N 
ATOM     27  H   UNL     1      -5.844   9.598  -0.074  0.00  0.00    +0.146 HD
BRANCH  26  28
ATOM     28  C   UNL     1      -7.252   8.094  -0.026  0.00  0.00    +0.027 A 
ATOM     29  C   UNL     1      -7.426   6.718   0.054  0.00  0.00    +0.024 A 
ATOM     30  C   UNL     1      -8.700   6.183   0.047  0.00  0.00    +0.022 A 
ATOM     31  C   UNL     1      -9.801   7.016  -0.052  0.00  0.00    +0.041 A 
ATOM     32  C   UNL     1      -9.630   8.386  -0.138  0.00  0.00    +0.022 A 
ATOM     33  C   UNL     1      -8.359   8.927  -0.126  0.00  0.00    +0.024 A 
ATOM     34 CL   UNL     1     -11.399   6.339  -0.068  0.00  0.00    -0.084 Cl
ENDBRANCH  26  28
ENDBRANCH  25  26
ENDBRANCH  22  25
ENDBRANCH  21  22
ENDBRANCH  20  21
ENDBRANCH   5  20
TORSDOF 10
