REMARK  Name = ZINC63266696
REMARK  9 active torsions:
REMARK  status: ('A' for Active; 'I' for Inactive)
REMARK    1  A    between atoms: C_1  and  C_2
REMARK    2  A    between atoms: C_2  and  C_3
REMARK    3  A    between atoms: C_6  and  C_9
REMARK    4  A    between atoms: N_10  and  N_11
REMARK    5  A    between atoms: C_12  and  C_14
REMARK    6  A    between atoms: C_14  and  C_16
REMARK    7  A    between atoms: C_14  and  N_26
REMARK    8  A    between atoms: C_16  and  C_17
REMARK    9  A    between atoms: C_27  and  C_29
REMARK                            x       y       z     vdW  Elec       q    Type
REMARK                         _______ _______ _______ _____ _____    ______ ____
ROOT
ATOM      1  C   UNL     1      -9.495  -3.488  -2.304  0.00  0.00    +0.165 C 
ENDROOT
BRANCH   1   3
ATOM      2  N   UNL     1      -7.283  -3.408  -1.201  0.00  0.00    -0.205 N 
ATOM      3  C   UNL     1      -7.996  -3.340  -2.343  0.00  0.00    +0.253 C 
ATOM      4  O   UNL     1      -7.431  -3.160  -3.401  0.00  0.00    -0.272 OA
ATOM      5  H   UNL     1      -7.734  -3.552  -0.355  0.00  0.00    +0.177 HD
BRANCH   2   7
ATOM      6  C   UNL     1      -5.202  -3.336  -0.138  0.00  0.00    +0.138 C 
ATOM      7  N   UNL     1      -5.889  -3.270  -1.237  0.00  0.00    -0.188 NA
BRANCH   6  11
ATOM      8  C   UNL     1      -0.980  -2.920  -0.247  0.00  0.00    -0.048 A 
ATOM      9  C   UNL     1      -1.620  -3.125   0.962  0.00  0.00    +0.004 A 
ATOM     10  C   UNL     1      -2.992  -3.261   1.005  0.00  0.00    +0.010 A 
ATOM     11  C   UNL     1      -3.735  -3.191  -0.176  0.00  0.00    -0.005 A 
ATOM     12  C   UNL     1      -3.081  -2.984  -1.393  0.00  0.00    +0.010 A 
ATOM     13  C   UNL     1      -1.709  -2.845  -1.420  0.00  0.00    +0.004 A 
BRANCH   8  15
ATOM     14  C   UNL     1       0.892  -1.298  -0.122  0.00  0.00    +0.009 C 
ATOM     15  C   UNL     1       0.520  -2.773  -0.285  0.00  0.00    +0.032 C 
ENDBRANCH   8  15
ENDBRANCH   6  11
ENDBRANCH   2   7
ENDBRANCH   1   3
BRANCH   1  16
ATOM     16  N   UNL     1     -10.032  -3.377  -3.663  0.00  0.00    -0.300 N 
ATOM     17  C   UNL     1     -11.182  -4.002  -3.986  0.00  0.00    +0.245 C 
ATOM     18  O   UNL     1     -11.774  -4.656  -3.150  0.00  0.00    -0.270 OA
ATOM     19  H   UNL     1      -9.560  -2.855  -4.330  0.00  0.00    +0.150 HD
BRANCH  17  20
ATOM     20  C   UNL     1     -11.723  -3.890  -5.356  0.00  0.00    +0.037 A 
ATOM     21  C   UNL     1     -11.043  -3.143  -6.320  0.00  0.00    +0.014 A 
ATOM     22  C   UNL     1     -11.553  -3.043  -7.598  0.00  0.00    +0.021 A 
ATOM     23  C   UNL     1     -12.738  -3.681  -7.925  0.00  0.00    +0.041 A 
ATOM     24  C   UNL     1     -13.417  -4.423  -6.973  0.00  0.00    +0.021 A 
ATOM     25  C   UNL     1     -12.914  -4.536  -5.694  0.00  0.00    +0.014 A 
ATOM     26 CL   UNL     1     -13.374  -3.550  -9.535  0.00  0.00    -0.084 Cl
ENDBRANCH  17  20
ENDBRANCH   1  16
BRANCH   1  27
ATOM     27  C   UNL     1     -10.094  -2.386  -1.428  0.00  0.00    +0.065 C 
BRANCH  27  28
ATOM     28  C   UNL     1      -9.784  -1.040  -2.031  0.00  0.00    -0.039 C 
ATOM     29  C   UNL     1     -10.572  -0.321  -2.863  0.00  0.00    -0.001 A 
ATOM     30  C   UNL     1     -11.901  -0.567  -3.434  0.00  0.00    +0.010 A 
ATOM     31  C   UNL     1     -12.445   0.360  -4.255  0.00  0.00    +0.001 A 
ATOM     32  C   UNL     1     -11.772   1.548  -4.573  0.00  0.00    +0.002 A 
ATOM     33  C   UNL     1     -10.547   1.845  -4.088  0.00  0.00    +0.026 A 
ATOM     34  C   UNL     1      -9.882   0.941  -3.215  0.00  0.00    +0.043 A 
ATOM     35  N   UNL     1      -8.713   0.999  -2.624  0.00  0.00    -0.380 N 
ATOM     36  C   UNL     1      -8.532  -0.218  -1.824  0.00  0.00    +0.144 C 
ATOM     37  H   UNL     1      -8.076   1.727  -2.699  0.00  0.00    +0.160 HD
ENDBRANCH  27  28
ENDBRANCH   1  27
TORSDOF 8
