REMARK  Name = ZINC39674659
REMARK  7 active torsions:
REMARK  status: ('A' for Active; 'I' for Inactive)
REMARK    1  A    between atoms: C_1  and  C_2
REMARK    2  A    between atoms: C_4  and  C_14
REMARK    3  A    between atoms: C_7  and  C_12
REMARK    4  A    between atoms: C_14  and  C_15
REMARK    5  A    between atoms: C_15  and  N_16
REMARK    6  A    between atoms: C_17  and  C_19
REMARK    7  A    between atoms: C_30  and  C_32
REMARK                            x       y       z     vdW  Elec       q    Type
REMARK                         _______ _______ _______ _____ _____    ______ ____
ROOT
ATOM      1  C   UNL     1       1.369  -1.003  -7.406  0.00  0.00    +0.100 C 
ATOM      2  C   UNL     1       1.320   0.512  -7.708  0.00  0.00    +0.121 C 
ATOM      3  N   UNL     1       2.660   0.827  -8.258  0.00  0.00    -0.296 N 
ATOM      4  C   UNL     1       2.988  -0.335  -9.117  0.00  0.00    +0.115 C 
ATOM      5  C   UNL     1       2.462  -1.556  -8.336  0.00  0.00    -0.004 C 
ATOM      6  C   UNL     1       1.869  -2.582  -9.296  0.00  0.00    -0.010 C 
ATOM      7  C   UNL     1       2.986  -3.161 -10.171  0.00  0.00    -0.082 C 
ATOM      8  N   UNL     1       4.002  -3.788  -9.318  0.00  0.00    +0.379 N 
ATOM      9  C   UNL     1       4.633  -2.776  -8.462  0.00  0.00    -0.082 C 
ATOM     10  C   UNL     1       3.586  -2.181  -7.516  0.00  0.00    -0.010 C 
ATOM     11  C   UNL     1       3.410   1.923  -8.029  0.00  0.00    +0.249 C 
ATOM     12  O   UNL     1       3.043   2.752  -7.218  0.00  0.00    -0.270 OA
ATOM     13  H   UNL     1       3.567  -4.492  -8.740  0.00  0.00    -0.086 HD
ATOM     14  H   UNL     1       4.705  -4.221  -9.898  0.00  0.00    -0.086 HD
ENDROOT
BRANCH  11  15
ATOM     15  C   UNL     1       4.676   2.118  -8.762  0.00  0.00    +0.072 A 
ATOM     16  C   UNL     1       4.790   1.693 -10.088  0.00  0.00    +0.019 A 
ATOM     17  C   UNL     1       5.974   1.877 -10.768  0.00  0.00    +0.039 A 
ATOM     18  C   UNL     1       7.053   2.482 -10.139  0.00  0.00    +0.126 A 
ATOM     19  C   UNL     1       6.948   2.906  -8.825  0.00  0.00    +0.077 A 
ATOM     20  C   UNL     1       5.764   2.733  -8.134  0.00  0.00    +0.138 A 
ATOM     21  F   UNL     1       5.659   3.151  -6.853  0.00  0.00    -0.205 F 
ATOM     22  F   UNL     1       8.211   2.659 -10.812  0.00  0.00    -0.205 F 
ENDBRANCH  11  15
BRANCH   1  24
ATOM     23  N   UNL     1       1.272  -2.328  -5.320  0.00  0.00    -0.315 N 
ATOM     24  C   UNL     1       1.737  -1.239  -5.964  0.00  0.00    +0.218 C 
ATOM     25  O   UNL     1       2.452  -0.450  -5.384  0.00  0.00    -0.275 OA
ATOM     26  H   UNL     1       0.700  -2.959  -5.784  0.00  0.00    +0.149 HD
BRANCH  23  27
ATOM     27  C   UNL     1       1.630  -2.558  -3.918  0.00  0.00    +0.108 C 
BRANCH  27  28
ATOM     28  C   UNL     1       0.976  -3.852  -3.430  0.00  0.00    +0.052 C 
BRANCH  28  31
ATOM     29  C   UNL     1      -0.609  -5.272  -0.986  0.00  0.00    +0.035 C 
ATOM     30  C   UNL     1       0.915  -5.249  -1.119  0.00  0.00    +0.103 C 
ATOM     31  C   UNL     1       1.345  -4.089  -1.988  0.00  0.00    -0.037 C 
ATOM     32  C   UNL     1       2.129  -3.304  -1.207  0.00  0.00    +0.000 A 
ATOM     33  C   UNL     1       2.813  -2.088  -1.470  0.00  0.00    +0.028 A 
ATOM     34  C   UNL     1       3.555  -1.485  -0.481  0.00  0.00    +0.052 A 
ATOM     35  C   UNL     1       3.659  -2.071   0.851  0.00  0.00    +0.021 A 
ATOM     36  C   UNL     1       3.030  -3.224   1.159  0.00  0.00    +0.027 A 
ATOM     37  C   UNL     1       2.226  -3.909   0.140  0.00  0.00    +0.043 A 
ATOM     38  N   UNL     1       1.533  -5.022   0.192  0.00  0.00    -0.378 N 
ATOM     39  H   UNL     1       1.444  -5.598   0.967  0.00  0.00    +0.160 HD
BRANCH  34  40
ATOM     40  C   UNL     1       4.239  -0.259  -0.764  0.00  0.00    +0.099 C 
ATOM     41  N   UNL     1       4.781   0.713  -0.988  0.00  0.00    -0.191 NA
ENDBRANCH  34  40
ENDBRANCH  28  31
ENDBRANCH  27  28
ENDBRANCH  23  27
ENDBRANCH   1  24
TORSDOF 6
