REMARK  Name = ZINC59016930
REMARK  7 active torsions:
REMARK  status: ('A' for Active; 'I' for Inactive)
REMARK    1  A    between atoms: C_6  and  C_7
REMARK    2  A    between atoms: C_7  and  C_9
REMARK    3  A    between atoms: C_9  and  S_10
REMARK    4  A    between atoms: S_10  and  C_11
REMARK    5  A    between atoms: N_16  and  N_17
REMARK    6  A    between atoms: C_18  and  C_19
REMARK    7  A    between atoms: C_24  and  O_25
REMARK                            x       y       z     vdW  Elec       q    Type
REMARK                         _______ _______ _______ _____ _____    ______ ____
ROOT
ATOM      1  C   UNL     1      -2.738  -4.651   0.004  0.00  0.00    +0.210 A 
ATOM      2  N   UNL     1      -3.733  -5.544   0.004  0.00  0.00    -0.186 NA
ATOM      3  C   UNL     1      -3.234  -6.763  -0.006  0.00  0.00    +0.232 A 
ATOM      4  N   UNL     1      -1.888  -6.662  -0.013  0.00  0.00    -0.245 N 
ATOM      5  N   UNL     1      -1.592  -5.289  -0.011  0.00  0.00    -0.144 NA
ATOM      6  N   UNL     1      -3.961  -7.939  -0.009  0.00  0.00    -0.205 N 
ATOM      7  H   UNL     1      -3.502  -8.793  -0.017  0.00  0.00    +0.177 HD
ATOM      8  H   UNL     1      -1.251  -7.393  -0.020  0.00  0.00    +0.192 HD
ENDROOT
BRANCH   6   9
ATOM      9  N   UNL     1      -5.361  -7.897  -0.002  0.00  0.00    -0.187 NA
ATOM     10  C   UNL     1      -6.044  -9.001  -0.004  0.00  0.00    +0.142 C 
BRANCH  10  11
ATOM     11  C   UNL     1      -7.517  -8.957   0.004  0.00  0.00    +0.037 A 
ATOM     12  C   UNL     1      -8.255 -10.143   0.006  0.00  0.00    +0.028 A 
ATOM     13  C   UNL     1      -9.634 -10.095   0.014  0.00  0.00    +0.019 A 
ATOM     14  C   UNL     1     -10.290  -8.874   0.019  0.00  0.00    +0.019 A 
ATOM     15  C   UNL     1      -9.570  -7.694   0.016  0.00  0.00    +0.047 A 
ATOM     16  C   UNL     1      -8.185  -7.725   0.014  0.00  0.00    +0.126 A 
ATOM     17 BR   UNL     1     -10.633 -11.700   0.018  0.00  0.00    -0.050 Br
BRANCH  16  18
ATOM     18  O   UNL     1      -7.477  -6.566   0.017  0.00  0.00    -0.506 OA
ATOM     19  H   UNL     1      -7.277  -6.225  -0.866  0.00  0.00    +0.292 HD
ENDBRANCH  16  18
ENDBRANCH  10  11
ENDBRANCH   6   9
BRANCH   1  20
ATOM     20  S   UNL     1      -2.935  -2.900   0.016  0.00  0.00    -0.076 S 
BRANCH  20  21
ATOM     21  C   UNL     1      -1.235  -2.267   0.002  0.00  0.00    +0.157 C 
BRANCH  21  22
ATOM     22  C   UNL     1      -1.260  -0.760   0.011  0.00  0.00    +0.173 C 
ATOM     23  O   UNL     1      -2.320  -0.171   0.024  0.00  0.00    -0.291 OA
BRANCH  22  29
ATOM     24  C   UNL     1      -0.017   1.395   0.010  0.00  0.00    +0.012 A 
ATOM     25  C   UNL     1       1.169   2.097   0.002  0.00  0.00    +0.016 A 
ATOM     26  C   UNL     1       2.378   1.420  -0.013  0.00  0.00    +0.018 A 
ATOM     27  C   UNL     1       2.405   0.035  -0.021  0.00  0.00    +0.016 A 
ATOM     28  C   UNL     1       1.227  -0.680  -0.014  0.00  0.00    +0.012 A 
ATOM     29  C   UNL     1       0.002  -0.004   0.002  0.00  0.00    +0.018 A 
ATOM     30 BR   UNL     1       4.000   2.393  -0.025  0.00  0.00    -0.050 Br
ENDBRANCH  22  29
ENDBRANCH  21  22
ENDBRANCH  20  21
ENDBRANCH   1  20
TORSDOF 7
