REMARK  Name = ZINC39850428
REMARK  13 active torsions:
REMARK  status: ('A' for Active; 'I' for Inactive)
REMARK    1  A    between atoms: C_1  and  C_2
REMARK    2  A    between atoms: C_2  and  O_3
REMARK    3  A    between atoms: O_3  and  C_4
REMARK    4  A    between atoms: C_7  and  C_12
REMARK    5  A    between atoms: C_9  and  O_10
REMARK    6  A    between atoms: O_10  and  C_11
REMARK    7  A    between atoms: C_14  and  C_33
REMARK    8  A    between atoms: C_15  and  C_32
REMARK    9  A    between atoms: C_22  and  C_23
REMARK   10  A    between atoms: C_24  and  C_25
REMARK   11  A    between atoms: C_33  and  O_35
REMARK   12  A    between atoms: O_35  and  C_36
REMARK   13  A    between atoms: C_36  and  C_37
REMARK                            x       y       z     vdW  Elec       q    Type
REMARK                         _______ _______ _______ _____ _____    ______ ____
ROOT
ATOM      1  C   UNL     1       1.318  -5.608  -1.578  0.00  0.00    +0.162 C 
ATOM      2  C   UNL     1       2.587  -6.093  -0.917  0.00  0.00    +0.085 C 
ATOM      3  C   UNL     1       2.528  -7.239  -0.175  0.00  0.00    +0.053 C 
ATOM      4  N   UNL     1       1.385  -7.900  -0.044  0.00  0.00    -0.228 NA
ATOM      5  C   UNL     1       0.248  -7.541  -0.586  0.00  0.00    +0.178 A 
ATOM      6  N   UNL     1       0.088  -6.422  -1.368  0.00  0.00    -0.275 N 
ATOM      7  C   UNL     1      -1.126  -6.157  -1.868  0.00  0.00    +0.268 A 
ATOM      8  O   UNL     1      -1.316  -5.178  -2.567  0.00  0.00    -0.266 OA
ATOM      9  C   UNL     1      -2.220  -7.082  -1.549  0.00  0.00    +0.080 A 
ATOM     10  C   UNL     1      -3.531  -7.038  -1.929  0.00  0.00    +0.020 C 
ATOM     11  S   UNL     1      -1.373  -8.278  -0.533  0.00  0.00    -0.046 S 
ATOM     12  C   UNL     1       3.772  -7.757   0.500  0.00  0.00    +0.066 C 
ENDROOT
BRANCH   1  16
ATOM     13  C   UNL     1       0.533  -1.646  -0.171  0.00  0.00    +0.162 A 
ATOM     14  C   UNL     1       1.123  -1.840  -1.410  0.00  0.00    +0.050 A 
ATOM     15  C   UNL     1       1.375  -3.122  -1.862  0.00  0.00    +0.010 A 
ATOM     16  C   UNL     1       1.040  -4.212  -1.081  0.00  0.00    -0.016 A 
ATOM     17  C   UNL     1       0.451  -4.026   0.156  0.00  0.00    +0.055 A 
ATOM     18  C   UNL     1       0.201  -2.744   0.618  0.00  0.00    +0.162 A 
BRANCH  18  19
ATOM     19  O   UNL     1      -0.373  -2.558   1.836  0.00  0.00    -0.491 OA
ATOM     20  C   UNL     1      -0.575  -3.721   2.642  0.00  0.00    +0.277 C 
ENDBRANCH  18  19
BRANCH  13  21
ATOM     21  O   UNL     1       0.284  -0.386   0.275  0.00  0.00    -0.489 OA
BRANCH  21  23
ATOM     22  C   UNL     1       0.297   2.023   0.079  0.00  0.00    +0.048 C 
ATOM     23  C   UNL     1       0.651   0.692  -0.588  0.00  0.00    +0.226 C 
ENDBRANCH  21  23
ENDBRANCH  13  21
ENDBRANCH   1  16
BRANCH  10  24
ATOM     24  C   UNL     1      -4.421  -8.043  -1.502  0.00  0.00    +0.002 C 
ATOM     25  C   UNL     1      -5.722  -8.000  -1.878  0.00  0.00    +0.008 C 
BRANCH  25  26
ATOM     26  C   UNL     1      -6.651  -9.048  -1.433  0.00  0.00    -0.025 A 
ATOM     27  C   UNL     1      -6.197 -10.089  -0.616  0.00  0.00    +0.008 A 
ATOM     28  C   UNL     1      -7.075 -11.069  -0.202  0.00  0.00    +0.001 A 
ATOM     29  C   UNL     1      -8.402 -11.024  -0.593  0.00  0.00    +0.000 A 
ATOM     30  C   UNL     1      -8.859  -9.997  -1.402  0.00  0.00    +0.001 A 
ATOM     31  C   UNL     1      -7.995  -9.007  -1.820  0.00  0.00    +0.008 A 
ENDBRANCH  25  26
ENDBRANCH  10  24
BRANCH   2  32
ATOM     32  C   UNL     1       3.793  -5.387  -1.061  0.00  0.00    +0.339 C 
ATOM     33  O   UNL     1       4.775  -5.723  -0.424  0.00  0.00    -0.245 OA
BRANCH  32  34
ATOM     34  O   UNL     1       3.862  -4.335  -1.905  0.00  0.00    -0.462 OA
BRANCH  34  35
ATOM     35  C   UNL     1       5.142  -3.720  -2.071  0.00  0.00    +0.229 C 
ATOM     36  C   UNL     1       5.006  -2.497  -2.980  0.00  0.00    +0.048 C 
ENDBRANCH  34  35
ENDBRANCH  32  34
ENDBRANCH   2  32
TORSDOF 9
