REMARK  Name = ZINC17526098
REMARK  10 active torsions:
REMARK  status: ('A' for Active; 'I' for Inactive)
REMARK    1  A    between atoms: C_1  and  C_2
REMARK    2  A    between atoms: C_2  and  C_3
REMARK    3  A    between atoms: C_2  and  C_4
REMARK    4  A    between atoms: C_4  and  C_6
REMARK    5  A    between atoms: C_4  and  N_19
REMARK    6  A    between atoms: N_8  and  N_9
REMARK    7  A    between atoms: C_10  and  C_12
REMARK    8  A    between atoms: C_17  and  O_18
REMARK    9  A    between atoms: N_19  and  S_20
REMARK   10  A    between atoms: S_20  and  C_23
REMARK                            x       y       z     vdW  Elec       q    Type
REMARK                         _______ _______ _______ _____ _____    ______ ____
ROOT
ATOM      1  C   UNL     1       1.137  -2.259   0.082  0.00  0.00    +0.166 C 
ENDROOT
BRANCH   1   2
ATOM      2  C   UNL     1       0.918  -0.876  -0.477  0.00  0.00    +0.248 C 
ATOM      3  O   UNL     1       1.850  -0.256  -0.942  0.00  0.00    -0.273 OA
ATOM      4  N   UNL     1      -0.314  -0.330  -0.459  0.00  0.00    -0.233 N 
ATOM      5  H   UNL     1      -1.060  -0.826  -0.087  0.00  0.00    +0.173 HD
BRANCH   4   6
ATOM      6  N   UNL     1      -0.518   0.956  -0.979  0.00  0.00    -0.230 N 
ATOM      7  C   UNL     1      -1.750   1.500  -0.967  0.00  0.00    +0.264 C 
ATOM      8  O   UNL     1      -2.686   0.876  -0.505  0.00  0.00    -0.269 OA
ATOM      9  H   UNL     1       0.228   1.452  -1.351  0.00  0.00    +0.173 HD
BRANCH   7  10
ATOM     10  C   UNL     1      -1.965   2.853  -1.514  0.00  0.00    +0.079 A 
ATOM     11  C   UNL     1      -0.891   3.576  -2.040  0.00  0.00    +0.017 A 
ATOM     12  C   UNL     1      -1.099   4.838  -2.554  0.00  0.00    +0.001 A 
ATOM     13  C   UNL     1      -2.366   5.398  -2.542  0.00  0.00    +0.004 A 
ATOM     14  C   UNL     1      -3.435   4.697  -2.020  0.00  0.00    +0.046 A 
ATOM     15  C   UNL     1      -3.245   3.423  -1.503  0.00  0.00    +0.129 A 
BRANCH  15  16
ATOM     16  O   UNL     1      -4.294   2.733  -0.989  0.00  0.00    -0.506 OA
ATOM     17  H   UNL     1      -4.436   2.881  -0.044  0.00  0.00    +0.292 HD
ENDBRANCH  15  16
ENDBRANCH   7  10
ENDBRANCH   4   6
ENDBRANCH   1   2
BRANCH   1  19
ATOM     18  C   UNL     1       0.852  -3.708   2.097  0.00  0.00    +0.009 C 
ATOM     19  C   UNL     1       0.744  -2.279   1.561  0.00  0.00    +0.010 C 
ATOM     20  C   UNL     1       1.683  -1.365   2.350  0.00  0.00    +0.009 C 
ENDBRANCH   1  19
BRANCH   1  21
ATOM     21  N   UNL     1       2.549  -2.622  -0.053  0.00  0.00    -0.178 NA
ATOM     22  H   UNL     1       3.229  -2.104   0.406  0.00  0.00    +0.149 HD
BRANCH  21  23
ATOM     23  S   UNL     1       2.986  -3.916  -0.990  0.00  0.00    +0.059 S 
ATOM     24  O   UNL     1       4.404  -3.994  -0.940  0.00  0.00    -0.153 OA
ATOM     25  O   UNL     1       2.149  -4.997  -0.604  0.00  0.00    -0.153 OA
BRANCH  23  26
ATOM     26  C   UNL     1       2.562  -3.521  -2.654  0.00  0.00    +0.105 A 
ATOM     27  C   UNL     1       1.313  -3.853  -3.147  0.00  0.00    +0.029 A 
ATOM     28  C   UNL     1       0.979  -3.539  -4.450  0.00  0.00    +0.017 A 
ATOM     29  C   UNL     1       1.897  -2.901  -5.265  0.00  0.00    +0.018 A 
ATOM     30  C   UNL     1       3.147  -2.573  -4.774  0.00  0.00    +0.017 A 
ATOM     31  C   UNL     1       3.479  -2.883  -3.468  0.00  0.00    +0.029 A 
ATOM     32 BR   UNL     1       1.442  -2.477  -7.051  0.00  0.00    -0.050 Br
ENDBRANCH  23  26
ENDBRANCH  21  23
ENDBRANCH   1  21
TORSDOF 8
