REMARK  Name = ZINC36346167
REMARK  16 active torsions:
REMARK  status: ('A' for Active; 'I' for Inactive)
REMARK    1  A    between atoms: C_1  and  C_2
REMARK    2  A    between atoms: C_2  and  C_3
REMARK    3  A    between atoms: C_3  and  C_4
REMARK    4  A    between atoms: C_4  and  C_5
REMARK    5  A    between atoms: C_5  and  C_7
REMARK    6  A    between atoms: C_5  and  O_36
REMARK    7  A    between atoms: C_7  and  N_8
REMARK    8  A    between atoms: N_8  and  C_9
REMARK    9  A    between atoms: N_8  and  C_15
REMARK   10  A    between atoms: C_9  and  C_10
REMARK   11  A    between atoms: C_15  and  C_16
REMARK   12  A    between atoms: C_17  and  C_35
REMARK   13  A    between atoms: N_19  and  C_29
REMARK   14  A    between atoms: C_20  and  O_21
REMARK   15  A    between atoms: O_21  and  C_22
REMARK   16  A    between atoms: C_25  and  C_28
REMARK                            x       y       z     vdW  Elec       q    Type
REMARK                         _______ _______ _______ _____ _____    ______ ____
ROOT
ATOM      1  C   UNL     1       2.936  -7.086   5.375  0.00  0.00    +0.021 A 
ATOM      2  C   UNL     1       4.151  -7.118   6.066  0.00  0.00    +0.065 A 
ATOM      3  N   UNL     1       3.899  -7.292   7.339  0.00  0.00    -0.168 NA
ATOM      4  N   UNL     1       2.511  -7.378   7.507  0.00  0.00    -0.200 N 
ATOM      5  C   UNL     1       1.935  -7.243   6.282  0.00  0.00    +0.225 A 
ATOM      6  C   UNL     1       5.519  -6.976   5.450  0.00  0.00    +0.068 C 
ENDROOT
BRANCH   4   7
ATOM      7  C   UNL     1       1.836  -7.564   8.721  0.00  0.00    +0.069 A 
ATOM      8  C   UNL     1       0.670  -6.858   8.984  0.00  0.00    +0.028 A 
ATOM      9  C   UNL     1       0.007  -7.044  10.181  0.00  0.00    +0.002 A 
ATOM     10  C   UNL     1       0.504  -7.932  11.118  0.00  0.00    +0.000 A 
ATOM     11  C   UNL     1       1.666  -8.636  10.859  0.00  0.00    +0.002 A 
ATOM     12  C   UNL     1       2.330  -8.459   9.661  0.00  0.00    +0.028 A 
ENDBRANCH   4   7
BRANCH   1  13
ATOM     13  C   UNL     1       2.766  -6.904   3.889  0.00  0.00    -0.035 C 
BRANCH  13  14
ATOM     14  N   UNL     1       2.499  -5.489   3.596  0.00  0.00    +0.389 N 
ATOM     15  H   UNL     1       1.714  -5.174   4.145  0.00  0.00    -0.081 HD
BRANCH  14  16
ATOM     16  C   UNL     1       3.684  -4.688   3.933  0.00  0.00    -0.046 C 
BRANCH  16  17
ATOM     17  C   UNL     1       3.365  -3.203   3.747  0.00  0.00    +0.098 C 
BRANCH  17  18
ATOM     18  O   UNL     1       2.363  -2.810   4.687  0.00  0.00    -0.394 OA
ATOM     19  H   UNL     1       2.621  -2.933   5.611  0.00  0.00    +0.210 HD
ENDBRANCH  17  18
BRANCH  17  20
ATOM     20  C   UNL     1       4.633  -2.377   3.977  0.00  0.00    +0.029 C 
BRANCH  20  21
ATOM     21  C   UNL     1       4.345  -0.906   3.669  0.00  0.00    +0.002 C 
BRANCH  21  23
ATOM     22  C   UNL     1       5.324   1.391   3.591  0.00  0.00    +0.004 C 
ATOM     23  C   UNL     1       5.612  -0.080   3.899  0.00  0.00    -0.003 C 
ENDBRANCH  21  23
ENDBRANCH  20  21
ENDBRANCH  17  20
ENDBRANCH  16  17
ENDBRANCH  14  16
BRANCH  14  24
ATOM     24  C   UNL     1       2.193  -5.334   2.168  0.00  0.00    -0.003 C 
BRANCH  24  25
ATOM     25  C   UNL     1       0.901  -6.042   1.852  0.00  0.00    +0.089 A 
ATOM     26  C   UNL     1      -0.321  -5.480   1.838  0.00  0.00    +0.042 A 
ATOM     27  C   UNL     1      -1.237  -6.500   1.493  0.00  0.00    +0.041 A 
ATOM     28  C   UNL     1      -0.520  -7.625   1.317  0.00  0.00    +0.195 A 
ATOM     29  O   UNL     1       0.775  -7.340   1.530  0.00  0.00    -0.470 OA
ENDBRANCH  24  25
ENDBRANCH  14  24
ENDBRANCH  13  14
ENDBRANCH   1  13
BRANCH   5  30
ATOM     30  O   UNL     1       0.605  -7.265   6.014  0.00  0.00    -0.438 OA
BRANCH  30  31
ATOM     31  C   UNL     1       0.012  -8.473   5.825  0.00  0.00    +0.130 A 
ATOM     32  C   UNL     1       0.736  -9.641   6.017  0.00  0.00    +0.046 A 
ATOM     33  C   UNL     1       0.131 -10.867   5.824  0.00  0.00    +0.007 A 
ATOM     34  C   UNL     1      -1.196 -10.932   5.439  0.00  0.00    -0.050 A 
ATOM     35  C   UNL     1      -1.920  -9.770   5.246  0.00  0.00    +0.007 A 
ATOM     36  C   UNL     1      -1.321  -8.541   5.444  0.00  0.00    +0.046 A 
ATOM     37  C   UNL     1      -1.853 -12.271   5.228  0.00  0.00    +0.044 C 
ENDBRANCH  30  31
ENDBRANCH   5  30
TORSDOF 13
