REMARK  Name = ZINC04984587
REMARK  5 active torsions:
REMARK  status: ('A' for Active; 'I' for Inactive)
REMARK    1  A    between atoms: C_1  and  O_2
REMARK    2  A    between atoms: O_2  and  C_3
REMARK    3  A    between atoms: C_7  and  C_9
REMARK    4  A    between atoms: C_15  and  O_17
REMARK    5  A    between atoms: N_20  and  C_21
REMARK                            x       y       z     vdW  Elec       q    Type
REMARK                         _______ _______ _______ _____ _____    ______ ____
ROOT
ATOM      1  C   UNL     1       1.423   1.617  -0.002  0.00  0.00    +0.051 C 
ATOM      2  C   UNL     1       1.404   3.147   0.039  0.00  0.00    +0.030 C 
ATOM      3  C   UNL     1       0.682   3.677  -1.204  0.00  0.00    +0.110 C 
ATOM      4  N   UNL     1      -0.648   3.059  -1.279  0.00  0.00    -0.283 N 
ATOM      5  C   UNL     1      -0.750   1.594  -1.234  0.00  0.00    +0.141 C 
ATOM      6  C   UNL     1      -0.013   1.087   0.009  0.00  0.00    +0.139 C 
ATOM      7  C   UNL     1      -1.755   3.821  -1.387  0.00  0.00    +0.303 C 
ATOM      8  O   UNL     1      -2.841   3.297  -1.540  0.00  0.00    -0.253 OA
ATOM      9  N   UNL     1      -1.657   5.164  -1.325  0.00  0.00    -0.294 N 
ATOM     10  H   UNL     1      -0.784   5.585  -1.276  0.00  0.00    +0.151 HD
ENDROOT
BRANCH   9  11
ATOM     11  C   UNL     1      -2.868   5.988  -1.332  0.00  0.00    +0.037 C 
ATOM     12  C   UNL     1      -3.738   5.625  -0.128  0.00  0.00    +0.029 C 
ATOM     13  C   UNL     1      -5.003   6.486  -0.135  0.00  0.00    -0.008 C 
ATOM     14  C   UNL     1      -4.615   7.964  -0.057  0.00  0.00    +0.007 C 
ATOM     15  C   UNL     1      -3.744   8.327  -1.262  0.00  0.00    -0.008 C 
ATOM     16  C   UNL     1      -2.479   7.466  -1.255  0.00  0.00    +0.029 C 
ATOM     17  C   UNL     1      -4.527   8.072  -2.552  0.00  0.00    +0.007 C 
ATOM     18  C   UNL     1      -4.915   6.594  -2.629  0.00  0.00    -0.008 C 
ATOM     19  C   UNL     1      -5.786   6.231  -1.425  0.00  0.00    +0.007 C 
ATOM     20  C   UNL     1      -3.650   5.733  -2.622  0.00  0.00    +0.029 C 
ENDBRANCH   9  11
BRANCH   1  25
ATOM     21  C   UNL     1       3.972  -0.167   2.142  0.00  0.00    +0.120 A 
ATOM     22  C   UNL     1       3.513   0.129   3.418  0.00  0.00    +0.045 A 
ATOM     23  C   UNL     1       2.382   0.905   3.581  0.00  0.00    +0.004 A 
ATOM     24  C   UNL     1       1.706   1.386   2.474  0.00  0.00    +0.004 A 
ATOM     25  C   UNL     1       2.162   1.092   1.202  0.00  0.00    -0.038 A 
ATOM     26  C   UNL     1       3.290   0.312   1.034  0.00  0.00    +0.049 A 
BRANCH  21  28
ATOM     27  C   UNL     1       5.732  -1.395   3.166  0.00  0.00    +0.277 C 
ATOM     28  O   UNL     1       5.084  -0.931   1.980  0.00  0.00    -0.495 OA
ENDBRANCH  21  28
ENDBRANCH   1  25
BRANCH   6  29
ATOM     29  O   UNL     1      -0.682   1.549   1.184  0.00  0.00    -0.390 OA
ATOM     30  H   UNL     1      -1.600   1.251   1.256  0.00  0.00    +0.210 HD
ENDBRANCH   6  29
TORSDOF 4
