REMARK  Name = ZINC12498132
REMARK  11 active torsions:
REMARK  status: ('A' for Active; 'I' for Inactive)
REMARK    1  A    between atoms: C_1  and  C_2
REMARK    2  A    between atoms: C_2  and  C_3
REMARK    3  A    between atoms: C_3  and  C_4
REMARK    4  A    between atoms: C_4  and  C_30
REMARK    5  A    between atoms: C_9  and  C_11
REMARK    6  A    between atoms: N_18  and  C_21
REMARK    7  A    between atoms: C_25  and  C_27
REMARK    8  A    between atoms: C_27  and  C_29
REMARK    9  A    between atoms: C_30  and  O_32
REMARK   10  A    between atoms: O_32  and  C_33
REMARK   11  A    between atoms: C_33  and  C_34
REMARK                            x       y       z     vdW  Elec       q    Type
REMARK                         _______ _______ _______ _____ _____    ______ ____
ROOT
ATOM      1  C   UNL     1      -1.394   8.652  -0.103  0.00  0.00    +0.044 C 
ATOM      2  C   UNL     1      -0.831   7.358   0.434  0.00  0.00    +0.086 C 
ATOM      3  C   UNL     1       0.559   7.380  -0.319  0.00  0.00    +0.078 C 
ATOM      4  C   UNL     1       1.023   8.759  -0.019  0.00  0.00    -0.020 C 
ATOM      5  C   UNL     1       1.040   6.043   0.030  0.00  0.00    +0.229 C 
ATOM      6  O   UNL     1       2.179   5.705   0.265  0.00  0.00    -0.275 OA
ATOM      7  N   UNL     1      -0.085   5.256   0.030  0.00  0.00    -0.210 N 
ATOM      8  C   UNL     1      -1.241   5.990   0.045  0.00  0.00    +0.229 C 
ATOM      9  O   UNL     1      -2.362   5.603  -0.208  0.00  0.00    -0.275 OA
ATOM     10  N   UNL     1      -0.225   9.574   0.021  0.00  0.00    +0.396 N 
ATOM     11  H   UNL     1      -0.278  10.084   0.910  0.00  0.00    -0.083 HD
ATOM     12  H   UNL     1      -0.228  10.244  -0.758  0.00  0.00    -0.083 HD
ENDROOT
BRANCH   7  13
ATOM     13  C   UNL     1      -0.053   3.854   0.022  0.00  0.00    +0.045 A 
ATOM     14  C   UNL     1      -1.240   3.132   0.030  0.00  0.00    +0.024 A 
ATOM     15  C   UNL     1      -1.216   1.750   0.017  0.00  0.00    +0.003 A 
ATOM     16  C   UNL     1      -0.013   1.076   0.008  0.00  0.00    +0.011 A 
ATOM     17  C   UNL     1       1.189   1.792   0.000  0.00  0.00    +0.019 A 
ATOM     18  C   UNL     1       1.162   3.189   0.008  0.00  0.00    +0.035 A 
BRANCH  17  19
ATOM     19  C   UNL     1       2.475   1.077  -0.015  0.00  0.00    +0.160 C 
ATOM     20  O   UNL     1       3.515   1.700  -0.021  0.00  0.00    -0.292 OA
ATOM     21  C   UNL     1       2.500  -0.430  -0.022  0.00  0.00    +0.091 C 
ENDBRANCH  17  19
ENDBRANCH   7  13
BRANCH   4  22
ATOM     22  C   UNL     1       1.714   8.782   1.320  0.00  0.00    -0.023 A 
ATOM     23  C   UNL     1       3.040   8.832   1.595  0.00  0.00    +0.009 A 
ATOM     24  C   UNL     1       3.450   8.845   2.915  0.00  0.00    +0.008 A 
ATOM     25  C   UNL     1       2.515   8.809   3.895  0.00  0.00    +0.045 A 
ATOM     26  S   UNL     1       0.998   8.760   2.955  0.00  0.00    -0.103 S 
ENDBRANCH   4  22
BRANCH   1  27
ATOM     27  C   UNL     1      -1.811   8.498  -1.543  0.00  0.00    +0.297 C 
ATOM     28  O   UNL     1      -2.104   7.408  -1.974  0.00  0.00    -0.252 OA
BRANCH  27  29
ATOM     29  O   UNL     1      -1.856   9.572  -2.347  0.00  0.00    -0.466 OA
BRANCH  29  30
ATOM     30  C   UNL     1      -2.266   9.349  -3.722  0.00  0.00    +0.228 C 
ATOM     31  C   UNL     1      -2.258  10.678  -4.479  0.00  0.00    +0.048 C 
ENDBRANCH  29  30
ENDBRANCH  27  29
ENDBRANCH   1  27
BRANCH   1  32
ATOM     32  C   UNL     1      -2.569   9.130   0.752  0.00  0.00    -0.001 C 
BRANCH  32  34
ATOM     33  C   UNL     1      -4.289  10.919   1.038  0.00  0.00    +0.004 C 
ATOM     34  C   UNL     1      -3.115  10.441   0.182  0.00  0.00    -0.004 C 
ENDBRANCH  32  34
ENDBRANCH   1  32
TORSDOF 8
