REMARK  Name = ZINC09647777
REMARK  4 active torsions:
REMARK  status: ('A' for Active; 'I' for Inactive)
REMARK    1  A    between atoms: C_1  and  C_2
REMARK    2  A    between atoms: N_11  and  C_15
REMARK    3  A    between atoms: C_15  and  C_16
REMARK    4  A    between atoms: C_21  and  C_24
REMARK                            x       y       z     vdW  Elec       q    Type
REMARK                         _______ _______ _______ _____ _____    ______ ____
ROOT
ATOM      1  C   UNL     1      -3.260  -1.886   2.395  0.00  0.00    +0.237 C 
ATOM      2  O   UNL     1      -2.349  -2.223   1.669  0.00  0.00    -0.274 OA
ATOM      3  N   UNL     1      -4.237  -2.763   2.700  0.00  0.00    -0.263 N 
ATOM      4  C   UNL     1      -4.200  -4.053   2.184  0.00  0.00    +0.165 A 
ATOM      5  N   UNL     1      -5.046  -5.050   2.365  0.00  0.00    -0.225 NA
ATOM      6  C   UNL     1      -4.856  -6.226   1.786  0.00  0.00    +0.080 A 
ATOM      7  C   UNL     1      -3.758  -6.415   0.995  0.00  0.00    +0.076 A 
ATOM      8  S   UNL     1      -2.989  -4.804   1.105  0.00  0.00    -0.060 S 
ATOM      9  H   UNL     1      -4.966  -2.494   3.281  0.00  0.00    +0.157 HD
ENDROOT
BRANCH   6  10
ATOM     10  C   UNL     1      -5.824  -7.330   2.000  0.00  0.00    +0.001 A 
ATOM     11  C   UNL     1      -5.568  -8.598   1.481  0.00  0.00    +0.010 A 
ATOM     12  C   UNL     1      -6.476  -9.613   1.685  0.00  0.00    +0.004 A 
ATOM     13  C   UNL     1      -7.645  -9.387   2.404  0.00  0.00    -0.044 A 
ATOM     14  C   UNL     1      -7.900  -8.136   2.923  0.00  0.00    -0.044 A 
ATOM     15  C   UNL     1      -6.990  -7.109   2.725  0.00  0.00    +0.014 A 
ATOM     16  C   UNL     1      -9.141  -7.827   3.719  0.00  0.00    +0.035 C 
ATOM     17  C   UNL     1     -10.210  -8.892   3.483  0.00  0.00    +0.005 C 
ATOM     18  C   UNL     1      -9.578 -10.270   3.710  0.00  0.00    +0.005 C 
ATOM     19  C   UNL     1      -8.595 -10.543   2.573  0.00  0.00    +0.035 C 
ENDBRANCH   6  10
BRANCH   1  20
ATOM     20  C   UNL     1      -3.301  -0.488   2.955  0.00  0.00    +0.214 C 
BRANCH  20  30
ATOM     21  C   UNL     1      -1.536   3.561   2.539  0.00  0.00    +0.010 C 
ATOM     22  C   UNL     1      -0.790   3.101   1.286  0.00  0.00    +0.018 C 
ATOM     23  C   UNL     1      -1.527   3.600   0.040  0.00  0.00    +0.006 C 
ATOM     24  C   UNL     1      -0.790   3.122  -1.213  0.00  0.00    +0.000 C 
ATOM     25  C   UNL     1      -0.753   1.593  -1.233  0.00  0.00    +0.003 C 
ATOM     26  C   UNL     1      -0.013   1.086   0.008  0.00  0.00    +0.035 C 
ATOM     27  C   UNL     1      -0.726   1.577   1.263  0.00  0.00    +0.115 C 
ATOM     28  C   UNL     1      -2.117   0.991   1.342  0.00  0.00    +0.247 C 
ATOM     29  O   UNL     1      -3.023   1.142   0.552  0.00  0.00    -0.273 OA
ATOM     30  N   UNL     1      -2.136   0.263   2.478  0.00  0.00    -0.215 N 
ATOM     31  C   UNL     1      -0.960   0.312   3.115  0.00  0.00    +0.310 C 
ATOM     32  O   UNL     1      -0.734  -0.264   4.161  0.00  0.00    -0.252 OA
ATOM     33  N   UNL     1      -0.056   1.072   2.468  0.00  0.00    -0.285 N 
ATOM     34  H   UNL     1       0.857   1.250   2.743  0.00  0.00    +0.151 HD
ENDBRANCH  20  30
ENDBRANCH   1  20
TORSDOF 3
