REMARK  Name = ZINC67462915
REMARK  4 active torsions:
REMARK  status: ('A' for Active; 'I' for Inactive)
REMARK    1  A    between atoms: C_6  and  C_7
REMARK    2  A    between atoms: C_7  and  C_9
REMARK    3  A    between atoms: C_7  and  O_27
REMARK    4  A    between atoms: N_17  and  C_18
REMARK                            x       y       z     vdW  Elec       q    Type
REMARK                         _______ _______ _______ _____ _____    ______ ____
ROOT
ATOM      1  C   UNL     1      -1.648  -1.153   1.449  0.00  0.00    +0.025 C 
ATOM      2  C   UNL     1      -0.535  -2.015   2.049  0.00  0.00    +0.025 C 
ATOM      3  C   UNL     1      -0.886  -2.360   3.499  0.00  0.00    +0.109 C 
ATOM      4  N   UNL     1      -2.215  -2.986   3.527  0.00  0.00    -0.286 N 
ATOM      5  C   UNL     1      -3.341  -2.283   2.897  0.00  0.00    +0.109 C 
ATOM      6  C   UNL     1      -2.962  -1.938   1.454  0.00  0.00    +0.025 C 
ATOM      7  C   UNL     1      -2.398  -4.183   4.119  0.00  0.00    +0.303 C 
ATOM      8  O   UNL     1      -1.444  -4.800   4.551  0.00  0.00    -0.253 OA
ATOM      9  N   UNL     1      -3.639  -4.697   4.230  0.00  0.00    -0.288 N 
ATOM     10  H   UNL     1      -4.392  -4.241   3.821  0.00  0.00    +0.151 HD
ENDROOT
BRANCH   9  11
ATOM     11  C   UNL     1      -3.852  -5.945   4.968  0.00  0.00    +0.160 C 
ATOM     12  C   UNL     1      -5.295  -6.002   5.476  0.00  0.00    +0.032 C 
ATOM     13  C   UNL     1      -5.401  -6.904   6.693  0.00  0.00    +0.004 C 
ATOM     14  C   UNL     1      -5.135  -8.368   6.395  0.00  0.00    +0.019 C 
ATOM     15  C   UNL     1      -3.674  -8.588   5.997  0.00  0.00    +0.104 C 
ATOM     16  N   UNL     1      -3.541  -8.360   4.549  0.00  0.00    -0.314 N 
ATOM     17  C   UNL     1      -3.614  -7.126   4.051  0.00  0.00    +0.233 C 
ATOM     18  O   UNL     1      -3.494  -6.949   2.857  0.00  0.00    -0.274 OA
ATOM     19  H   UNL     1      -3.395  -9.112   3.954  0.00  0.00    +0.149 HD
ENDBRANCH   9  11
BRANCH   1  20
ATOM     20  C   UNL     1      -1.284  -0.777   0.012  0.00  0.00    +0.148 C 
BRANCH  20  26
ATOM     21  C   UNL     1      -0.011   1.379   0.013  0.00  0.00    +0.007 A 
ATOM     22  C   UNL     1       1.175   2.088   0.010  0.00  0.00    +0.020 A 
ATOM     23  C   UNL     1       2.383   1.415  -0.000  0.00  0.00    +0.041 A 
ATOM     24  C   UNL     1       2.404   0.032  -0.007  0.00  0.00    +0.020 A 
ATOM     25  C   UNL     1       1.217  -0.677  -0.003  0.00  0.00    +0.007 A 
ATOM     26  C   UNL     1       0.010  -0.003   0.007  0.00  0.00    -0.019 A 
ATOM     27 CL   UNL     1       3.873   2.306  -0.006  0.00  0.00    -0.084 Cl
ENDBRANCH  20  26
BRANCH  20  28
ATOM     28  O   UNL     1      -1.131  -1.965  -0.767  0.00  0.00    -0.387 OA
ATOM     29  H   UNL     1      -0.441  -2.561  -0.445  0.00  0.00    +0.210 HD
ENDBRANCH  20  28
ENDBRANCH   1  20
TORSDOF 4
