REMARK  Name = ZINC36940907
REMARK  9 active torsions:
REMARK  status: ('A' for Active; 'I' for Inactive)
REMARK    1  A    between atoms: C_1  and  C_2
REMARK    2  A    between atoms: C_2  and  C_3
REMARK    3  A    between atoms: C_3  and  C_5
REMARK    4  A    between atoms: C_3  and  N_13
REMARK    5  A    between atoms: C_10  and  O_11
REMARK    6  A    between atoms: N_13  and  C_14
REMARK    7  A    between atoms: C_19  and  N_20
REMARK    8  A    between atoms: N_20  and  C_21
REMARK    9  A    between atoms: N_20  and  C_22
REMARK                            x       y       z     vdW  Elec       q    Type
REMARK                         _______ _______ _______ _____ _____    ______ ____
ROOT
ATOM      1  C   UNL     1       0.718  -0.497  -1.257  0.00  0.00    +0.104 C 
ENDROOT
BRANCH   1   2
ATOM      2  C   UNL     1       1.104  -1.934  -1.501  0.00  0.00    +0.015 A 
ATOM      3  C   UNL     1       0.343  -2.720  -2.345  0.00  0.00    +0.024 A 
ATOM      4  C   UNL     1       0.697  -4.038  -2.570  0.00  0.00    +0.018 A 
ATOM      5  C   UNL     1       1.813  -4.572  -1.951  0.00  0.00    +0.019 A 
ATOM      6  C   UNL     1       2.577  -3.789  -1.107  0.00  0.00    +0.047 A 
ATOM      7  C   UNL     1       2.227  -2.465  -0.884  0.00  0.00    +0.122 A 
ATOM      8 BR   UNL     1      -0.347  -5.112  -3.724  0.00  0.00    -0.050 Br
BRANCH   7   9
ATOM      9  O   UNL     1       2.980  -1.692  -0.059  0.00  0.00    -0.506 OA
ATOM     10  H   UNL     1       2.702  -1.718   0.867  0.00  0.00    +0.292 HD
ENDBRANCH   7   9
ENDBRANCH   1   2
BRANCH   1  12
ATOM     11  C   UNL     1      -0.447   1.057   0.314  0.00  0.00    +0.006 C 
ATOM     12  C   UNL     1      -0.158  -0.411  -0.005  0.00  0.00    +0.024 C 
ENDBRANCH   1  12
BRANCH   1  13
ATOM     13  N   UNL     1      -0.027   0.011  -2.411  0.00  0.00    -0.334 N 
ATOM     14  H   UNL     1      -0.721  -0.531  -2.817  0.00  0.00    +0.147 HD
BRANCH  13  15
ATOM     15  C   UNL     1       0.263   1.280  -2.928  0.00  0.00    +0.065 A 
ATOM     16  C   UNL     1       1.256   2.061  -2.360  0.00  0.00    +0.107 A 
ATOM     17  N   UNL     1       1.533   3.257  -2.844  0.00  0.00    -0.365 N 
ATOM     18  C   UNL     1       0.885   3.760  -3.878  0.00  0.00    +0.084 A 
ATOM     19  C   UNL     1      -0.119   3.047  -4.502  0.00  0.00    +0.042 A 
ATOM     20  C   UNL     1      -0.442   1.777  -4.030  0.00  0.00    +0.053 A 
ATOM     21  H   UNL     1       2.234   3.783  -2.427  0.00  0.00    +0.165 HD
BRANCH  20  22
ATOM     22  N   UNL     1      -1.447   1.022  -4.637  0.00  0.00    -0.335 N 
ATOM     23  C   UNL     1      -1.116   0.112  -5.736  0.00  0.00    +0.129 C 
ATOM     24  C   UNL     1      -2.832   1.140  -4.175  0.00  0.00    +0.129 C 
ENDBRANCH  20  22
ENDBRANCH  13  15
ENDBRANCH   1  13
TORSDOF 6
