REMARK  Name = ZINC18088254
REMARK  8 active torsions:
REMARK  status: ('A' for Active; 'I' for Inactive)
REMARK    1  A    between atoms: C_1  and  C_2
REMARK    2  A    between atoms: C_8  and  C_12
REMARK    3  A    between atoms: C_12  and  C_13
REMARK    4  A    between atoms: C_13  and  N_57
REMARK    5  A    between atoms: C_14  and  N_57
REMARK    6  A    between atoms: N_19  and  C_22
REMARK    7  A    between atoms: C_25  and  O_28
REMARK    8  A    between atoms: O_28  and  C_29
REMARK                            x       y       z     vdW  Elec       q    Type
REMARK                         _______ _______ _______ _____ _____    ______ ____
ROOT
ATOM      1  C   UNL     1       8.629  -4.394  -0.311  0.00  0.00    +0.026 C 
ATOM      2  C   UNL     1       8.014  -5.793  -0.520  0.00  0.00    +0.090 C 
ATOM      3  C   UNL     1       6.523  -5.534  -0.487  0.00  0.00    +0.225 C 
ATOM      4  O   UNL     1       5.661  -6.378  -0.610  0.00  0.00    -0.275 OA
ATOM      5  N   UNL     1       6.308  -4.226  -0.303  0.00  0.00    -0.212 N 
ATOM      6  C   UNL     1       7.421  -3.491  -0.187  0.00  0.00    +0.213 C 
ATOM      7  O   UNL     1       7.456  -2.292  -0.012  0.00  0.00    -0.277 OA
ENDROOT
BRANCH   5   8
ATOM      8  C   UNL     1       5.021  -3.671  -0.230  0.00  0.00    +0.044 A 
ATOM      9  C   UNL     1       4.127  -3.851  -1.278  0.00  0.00    +0.027 A 
ATOM     10  C   UNL     1       2.861  -3.304  -1.207  0.00  0.00    +0.048 A 
ATOM     11  C   UNL     1       2.482  -2.575  -0.089  0.00  0.00    +0.129 A 
ATOM     12  C   UNL     1       3.377  -2.391   0.956  0.00  0.00    +0.048 A 
ATOM     13  C   UNL     1       4.641  -2.942   0.888  0.00  0.00    +0.027 A 
BRANCH  11  14
ATOM     14  O   UNL     1       1.236  -2.037  -0.019  0.00  0.00    -0.456 OA
BRANCH  14  15
ATOM     15  C   UNL     1       0.950  -1.224   1.031  0.00  0.00    +0.128 A 
ATOM     16  C   UNL     1       1.571   0.012   1.142  0.00  0.00    +0.046 A 
ATOM     17  C   UNL     1       1.278   0.838   2.210  0.00  0.00    +0.004 A 
ATOM     18  C   UNL     1       0.367   0.433   3.169  0.00  0.00    +0.000 A 
ATOM     19  C   UNL     1      -0.253  -0.798   3.061  0.00  0.00    +0.004 A 
ATOM     20  C   UNL     1       0.036  -1.627   1.994  0.00  0.00    +0.046 A 
ENDBRANCH  14  15
ENDBRANCH  11  14
ENDBRANCH   5   8
BRANCH   1  21
ATOM     21  N   UNL     1       9.446  -4.012  -1.478  0.00  0.00    +0.387 N 
ATOM     22  H   UNL     1       9.962  -4.834  -1.814  0.00  0.00    -0.085 HD
ATOM     23  H   UNL     1       8.831  -3.666  -2.224  0.00  0.00    -0.085 HD
BRANCH  21  24
ATOM     24  C   UNL     1      10.405  -2.954  -1.107  0.00  0.00    -0.077 C 
BRANCH  24  25
ATOM     25  C   UNL     1      11.237  -2.579  -2.335  0.00  0.00    +0.018 C 
BRANCH  25  33
ATOM     26  C   UNL     1      16.303  -3.863   0.011  0.00  0.00    +0.044 C 
ATOM     27  C   UNL     1      15.514  -2.653  -0.418  0.00  0.00    -0.050 A 
ATOM     28  C   UNL     1      16.056  -1.385  -0.256  0.00  0.00    +0.005 A 
ATOM     29  C   UNL     1      15.355  -0.266  -0.648  0.00  0.00    +0.026 A 
ATOM     30  C   UNL     1      14.087  -0.404  -1.202  0.00  0.00    +0.047 A 
ATOM     31  C   UNL     1      13.541  -1.691  -1.362  0.00  0.00    +0.003 A 
ATOM     32  C   UNL     1      14.272  -2.812  -0.964  0.00  0.00    +0.013 A 
ATOM     33  C   UNL     1      12.220  -1.498  -1.964  0.00  0.00    -0.024 A 
ATOM     34  C   UNL     1      12.048  -0.176  -2.118  0.00  0.00    +0.087 A 
ATOM     35  N   UNL     1      13.153   0.494  -1.668  0.00  0.00    -0.360 N 
ATOM     36  H   UNL     1      13.262   1.458  -1.677  0.00  0.00    +0.165 HD
ENDBRANCH  25  33
ENDBRANCH  24  25
ENDBRANCH  21  24
ENDBRANCH   1  21
TORSDOF 7
