REMARK  Name = ZINC59147742
REMARK  9 active torsions:
REMARK  status: ('A' for Active; 'I' for Inactive)
REMARK    1  A    between atoms: C_4  and  N_7
REMARK    2  A    between atoms: N_7  and  C_8
REMARK    3  A    between atoms: C_8  and  N_10
REMARK    4  A    between atoms: N_10  and  N_11
REMARK    5  A    between atoms: C_12  and  C_13
REMARK    6  A    between atoms: C_16  and  O_20
REMARK    7  A    between atoms: O_20  and  C_21
REMARK    8  A    between atoms: C_21  and  C_22
REMARK    9  A    between atoms: C_27  and  C_28
REMARK                            x       y       z     vdW  Elec       q    Type
REMARK                         _______ _______ _______ _____ _____    ______ ____
ROOT
ATOM      1  C   UNL     1       8.420  -1.786   0.210  0.00  0.00    -0.004 A 
ATOM      2  C   UNL     1       8.398  -0.392   0.118  0.00  0.00    +0.013 A 
ATOM      3  C   UNL     1       9.581   0.315   0.111  0.00  0.00    +0.047 A 
ATOM      4  C   UNL     1      10.794  -0.356   0.195  0.00  0.00    +0.134 A 
ATOM      5  C   UNL     1      10.821  -1.742   0.286  0.00  0.00    +0.056 A 
ATOM      6  C   UNL     1       9.642  -2.457   0.300  0.00  0.00    +0.027 A 
ATOM      7  I   UNL     1      12.655  -2.747   0.410  0.00  0.00    -0.040 I 
ENDROOT
BRANCH   1   9
ATOM      8  N   UNL     1       6.022  -1.921   0.136  0.00  0.00    -0.188 NA
ATOM      9  C   UNL     1       7.157  -2.547   0.219  0.00  0.00    +0.138 C 
BRANCH   8  10
ATOM     10  N   UNL     1       4.822  -2.644   0.144  0.00  0.00    -0.218 N 
ATOM     11  H   UNL     1       4.839  -3.611   0.212  0.00  0.00    +0.176 HD
BRANCH  10  12
ATOM     12  C   UNL     1       3.644  -1.994   0.058  0.00  0.00    +0.154 C 
ATOM     13  S   UNL     1       2.178  -2.877   0.068  0.00  0.00    -0.017 S 
BRANCH  12  14
ATOM     14  N   UNL     1       3.621  -0.650  -0.036  0.00  0.00    -0.296 N 
ATOM     15  H   UNL     1       4.451  -0.156  -0.123  0.00  0.00    +0.154 HD
BRANCH  14  19
ATOM     16  C   UNL     1      -0.014   1.382   0.045  0.00  0.00    +0.000 A 
ATOM     17  C   UNL     1       0.205   0.325   0.910  0.00  0.00    +0.002 A 
ATOM     18  C   UNL     1       1.409  -0.350   0.885  0.00  0.00    +0.023 A 
ATOM     19  C   UNL     1       2.400   0.032  -0.009  0.00  0.00    +0.033 A 
ATOM     20  C   UNL     1       2.177   1.093  -0.877  0.00  0.00    +0.023 A 
ATOM     21  C   UNL     1       0.970   1.765  -0.847  0.00  0.00    +0.002 A 
ENDBRANCH  14  19
ENDBRANCH  12  14
ENDBRANCH  10  12
ENDBRANCH   8  10
ENDBRANCH   1   9
BRANCH   4  22
ATOM     22  O   UNL     1      11.958   0.344   0.187  0.00  0.00    -0.486 OA
BRANCH  22  23
ATOM     23  C   UNL     1      11.858   1.767   0.091  0.00  0.00    +0.265 C 
BRANCH  23  24
ATOM     24  C   UNL     1      13.240   2.369   0.097  0.00  0.00    +0.007 A 
ATOM     25  C   UNL     1      14.349   1.553   0.181  0.00  0.00    +0.008 A 
ATOM     26  C   UNL     1      15.618   2.104   0.187  0.00  0.00    +0.000 A 
ATOM     27  C   UNL     1      15.784   3.476   0.109  0.00  0.00    +0.001 A 
ATOM     28  C   UNL     1      14.684   4.303   0.025  0.00  0.00    +0.019 A 
ATOM     29  C   UNL     1      13.400   3.753   0.012  0.00  0.00    +0.058 A 
BRANCH  29  30
ATOM     30  C   UNL     1      12.253   4.606  -0.082  0.00  0.00    +0.100 C 
ATOM     31  N   UNL     1      11.343   5.282  -0.156  0.00  0.00    -0.191 NA
ENDBRANCH  29  30
ENDBRANCH  23  24
ENDBRANCH  22  23
ENDBRANCH   4  22
TORSDOF 9
