REMARK  Name = ZINC60343185
REMARK  12 active torsions:
REMARK  status: ('A' for Active; 'I' for Inactive)
REMARK    1  A    between atoms: C_1  and  C_2
REMARK    2  A    between atoms: C_2  and  C_4
REMARK    3  A    between atoms: C_2  and  N_14
REMARK    4  A    between atoms: N_6  and  C_7
REMARK    5  A    between atoms: C_18  and  C_21
REMARK    6  A    between atoms: C_21  and  N_22
REMARK    7  A    between atoms: N_22  and  C_23
REMARK    8  A    between atoms: C_24  and  O_26
REMARK    9  A    between atoms: O_26  and  C_27
REMARK   10  A    between atoms: C_27  and  C_28
REMARK   11  A    between atoms: C_27  and  C_29
REMARK   12  A    between atoms: C_27  and  C_30
REMARK                            x       y       z     vdW  Elec       q    Type
REMARK                         _______ _______ _______ _____ _____    ______ ____
ROOT
ATOM      1  N   UNL     1       0.527  -0.650   1.213  0.00  0.00    +0.387 N 
ATOM      2  C   UNL     1       0.479  -2.106   1.033  0.00  0.00    -0.078 C 
ATOM      3  C   UNL     1       1.160  -2.793   2.218  0.00  0.00    -0.018 C 
ATOM      4  C   UNL     1       0.431  -2.413   3.510  0.00  0.00    +0.001 C 
ATOM      5  C   UNL     1       0.424  -0.888   3.650  0.00  0.00    -0.010 C 
ATOM      6  C   UNL     1      -0.231  -0.271   2.412  0.00  0.00    -0.073 C 
ATOM      7  H   UNL     1       1.488  -0.358   1.317  0.00  0.00    -0.081 HD
ENDROOT
BRANCH   1   9
ATOM      8  C   UNL     1      -0.125   1.517   0.278  0.00  0.00    -0.004 C 
ATOM      9  C   UNL     1      -0.058   0.008   0.037  0.00  0.00    +0.016 C 
BRANCH   9  10
ATOM     10  C   UNL     1       0.797  -0.271  -1.172  0.00  0.00    +0.203 C 
ATOM     11  O   UNL     1       1.907  -0.740  -1.034  0.00  0.00    -0.277 OA
ATOM     12  N   UNL     1       0.329   0.001  -2.406  0.00  0.00    -0.287 N 
ATOM     13  H   UNL     1      -0.527   0.446  -2.513  0.00  0.00    +0.155 HD
BRANCH  12  14
ATOM     14  C   UNL     1       1.076  -0.357  -3.533  0.00  0.00    +0.033 A 
ATOM     15  C   UNL     1       0.433  -0.773  -4.692  0.00  0.00    +0.024 A 
ATOM     16  C   UNL     1       1.173  -1.126  -5.803  0.00  0.00    +0.017 A 
ATOM     17  C   UNL     1       2.555  -1.066  -5.763  0.00  0.00    +0.018 A 
ATOM     18  C   UNL     1       3.199  -0.653  -4.610  0.00  0.00    +0.017 A 
ATOM     19  C   UNL     1       2.463  -0.293  -3.497  0.00  0.00    +0.024 A 
ATOM     20 BR   UNL     1       3.565  -1.550  -7.286  0.00  0.00    -0.050 Br
ENDBRANCH  12  14
ENDBRANCH   9  10
ENDBRANCH   1   9
BRANCH   5  21
ATOM     21  C   UNL     1      -0.369  -0.493   4.898  0.00  0.00    +0.112 C 
BRANCH  21  22
ATOM     22  N   UNL     1       0.322  -0.988   6.091  0.00  0.00    -0.270 N 
ATOM     23  C   UNL     1       1.320  -0.151   6.760  0.00  0.00    +0.135 C 
ATOM     24  C   UNL     1       0.038  -2.214   6.574  0.00  0.00    +0.403 C 
ATOM     25  O   UNL     1      -0.790  -2.909   6.019  0.00  0.00    -0.226 OA
BRANCH  24  26
ATOM     26  O   UNL     1       0.673  -2.669   7.671  0.00  0.00    -0.445 OA
BRANCH  26  27
ATOM     27  C   UNL     1       0.323  -3.977   8.127  0.00  0.00    +0.107 C 
ATOM     28  C   UNL     1       0.621  -4.998   7.027  0.00  0.00    +0.055 C 
ATOM     29  C   UNL     1       1.141  -4.318   9.375  0.00  0.00    +0.055 C 
ATOM     30  C   UNL     1      -1.168  -4.016   8.469  0.00  0.00    +0.055 C 
ENDBRANCH  26  27
ENDBRANCH  24  26
ENDBRANCH  21  22
ENDBRANCH   5  21
TORSDOF 7
