REMARK  Name = ZINC16649442
REMARK  10 active torsions:
REMARK  status: ('A' for Active; 'I' for Inactive)
REMARK    1  A    between atoms: C_1  and  C_2
REMARK    2  A    between atoms: C_5  and  C_8
REMARK    3  A    between atoms: C_8  and  N_9
REMARK    4  A    between atoms: N_9  and  C_10
REMARK    5  A    between atoms: C_10  and  C_11
REMARK    6  A    between atoms: C_11  and  C_12
REMARK    7  A    between atoms: C_22  and  C_24
REMARK    8  A    between atoms: C_24  and  N_25
REMARK    9  A    between atoms: N_25  and  C_26
REMARK   10  A    between atoms: N_31  and  C_32
REMARK                            x       y       z     vdW  Elec       q    Type
REMARK                         _______ _______ _______ _____ _____    ______ ____
ROOT
ATOM      1  N   UNL     1       1.087  -2.771  -1.349  0.00  0.00    -0.296 N 
ATOM      2  C   UNL     1      -0.120  -2.812  -1.946  0.00  0.00    +0.233 C 
ATOM      3  O   UNL     1      -0.219  -3.207  -3.088  0.00  0.00    -0.274 OA
ENDROOT
BRANCH   1   4
ATOM      4  C   UNL     1       1.194  -2.385   0.061  0.00  0.00    +0.143 C 
BRANCH   4   9
ATOM      5  C   UNL     1       2.288   3.277   0.431  0.00  0.00    +0.044 C 
ATOM      6  C   UNL     1       2.003   1.800   0.334  0.00  0.00    -0.050 A 
ATOM      7  C   UNL     1       0.704   1.339   0.440  0.00  0.00    +0.003 A 
ATOM      8  C   UNL     1       0.443  -0.016   0.351  0.00  0.00    +0.005 A 
ATOM      9  C   UNL     1       1.480  -0.909   0.157  0.00  0.00    -0.030 A 
ATOM     10  C   UNL     1       2.779  -0.447   0.051  0.00  0.00    +0.005 A 
ATOM     11  C   UNL     1       3.040   0.907   0.139  0.00  0.00    +0.003 A 
ENDBRANCH   4   9
ENDBRANCH   1   4
BRANCH   1  12
ATOM     12  C   UNL     1       2.292  -3.113  -2.108  0.00  0.00    +0.113 C 
BRANCH  12  13
ATOM     13  C   UNL     1       2.566  -4.613  -1.983  0.00  0.00    +0.056 C 
BRANCH  13  14
ATOM     14  C   UNL     1       3.805  -4.965  -2.765  0.00  0.00    -0.021 A 
ATOM     15  C   UNL     1       3.850  -5.429  -4.024  0.00  0.00    +0.087 A 
ATOM     16  N   UNL     1       5.151  -5.632  -4.399  0.00  0.00    -0.360 N 
ATOM     17  H   UNL     1       5.435  -5.962  -5.266  0.00  0.00    +0.165 HD
ATOM     18  C   UNL     1       5.994  -5.303  -3.362  0.00  0.00    +0.047 A 
ATOM     19  C   UNL     1       5.189  -4.871  -2.293  0.00  0.00    +0.003 A 
ATOM     20  C   UNL     1       5.780  -4.468  -1.094  0.00  0.00    +0.010 A 
ATOM     21  C   UNL     1       7.140  -4.497  -0.965  0.00  0.00    +0.001 A 
ATOM     22  C   UNL     1       7.939  -4.923  -2.017  0.00  0.00    +0.002 A 
ATOM     23  C   UNL     1       7.377  -5.324  -3.209  0.00  0.00    +0.026 A 
ENDBRANCH  13  14
ENDBRANCH  12  13
ENDBRANCH   1  12
BRANCH   2  24
ATOM     24  C   UNL     1      -1.348  -2.367  -1.194  0.00  0.00    +0.205 C 
BRANCH  24  25
ATOM     25  N   UNL     1      -2.527  -2.516  -2.052  0.00  0.00    -0.274 N 
ATOM     26  C   UNL     1      -2.918  -1.498  -2.843  0.00  0.00    +0.303 C 
ATOM     27  O   UNL     1      -2.242  -0.489  -2.914  0.00  0.00    -0.253 OA
ATOM     28  N   UNL     1      -4.058  -1.597  -3.555  0.00  0.00    -0.294 N 
ATOM     29  H   UNL     1      -4.633  -2.369  -3.444  0.00  0.00    +0.151 HD
BRANCH  28  30
ATOM     30  C   UNL     1      -4.427  -0.537  -4.497  0.00  0.00    +0.037 C 
ATOM     31  C   UNL     1      -4.576   0.786  -3.744  0.00  0.00    +0.029 C 
ATOM     32  C   UNL     1      -4.962   1.893  -4.727  0.00  0.00    -0.008 C 
ATOM     33  C   UNL     1      -6.289   1.537  -5.400  0.00  0.00    +0.007 C 
ATOM     34  C   UNL     1      -6.141   0.213  -6.153  0.00  0.00    -0.008 C 
ATOM     35  C   UNL     1      -5.754  -0.893  -5.170  0.00  0.00    +0.029 C 
ATOM     36  C   UNL     1      -5.050   0.353  -7.218  0.00  0.00    +0.007 C 
ATOM     37  C   UNL     1      -3.723   0.708  -6.545  0.00  0.00    -0.008 C 
ATOM     38  C   UNL     1      -3.872   2.032  -5.792  0.00  0.00    +0.007 C 
ATOM     39  C   UNL     1      -3.337  -0.398  -5.562  0.00  0.00    +0.029 C 
ENDBRANCH  28  30
BRANCH  25  40
ATOM     40  C   UNL     1      -3.280  -3.773  -2.049  0.00  0.00    +0.078 C 
ATOM     41  C   UNL     1      -2.994  -4.766  -0.921  0.00  0.00    +0.024 C 
ATOM     42  C   UNL     1      -2.508  -5.060  -2.342  0.00  0.00    +0.024 C 
ENDBRANCH  25  40
ENDBRANCH  24  25
ENDBRANCH   2  24
TORSDOF 9
