REMARK  Name = ZINC39595717
REMARK  10 active torsions:
REMARK  status: ('A' for Active; 'I' for Inactive)
REMARK    1  A    between atoms: C_1  and  C_2
REMARK    2  A    between atoms: C_2  and  O_3
REMARK    3  A    between atoms: O_3  and  C_4
REMARK    4  A    between atoms: C_7  and  C_10
REMARK    5  A    between atoms: C_14  and  C_23
REMARK    6  A    between atoms: N_25  and  C_26
REMARK    7  A    between atoms: C_26  and  C_27
REMARK    8  A    between atoms: C_27  and  C_29
REMARK    9  A    between atoms: C_27  and  O_30
REMARK   10  A    between atoms: O_30  and  C_31
REMARK                            x       y       z     vdW  Elec       q    Type
REMARK                         _______ _______ _______ _____ _____    ______ ____
ROOT
ATOM      1  C   UNL     1      -1.964  -5.975  -0.033  0.00  0.00    +0.247 C 
ATOM      2  O   UNL     1      -1.820  -4.769   0.017  0.00  0.00    -0.270 OA
ATOM      3  N   UNL     1      -3.200  -6.504  -0.114  0.00  0.00    -0.296 N 
ATOM      4  C   UNL     1      -4.490  -5.784  -0.232  0.00  0.00    +0.121 C 
ATOM      5  C   UNL     1      -5.320  -6.628  -1.224  0.00  0.00    +0.100 C 
ATOM      6  C   UNL     1      -4.718  -8.041  -1.137  0.00  0.00    -0.004 C 
ATOM      7  C   UNL     1      -3.578  -7.938  -0.113  0.00  0.00    +0.115 C 
ATOM      8  C   UNL     1      -5.771  -9.035  -0.658  0.00  0.00    -0.010 C 
ATOM      9  C   UNL     1      -5.165 -10.441  -0.634  0.00  0.00    -0.082 C 
ATOM     10  N   UNL     1      -4.702 -10.800  -1.980  0.00  0.00    +0.379 N 
ATOM     11  C   UNL     1      -3.624  -9.894  -2.396  0.00  0.00    -0.082 C 
ATOM     12  C   UNL     1      -4.165  -8.465  -2.494  0.00  0.00    -0.010 C 
ATOM     13  H   UNL     1      -4.359 -11.748  -1.975  0.00  0.00    -0.086 HD
ATOM     14  H   UNL     1      -5.471 -10.726  -2.630  0.00  0.00    -0.086 HD
ENDROOT
BRANCH   1  18
ATOM     15  C   UNL     1       1.433  -8.523   0.052  0.00  0.00    +0.121 A 
ATOM     16  C   UNL     1       0.247  -8.928   0.654  0.00  0.00    +0.046 A 
ATOM     17  C   UNL     1      -0.856  -8.105   0.629  0.00  0.00    +0.016 A 
ATOM     18  C   UNL     1      -0.783  -6.861  -0.003  0.00  0.00    +0.037 A 
ATOM     19  C   UNL     1       0.411  -6.457  -0.607  0.00  0.00    +0.016 A 
ATOM     20  C   UNL     1       1.511  -7.284  -0.574  0.00  0.00    +0.046 A 
BRANCH  15  21
ATOM     21  O   UNL     1       2.518  -9.338   0.078  0.00  0.00    -0.492 OA
BRANCH  21  23
ATOM     22  C   UNL     1       3.687 -11.370   0.666  0.00  0.00    +0.048 C 
ATOM     23  C   UNL     1       2.369 -10.597   0.737  0.00  0.00    +0.225 C 
ENDBRANCH  21  23
ENDBRANCH  15  21
ENDBRANCH   1  18
BRANCH   5  24
ATOM     24  C   UNL     1      -5.181  -6.082  -2.622  0.00  0.00    +0.218 C 
ATOM     25  O   UNL     1      -4.129  -5.598  -2.982  0.00  0.00    -0.275 OA
ATOM     26  N   UNL     1      -6.226  -6.131  -3.472  0.00  0.00    -0.312 N 
ATOM     27  H   UNL     1      -7.067  -6.518  -3.184  0.00  0.00    +0.149 HD
BRANCH  26  28
ATOM     28  C   UNL     1      -6.090  -5.600  -4.831  0.00  0.00    +0.148 C 
BRANCH  28  29
ATOM     29  C   UNL     1      -7.411  -5.778  -5.582  0.00  0.00    +0.187 C 
ATOM     30  C   UNL     1      -7.234  -5.339  -7.037  0.00  0.00    +0.053 C 
BRANCH  29  31
ATOM     31  O   UNL     1      -8.422  -4.980  -4.963  0.00  0.00    -0.488 OA
BRANCH  31  32
ATOM     32  C   UNL     1      -9.712  -5.371  -5.141  0.00  0.00    +0.121 A 
ATOM     33  C   UNL     1      -9.993  -6.553  -5.810  0.00  0.00    +0.048 A 
ATOM     34  C   UNL     1     -11.305  -6.949  -5.990  0.00  0.00    +0.042 A 
ATOM     35  C   UNL     1     -12.338  -6.166  -5.504  0.00  0.00    +0.124 A 
ATOM     36  C   UNL     1     -12.059  -4.985  -4.837  0.00  0.00    +0.042 A 
ATOM     37  C   UNL     1     -10.748  -4.590  -4.649  0.00  0.00    +0.048 A 
ATOM     38  F   UNL     1     -13.620  -6.554  -5.682  0.00  0.00    -0.205 F 
ENDBRANCH  31  32
ENDBRANCH  29  31
ENDBRANCH  28  29
ENDBRANCH  26  28
ENDBRANCH   5  24
TORSDOF 8
