REMARK  Name = ZINC15027650
REMARK  7 active torsions:
REMARK  status: ('A' for Active; 'I' for Inactive)
REMARK    1  A    between atoms: C_1  and  C_2
REMARK    2  A    between atoms: C_2  and  C_3
REMARK    3  A    between atoms: C_2  and  C_4
REMARK    4  A    between atoms: C_4  and  N_5
REMARK    5  A    between atoms: C_9  and  C_11
REMARK    6  A    between atoms: C_11  and  N_12
REMARK    7  A    between atoms: C_21  and  C_22
REMARK                            x       y       z     vdW  Elec       q    Type
REMARK                         _______ _______ _______ _____ _____    ______ ____
ROOT
ATOM      1  N   UNL     1      -0.289  -0.647   8.338  0.00  0.00    -0.278 NA
ATOM      2  C   UNL     1      -0.415  -2.094   8.536  0.00  0.00    +0.121 C 
ATOM      3  C   UNL     1       0.593  -2.578   9.546  0.00  0.00    -0.030 A 
ATOM      4  C   UNL     1       0.881  -3.934   9.594  0.00  0.00    +0.005 A 
ATOM      5  C   UNL     1       1.795  -4.421  10.506  0.00  0.00    +0.000 A 
ATOM      6  C   UNL     1       2.427  -3.554  11.378  0.00  0.00    +0.000 A 
ATOM      7  C   UNL     1       2.142  -2.204  11.331  0.00  0.00    +0.004 A 
ATOM      8  C   UNL     1       1.226  -1.713  10.413  0.00  0.00    -0.041 A 
ATOM      9  C   UNL     1       0.955  -0.231  10.390  0.00  0.00    +0.063 C 
ATOM     10  C   UNL     1      -0.343   0.051   9.632  0.00  0.00    +0.148 C 
ENDROOT
BRANCH  10  11
ATOM     11  C   UNL     1      -0.483   1.534   9.402  0.00  0.00    +0.228 C 
ATOM     12  O   UNL     1       0.057   2.053   8.448  0.00  0.00    -0.274 OA
ATOM     13  N   UNL     1      -1.209   2.283  10.256  0.00  0.00    -0.328 N 
ATOM     14  H   UNL     1      -1.641   1.867  11.019  0.00  0.00    +0.145 HD
ATOM     15  H   UNL     1      -1.299   3.237  10.108  0.00  0.00    +0.145 HD
ENDBRANCH  10  11
BRANCH   1  16
ATOM     16  C   UNL     1      -1.328  -0.148   7.427  0.00  0.00    +0.181 C 
BRANCH  16  21
ATOM     17  N   UNL     1      -2.363  -0.267   2.733  0.00  0.00    -0.299 N 
ATOM     18  C   UNL     1      -1.543  -0.614   3.745  0.00  0.00    +0.306 C 
ATOM     19  O   UNL     1      -0.546  -1.271   3.522  0.00  0.00    -0.252 OA
ATOM     20  N   UNL     1      -1.829  -0.230   5.006  0.00  0.00    -0.239 N 
ATOM     21  C   UNL     1      -1.008  -0.577   6.018  0.00  0.00    +0.234 C 
ATOM     22  O   UNL     1      -0.014  -1.233   5.794  0.00  0.00    -0.274 OA
ATOM     23  H   UNL     1      -3.159   0.258   2.912  0.00  0.00    +0.150 HD
ATOM     24  H   UNL     1      -2.624   0.294   5.184  0.00  0.00    +0.159 HD
BRANCH  17  25
ATOM     25  C   UNL     1      -2.053  -0.684   1.364  0.00  0.00    +0.108 C 
BRANCH  25  27
ATOM     26  C   UNL     1      -3.100   1.365   0.391  0.00  0.00    +0.009 C 
ATOM     27  C   UNL     1      -3.135  -0.164   0.415  0.00  0.00    -0.000 C 
ATOM     28  C   UNL     1      -2.879  -0.703  -0.994  0.00  0.00    +0.009 C 
ENDBRANCH  25  27
ENDBRANCH  17  25
ENDBRANCH  16  21
ENDBRANCH   1  16
TORSDOF 5
