REMARK  Name = ZINC20256986
REMARK  2 active torsions:
REMARK  status: ('A' for Active; 'I' for Inactive)
REMARK    1  A    between atoms: C_7  and  C_9
REMARK    2  A    between atoms: C_15  and  C_17
REMARK                            x       y       z     vdW  Elec       q    Type
REMARK                         _______ _______ _______ _____ _____    ______ ____
ROOT
ATOM      1  C   UNL     1       2.464   0.031   0.382  0.00  0.00    +0.093 C 
ATOM      2  C   UNL     1       1.268  -0.831  -0.029  0.00  0.00    +0.040 C 
ATOM      3  C   UNL     1       0.009  -0.015  -0.005  0.00  0.00    -0.030 C 
ATOM      4  C   UNL     1      -0.016   1.279   0.004  0.00  0.00    -0.030 C 
ATOM      5  C   UNL     1       1.210   2.144   0.002  0.00  0.00    +0.042 C 
ATOM      6  C   UNL     1       2.429   1.329  -0.435  0.00  0.00    +0.118 C 
ENDROOT
BRANCH   1  13
ATOM      7  C   UNL     1       3.548  -1.729   2.308  0.00  0.00    +0.118 C 
ATOM      8  C   UNL     1       5.023  -1.658   2.736  0.00  0.00    +0.088 C 
ATOM      9  S   UNL     1       5.095  -1.458   4.542  0.00  0.00    -0.158 S 
ATOM     10  C   UNL     1       4.040  -0.007   4.839  0.00  0.00    +0.088 C 
ATOM     11  C   UNL     1       2.674  -0.252   4.188  0.00  0.00    +0.118 C 
ATOM     12  N   UNL     1       2.856  -0.521   2.760  0.00  0.00    -0.300 N 
ATOM     13  C   UNL     1       2.376   0.350   1.852  0.00  0.00    +0.220 C 
ATOM     14  O   UNL     1       1.873   1.392   2.217  0.00  0.00    -0.275 OA
ENDBRANCH   1  13
BRANCH   6  15
ATOM     15  C   UNL     1       3.688   2.119  -0.185  0.00  0.00    +0.360 C 
ATOM     16  O   UNL     1       4.530   1.691   0.569  0.00  0.00    -0.246 OA
ATOM     17  O   UNL     1       3.875   3.297  -0.800  0.00  0.00    -0.246 OA
ENDBRANCH   6  15
TORSDOF 2
