REMARK  Name = ZINC02946149
REMARK  12 active torsions:
REMARK  status: ('A' for Active; 'I' for Inactive)
REMARK    1  A    between atoms: C_1  and  C_2
REMARK    2  A    between atoms: C_2  and  O_3
REMARK    3  A    between atoms: O_3  and  C_4
REMARK    4  A    between atoms: C_7  and  C_27
REMARK    5  A    between atoms: C_9  and  C_10
REMARK    6  A    between atoms: C_10  and  N_11
REMARK    7  A    between atoms: N_28  and  N_29
REMARK    8  A    between atoms: C_30  and  C_32
REMARK    9  A    between atoms: C_32  and  O_33
REMARK   10  A    between atoms: O_33  and  C_34
REMARK   11  A    between atoms: C_37  and  O_40
REMARK   12  A    between atoms: O_40  and  C_41
REMARK                            x       y       z     vdW  Elec       q    Type
REMARK                         _______ _______ _______ _____ _____    ______ ____
ROOT
ATOM      1  C   UNL     1      -4.271  -0.885   1.458  0.00  0.00    +0.122 A 
ATOM      2  C   UNL     1      -4.372  -2.260   1.625  0.00  0.00    +0.046 A 
ATOM      3  C   UNL     1      -4.604  -3.073   0.536  0.00  0.00    +0.013 A 
ATOM      4  C   UNL     1      -4.738  -2.511  -0.736  0.00  0.00    -0.005 A 
ATOM      5  C   UNL     1      -4.641  -1.127  -0.898  0.00  0.00    +0.014 A 
ATOM      6  C   UNL     1      -4.403  -0.322   0.195  0.00  0.00    -0.022 A 
ENDROOT
BRANCH   4   7
ATOM      7  C   UNL     1      -4.986  -3.376  -1.904  0.00  0.00    +0.138 C 
ATOM      8  N   UNL     1      -5.080  -4.662  -1.751  0.00  0.00    -0.188 NA
BRANCH   8   9
ATOM      9  N   UNL     1      -5.316  -5.484  -2.861  0.00  0.00    -0.204 N 
ATOM     10  C   UNL     1      -5.413  -6.819  -2.701  0.00  0.00    +0.270 C 
ATOM     11  O   UNL     1      -5.297  -7.308  -1.597  0.00  0.00    -0.270 OA
ATOM     12  H   UNL     1      -5.421  -5.040  -3.861  0.00  0.00    +0.177 HD
BRANCH  10  13
ATOM     13  C   UNL     1      -5.667  -7.703  -3.895  0.00  0.00    +0.326 C 
BRANCH  13  14
ATOM     14  O   UNL     1      -5.729  -9.067  -3.473  0.00  0.00    -0.483 OA
BRANCH  14  15
ATOM     15  C   UNL     1      -5.953 -10.002  -4.434  0.00  0.00    +0.121 A 
ATOM     16  C   UNL     1      -6.116  -9.612  -5.756  0.00  0.00    +0.049 A 
ATOM     17  C   UNL     1      -6.340 -10.562  -6.733  0.00  0.00    +0.049 A 
ATOM     18  C   UNL     1      -6.411 -11.904  -6.393  0.00  0.00    +0.120 A 
ATOM     19  C   UNL     1      -6.253 -12.293  -5.071  0.00  0.00    +0.049 A 
ATOM     20  C   UNL     1      -6.025 -11.344  -4.094  0.00  0.00    +0.049 A 
BRANCH  18  21
ATOM     21  O   UNL     1      -6.635 -12.839  -7.355  0.00  0.00    -0.495 OA
ATOM     22  C   UNL     1      -6.788 -12.367  -8.695  0.00  0.00    +0.277 C 
ENDBRANCH  18  21
ENDBRANCH  14  15
ENDBRANCH  13  14
ENDBRANCH  10  13
ENDBRANCH   8   9
ENDBRANCH   4   7
BRANCH   1  23
ATOM     23  O   UNL     1      -4.042  -0.087   2.534  0.00  0.00    -0.492 OA
BRANCH  23  25
ATOM     24  C   UNL     1      -3.663   0.320   4.886  0.00  0.00    +0.048 C 
ATOM     25  C   UNL     1      -3.916  -0.731   3.804  0.00  0.00    +0.225 C 
ENDBRANCH  23  25
ENDBRANCH   1  23
BRANCH   6  26
ATOM     26  C   UNL     1      -4.292   1.171   0.021  0.00  0.00    -0.039 C 
BRANCH  26  27
ATOM     27  N   UNL     1      -2.875   1.558   0.006  0.00  0.00    +0.383 N 
ATOM     28  C   UNL     1      -2.203   1.140   1.240  0.00  0.00    -0.073 C 
ATOM     29  C   UNL     1      -0.748   1.589   1.253  0.00  0.00    -0.007 C 
ATOM     30  C   UNL     1      -0.013   1.086   0.008  0.00  0.00    +0.011 C 
ATOM     31  C   UNL     1      -0.773   1.603  -1.219  0.00  0.00    +0.020 C 
ATOM     32  C   UNL     1      -2.194   1.016  -1.180  0.00  0.00    -0.069 C 
ATOM     33  C   UNL     1      -0.901   3.107  -1.127  0.00  0.00    +0.023 A 
ATOM     34  C   UNL     1      -1.021   3.795  -2.293  0.00  0.00    +0.022 A 
ATOM     35  C   UNL     1      -1.206   5.182  -2.285  0.00  0.00    +0.007 A 
ATOM     36  C   UNL     1      -1.283   5.829  -1.086  0.00  0.00    +0.070 A 
ATOM     37  C   UNL     1      -1.152   5.090   0.099  0.00  0.00    +0.251 A 
ATOM     38  O   UNL     1      -1.265   5.651   1.177  0.00  0.00    -0.268 OA
ATOM     39  N   UNL     1      -0.901   3.757   0.061  0.00  0.00    -0.312 N 
ATOM     40  C   UNL     1      -0.621   3.100   1.338  0.00  0.00    +0.126 C 
ATOM     41  H   UNL     1      -2.824   2.655  -0.047  0.00  0.00    -0.081 HD
ENDBRANCH  26  27
ENDBRANCH   6  26
TORSDOF 10
