REMARK  Name = ZINC38702131
REMARK  12 active torsions:
REMARK  status: ('A' for Active; 'I' for Inactive)
REMARK    1  A    between atoms: C_1  and  C_2
REMARK    2  A    between atoms: C_2  and  C_3
REMARK    3  A    between atoms: C_3  and  C_4
REMARK    4  A    between atoms: C_4  and  C_5
REMARK    5  A    between atoms: C_5  and  O_6
REMARK    6  A    between atoms: O_6  and  C_7
REMARK    7  A    between atoms: C_10  and  C_13
REMARK    8  A    between atoms: C_16  and  C_32
REMARK    9  A    between atoms: N_23  and  C_24
REMARK   10  A    between atoms: C_34  and  C_40
REMARK   11  A    between atoms: C_36  and  C_39
REMARK   12  A    between atoms: C_37  and  O_38
REMARK                            x       y       z     vdW  Elec       q    Type
REMARK                         _______ _______ _______ _____ _____    ______ ____
ROOT
ATOM      1  C   UNL     1       3.885  -6.516  -6.419  0.00  0.00    +0.142 C 
ATOM      2  C   UNL     1       5.347  -6.862  -6.344  0.00  0.00    +0.035 A 
ATOM      3  C   UNL     1       6.657  -6.412  -6.151  0.00  0.00    +0.102 A 
ATOM      4  N   UNL     1       7.453  -7.458  -6.252  0.00  0.00    -0.173 NA
ATOM      5  N   UNL     1       6.775  -8.525  -6.489  0.00  0.00    -0.272 N 
ATOM      6  H   UNL     1       7.152  -9.411  -6.600  0.00  0.00    +0.189 HD
ATOM      7  C   UNL     1       5.444  -8.224  -6.559  0.00  0.00    +0.126 A 
ATOM      8  C   UNL     1       4.096  -8.761  -6.770  0.00  0.00    +0.266 C 
ATOM      9  O   UNL     1       3.840  -9.930  -6.985  0.00  0.00    -0.268 OA
ATOM     10  N   UNL     1       3.180  -7.776  -6.691  0.00  0.00    -0.280 N 
ENDROOT
BRANCH   3  11
ATOM     11  C   UNL     1       7.075  -5.013  -5.883  0.00  0.00    +0.044 A 
ATOM     12  C   UNL     1       6.138  -3.984  -5.924  0.00  0.00    +0.017 A 
ATOM     13  C   UNL     1       6.531  -2.684  -5.674  0.00  0.00    -0.049 A 
ATOM     14  C   UNL     1       7.854  -2.400  -5.384  0.00  0.00    +0.010 A 
ATOM     15  C   UNL     1       8.791  -3.414  -5.342  0.00  0.00    -0.008 A 
ATOM     16  C   UNL     1       8.409  -4.724  -5.584  0.00  0.00    +0.129 A 
ATOM     17  C   UNL     1      10.230  -3.097  -5.025  0.00  0.00    +0.047 C 
ATOM     18  C   UNL     1       5.516  -1.571  -5.719  0.00  0.00    +0.044 C 
BRANCH  16  19
ATOM     19  O   UNL     1       9.329  -5.723  -5.537  0.00  0.00    -0.506 OA
ATOM     20  H   UNL     1       9.763  -5.898  -6.383  0.00  0.00    +0.292 HD
ENDBRANCH  16  19
ENDBRANCH   3  11
BRANCH  10  21
ATOM     21  C   UNL     1       1.732  -7.933  -6.848  0.00  0.00    +0.100 C 
ATOM     22  C   UNL     1       1.202  -8.928  -5.803  0.00  0.00    +0.047 C 
ATOM     23  C   UNL     1      -0.246  -9.344  -6.158  0.00  0.00    +0.168 C 
ATOM     24  S   UNL     1      -0.283  -9.160  -7.987  0.00  0.00    -0.029 S 
ATOM     25  O   UNL     1      -1.229  -8.157  -8.333  0.00  0.00    -0.174 OA
ATOM     26  O   UNL     1      -0.381 -10.447  -8.580  0.00  0.00    -0.174 OA
ATOM     27  C   UNL     1       1.416  -8.501  -8.261  0.00  0.00    +0.188 C 
ENDBRANCH  10  21
BRANCH   1  31
ATOM     28  C   UNL     1       2.571  -4.869  -2.701  0.00  0.00    +0.121 A 
ATOM     29  C   UNL     1       2.927  -6.208  -2.781  0.00  0.00    +0.046 A 
ATOM     30  C   UNL     1       3.351  -6.738  -3.984  0.00  0.00    +0.009 A 
ATOM     31  C   UNL     1       3.421  -5.936  -5.108  0.00  0.00    -0.022 A 
ATOM     32  C   UNL     1       3.067  -4.601  -5.031  0.00  0.00    +0.009 A 
ATOM     33  C   UNL     1       2.637  -4.068  -3.831  0.00  0.00    +0.046 A 
BRANCH  28  34
ATOM     34  O   UNL     1       2.153  -4.346  -1.518  0.00  0.00    -0.492 OA
BRANCH  34  35
ATOM     35  C   UNL     1       2.110  -5.230  -0.397  0.00  0.00    +0.229 C 
BRANCH  35  36
ATOM     36  C   UNL     1       1.619  -4.466   0.835  0.00  0.00    +0.041 C 
BRANCH  36  37
ATOM     37  C   UNL     1       1.573  -5.413   2.037  0.00  0.00    +0.003 C 
BRANCH  37  39
ATOM     38  C   UNL     1       1.036  -5.596   4.470  0.00  0.00    +0.004 C 
ATOM     39  C   UNL     1       1.082  -4.650   3.269  0.00  0.00    -0.003 C 
ENDBRANCH  37  39
ENDBRANCH  36  37
ENDBRANCH  35  36
ENDBRANCH  34  35
ENDBRANCH  28  34
ENDBRANCH   1  31
TORSDOF 9
