REMARK  Name = ZINC22196852
REMARK  9 active torsions:
REMARK  status: ('A' for Active; 'I' for Inactive)
REMARK    1  A    between atoms: C_1  and  C_2
REMARK    2  A    between atoms: C_10  and  C_11
REMARK    3  A    between atoms: N_13  and  C_14
REMARK    4  A    between atoms: C_16  and  S_21
REMARK    5  A    between atoms: C_19  and  O_20
REMARK    6  A    between atoms: S_21  and  N_24
REMARK    7  A    between atoms: N_24  and  C_25
REMARK    8  A    between atoms: C_30  and  O_31
REMARK    9  A    between atoms: O_31  and  C_32
REMARK                            x       y       z     vdW  Elec       q    Type
REMARK                         _______ _______ _______ _____ _____    ______ ____
ROOT
ATOM      1  C   UNL     1       2.533   5.317   0.308  0.00  0.00    +0.077 A 
ATOM      2  C   UNL     1       3.911   5.440   0.204  0.00  0.00    +0.055 A 
ATOM      3  C   UNL     1       4.505   6.681   0.336  0.00  0.00    +0.110 A 
ATOM      4  C   UNL     1       3.731   7.800   0.581  0.00  0.00    +0.032 A 
ATOM      5  C   UNL     1       2.358   7.685   0.690  0.00  0.00    +0.049 A 
ATOM      6  C   UNL     1       1.753   6.446   0.555  0.00  0.00    +0.138 A 
ENDROOT
BRANCH   1   9
ATOM      7  C   UNL     1       2.554   3.083  -0.511  0.00  0.00    +0.255 C 
ATOM      8  O   UNL     1       3.598   3.317  -1.091  0.00  0.00    -0.269 OA
ATOM      9  N   UNL     1       1.927   4.062   0.171  0.00  0.00    -0.278 N 
ATOM     10  H   UNL     1       0.941   3.875   0.620  0.00  0.00    +0.155 HD
BRANCH   7  20
ATOM     11  C   UNL     1       3.743   0.699  -1.962  0.00  0.00    +0.046 C 
ATOM     12  C   UNL     1       2.455   0.626  -1.184  0.00  0.00    -0.021 A 
ATOM     13  C   UNL     1       1.747  -0.586  -1.106  0.00  0.00    +0.028 A 
ATOM     14  C   UNL     1       2.082  -1.838  -1.689  0.00  0.00    +0.132 A 
ATOM     15  C   UNL     1       1.271  -2.929  -1.512  0.00  0.00    +0.039 A 
ATOM     16  C   UNL     1       0.103  -2.850  -0.763  0.00  0.00    +0.004 A 
ATOM     17  C   UNL     1      -0.253  -1.650  -0.182  0.00  0.00    +0.016 A 
ATOM     18  C   UNL     1       0.551  -0.543  -0.351  0.00  0.00    +0.023 A 
ATOM     19  S   UNL     1       0.472   1.142   0.202  0.00  0.00    -0.083 S 
ATOM     20  C   UNL     1       1.976   1.733  -0.556  0.00  0.00    +0.078 A 
ATOM     21  F   UNL     1       3.209  -1.955  -2.424  0.00  0.00    -0.205 F 
ENDBRANCH   7  20
ENDBRANCH   1   9
BRANCH   3  22
ATOM     22  S   UNL     1       6.255   6.836   0.197  0.00  0.00    +0.073 S 
ATOM     23  O   UNL     1       6.701   5.729  -0.575  0.00  0.00    -0.150 OA
ATOM     24  O   UNL     1       6.515   8.181  -0.179  0.00  0.00    -0.150 OA
BRANCH  22  25
ATOM     25  N   UNL     1       6.886   6.638   1.715  0.00  0.00    -0.213 N 
ATOM     26  H   UNL     1       7.468   7.448   2.178  0.00  0.00    +0.174 HD
BRANCH  25  27
ATOM     27  C   UNL     1       6.678   5.440   2.409  0.00  0.00    +0.090 A 
ATOM     28  C   UNL     1       6.647   4.235   1.722  0.00  0.00    +0.028 A 
ATOM     29  C   UNL     1       6.447   3.053   2.410  0.00  0.00    +0.002 A 
ATOM     30  C   UNL     1       6.267   3.070   3.781  0.00  0.00    +0.004 A 
ATOM     31  C   UNL     1       6.291   4.268   4.471  0.00  0.00    +0.047 A 
ATOM     32  C   UNL     1       6.496   5.456   3.790  0.00  0.00    +0.142 A 
BRANCH  32  33
ATOM     33  O   UNL     1       6.520   6.635   4.468  0.00  0.00    -0.493 OA
ATOM     34  C   UNL     1       6.326   6.574   5.882  0.00  0.00    +0.277 C 
ENDBRANCH  32  33
ENDBRANCH  25  27
ENDBRANCH  22  25
ENDBRANCH   3  22
BRANCH   6  35
ATOM     35  O   UNL     1       0.403   6.331   0.662  0.00  0.00    -0.505 OA
ATOM     36  H   UNL     1      -0.211   7.222   0.857  0.00  0.00    +0.292 HD
ENDBRANCH   6  35
TORSDOF 7
