REMARK  Name = ZINC03860916
REMARK  6 active torsions:
REMARK  status: ('A' for Active; 'I' for Inactive)
REMARK    1  A    between atoms: C_1  and  C_2
REMARK    2  A    between atoms: C_4  and  C_9
REMARK    3  A    between atoms: C_7  and  O_8
REMARK    4  A    between atoms: C_9  and  C_20
REMARK    5  A    between atoms: C_23  and  O_27
REMARK    6  A    between atoms: C_24  and  C_26
REMARK                            x       y       z     vdW  Elec       q    Type
REMARK                         _______ _______ _______ _____ _____    ______ ____
ROOT
ATOM      1  C   UNL     1      -2.691   3.595   0.001  0.00  0.00    +0.175 C 
ATOM      2  C   UNL     1      -1.369   2.932   0.281  0.00  0.00    +0.023 A 
ATOM      3  C   UNL     1      -0.113   3.456   0.541  0.00  0.00    +0.009 A 
ATOM      4  C   UNL     1       0.961   2.613   0.749  0.00  0.00    +0.000 A 
ATOM      5  C   UNL     1       0.799   1.241   0.699  0.00  0.00    +0.002 A 
ATOM      6  C   UNL     1      -0.455   0.710   0.445  0.00  0.00    +0.030 A 
ATOM      7  C   UNL     1      -1.518   1.551   0.243  0.00  0.00    +0.124 A 
ATOM      8  S   UNL     1      -3.246   1.310  -0.061  0.00  0.00    +0.114 S 
ATOM      9  O   UNL     1      -3.741   0.429   0.938  0.00  0.00    -0.142 OA
ATOM     10  O   UNL     1      -3.409   1.080  -1.454  0.00  0.00    -0.142 OA
ATOM     11  O   UNL     1      -3.799   2.717   0.246  0.00  0.00    -0.213 OA
ENDROOT
BRANCH   1  15
ATOM     12  C   UNL     1      -4.885   5.939   3.839  0.00  0.00    +0.047 C 
ATOM     13  C   UNL     1      -3.876   5.931   2.720  0.00  0.00    -0.009 A 
ATOM     14  C   UNL     1      -3.755   4.820   1.907  0.00  0.00    +0.014 A 
ATOM     15  C   UNL     1      -2.826   4.810   0.883  0.00  0.00    -0.004 A 
ATOM     16  C   UNL     1      -2.025   5.915   0.662  0.00  0.00    +0.011 A 
ATOM     17  C   UNL     1      -2.146   7.030   1.468  0.00  0.00    +0.046 A 
ATOM     18  C   UNL     1      -3.074   7.040   2.500  0.00  0.00    +0.120 A 
BRANCH  18  19
ATOM     19  O   UNL     1      -3.195   8.136   3.295  0.00  0.00    -0.507 OA
ATOM     20  H   UNL     1      -3.838   8.784   2.976  0.00  0.00    +0.292 HD
ENDBRANCH  18  19
ENDBRANCH   1  15
BRANCH   1  21
ATOM     21  C   UNL     1      -2.723   4.034  -1.440  0.00  0.00    -0.004 A 
ATOM     22  C   UNL     1      -1.549   4.385  -2.081  0.00  0.00    +0.011 A 
ATOM     23  C   UNL     1      -1.575   4.787  -3.402  0.00  0.00    +0.046 A 
ATOM     24  C   UNL     1      -2.781   4.840  -4.086  0.00  0.00    +0.120 A 
ATOM     25  C   UNL     1      -3.958   4.487  -3.441  0.00  0.00    -0.009 A 
ATOM     26  C   UNL     1      -3.925   4.080  -2.121  0.00  0.00    +0.014 A 
ATOM     27  C   UNL     1      -5.269   4.542  -4.181  0.00  0.00    +0.047 C 
BRANCH  24  28
ATOM     28  O   UNL     1      -2.810   5.236  -5.386  0.00  0.00    -0.507 OA
ATOM     29  H   UNL     1      -2.708   4.512  -6.019  0.00  0.00    +0.292 HD
ENDBRANCH  24  28
ENDBRANCH   1  21
TORSDOF 4
