REMARK  Name = ZINC09276352
REMARK  7 active torsions:
REMARK  status: ('A' for Active; 'I' for Inactive)
REMARK    1  A    between atoms: C_4  and  C_7
REMARK    2  A    between atoms: C_7  and  N_69
REMARK    3  A    between atoms: C_10  and  N_13
REMARK    4  A    between atoms: C_14  and  C_16
REMARK    5  A    between atoms: C_16  and  N_17
REMARK    6  A    between atoms: C_24  and  S_26
REMARK    7  A    between atoms: S_26  and  N_29
REMARK                            x       y       z     vdW  Elec       q    Type
REMARK                         _______ _______ _______ _____ _____    ______ ____
ROOT
ATOM      1  C   UNL     1       2.462   0.920  -0.017  0.00  0.00    +0.217 C 
ENDROOT
BRANCH   1   2
ATOM      2  N   UNL     1       3.562   1.887  -0.022  0.00  0.00    -0.338 N 
ATOM      3  C   UNL     1       4.210   2.334  -1.141  0.00  0.00    +0.087 A 
ATOM      4  C   UNL     1       5.163   3.215  -0.797  0.00  0.00    +0.027 A 
ATOM      5  C   UNL     1       5.129   3.335   0.663  0.00  0.00    +0.002 A 
ATOM      6  C   UNL     1       4.103   2.477   1.099  0.00  0.00    +0.050 A 
ATOM      7  C   UNL     1       3.830   2.377   2.459  0.00  0.00    +0.028 A 
ATOM      8  C   UNL     1       4.566   3.115   3.361  0.00  0.00    +0.030 A 
ATOM      9  C   UNL     1       5.577   3.960   2.925  0.00  0.00    +0.106 A 
ATOM     10  C   UNL     1       5.861   4.074   1.593  0.00  0.00    +0.038 A 
BRANCH   9  11
ATOM     11  S   UNL     1       6.502   4.894   4.099  0.00  0.00    +0.061 S 
ATOM     12  O   UNL     1       7.024   6.018   3.403  0.00  0.00    -0.153 OA
ATOM     13  O   UNL     1       5.681   5.025   5.251  0.00  0.00    -0.153 OA
BRANCH  11  14
ATOM     14  N   UNL     1       7.801   3.969   4.546  0.00  0.00    -0.177 NA
ATOM     15  C   UNL     1       7.708   3.052   5.690  0.00  0.00    +0.109 C 
ATOM     16  C   UNL     1       8.134   1.650   5.228  0.00  0.00    +0.017 C 
ATOM     17  C   UNL     1       9.526   1.728   4.597  0.00  0.00    +0.003 C 
ATOM     18  C   UNL     1       9.482   2.646   3.373  0.00  0.00    +0.017 C 
ATOM     19  C   UNL     1       9.069   4.055   3.811  0.00  0.00    +0.109 C 
ENDBRANCH  11  14
ENDBRANCH   9  11
ENDBRANCH   1   2
BRANCH   1  21
ATOM     20  N   UNL     1      -0.011   0.966   0.007  0.00  0.00    -0.311 N 
ATOM     21  C   UNL     1       1.147   1.655   0.000  0.00  0.00    +0.233 C 
ATOM     22  O   UNL     1       1.130   2.868   0.007  0.00  0.00    -0.274 OA
ATOM     23  H   UNL     1       0.002  -0.004   0.002  0.00  0.00    +0.149 HD
BRANCH  20  26
ATOM     24  C   UNL     1      -3.722   1.521  -0.524  0.00  0.00    -0.077 C 
ATOM     25  C   UNL     1      -2.378   0.793  -0.592  0.00  0.00    +0.003 C 
ATOM     26  C   UNL     1      -1.290   1.681   0.017  0.00  0.00    +0.069 C 
ATOM     27  C   UNL     1      -1.672   2.026   1.459  0.00  0.00    +0.003 C 
ATOM     28  C   UNL     1      -3.037   2.718   1.469  0.00  0.00    -0.077 C 
ATOM     29  N   UNL     1      -4.043   1.802   0.892  0.00  0.00    +0.382 N 
ATOM     30  H   UNL     1      -4.031   0.920   1.417  0.00  0.00    -0.081 HD
BRANCH  29  31
ATOM     31  C   UNL     1      -5.389   2.403   0.994  0.00  0.00    -0.043 C 
BRANCH  31  35
ATOM     32  C   UNL     1      -6.495   2.611   5.114  0.00  0.00    +0.000 A 
ATOM     33  C   UNL     1      -5.841   3.674   4.520  0.00  0.00    +0.000 A 
ATOM     34  C   UNL     1      -5.483   3.607   3.186  0.00  0.00    +0.002 A 
ATOM     35  C   UNL     1      -5.779   2.477   2.447  0.00  0.00    -0.064 A 
ATOM     36  C   UNL     1      -6.438   1.416   3.041  0.00  0.00    +0.002 A 
ATOM     37  C   UNL     1      -6.791   1.481   4.376  0.00  0.00    +0.000 A 
ENDBRANCH  31  35
ENDBRANCH  29  31
ENDBRANCH  20  26
ENDBRANCH   1  21
TORSDOF 7
