REMARK  Name = ZINC41637097
REMARK  8 active torsions:
REMARK  status: ('A' for Active; 'I' for Inactive)
REMARK    1  A    between atoms: C_1  and  N_2
REMARK    2  A    between atoms: N_2  and  C_3
REMARK    3  A    between atoms: C_6  and  C_10
REMARK    4  A    between atoms: C_10  and  N_11
REMARK    5  A    between atoms: C_12  and  C_14
REMARK    6  A    between atoms: N_16  and  C_17
REMARK    7  A    between atoms: C_20  and  S_23
REMARK    8  A    between atoms: S_23  and  C_24
REMARK                            x       y       z     vdW  Elec       q    Type
REMARK                         _______ _______ _______ _____ _____    ______ ____
ROOT
ATOM      1  N   UNL     1      -2.376  -4.799   1.393  0.00  0.00    -0.303 N 
ATOM      2  C   UNL     1      -2.390  -6.125   1.637  0.00  0.00    +0.300 C 
ATOM      3  O   UNL     1      -2.413  -6.912   0.714  0.00  0.00    -0.265 OA
ATOM      4  H   UNL     1      -2.357  -4.170   2.131  0.00  0.00    +0.149 HD
ENDROOT
BRANCH   2   5
ATOM      5  C   UNL     1      -2.376  -6.625   3.044  0.00  0.00    +0.303 C 
ATOM      6  O   UNL     1      -2.352  -5.837   3.968  0.00  0.00    -0.265 OA
ATOM      7  N   UNL     1      -2.389  -7.950   3.289  0.00  0.00    -0.278 N 
ATOM      8  H   UNL     1      -2.476  -8.578   2.554  0.00  0.00    +0.155 HD
BRANCH   7   9
ATOM      9  C   UNL     1      -2.279  -8.420   4.601  0.00  0.00    +0.034 A 
ATOM     10  C   UNL     1      -1.587  -9.597   4.862  0.00  0.00    +0.024 A 
ATOM     11  C   UNL     1      -1.478 -10.061   6.157  0.00  0.00    +0.017 A 
ATOM     12  C   UNL     1      -2.060  -9.351   7.201  0.00  0.00    +0.016 A 
ATOM     13  C   UNL     1      -2.752  -8.174   6.940  0.00  0.00    +0.017 A 
ATOM     14  C   UNL     1      -2.856  -7.708   5.645  0.00  0.00    +0.024 A 
BRANCH  12  15
ATOM     15  S   UNL     1      -1.921  -9.944   8.854  0.00  0.00    -0.016 S 
BRANCH  15  16
ATOM     16  C   UNL     1      -2.818  -8.712   9.839  0.00  0.00    +0.448 C 
ATOM     17  F   UNL     1      -4.148  -8.651   9.410  0.00  0.00    -0.160 F 
ATOM     18  F   UNL     1      -2.779  -9.076  11.189  0.00  0.00    -0.160 F 
ATOM     19  F   UNL     1      -2.218  -7.458   9.676  0.00  0.00    -0.160 F 
ENDBRANCH  15  16
ENDBRANCH  12  15
ENDBRANCH   7   9
ENDBRANCH   2   5
BRANCH   1  20
ATOM     20  C   UNL     1      -2.390  -4.309   0.013  0.00  0.00    +0.140 C 
BRANCH  20  26
ATOM     21  C   UNL     1      -0.014   1.454  -0.008  0.00  0.00    +0.130 C 
ATOM     22  N   UNL     1       0.002  -0.011  -0.016  0.00  0.00    -0.323 N 
ATOM     23  C   UNL     1       1.278  -0.730  -0.041  0.00  0.00    +0.130 C 
ATOM     24  C   UNL     1      -1.194  -0.719   0.000  0.00  0.00    +0.098 A 
ATOM     25  C   UNL     1      -1.173  -2.110  -0.002  0.00  0.00    +0.047 A 
ATOM     26  C   UNL     1      -2.370  -2.802   0.015  0.00  0.00    -0.026 A 
ATOM     27  C   UNL     1      -3.554  -2.076   0.033  0.00  0.00    +0.023 A 
ATOM     28  C   UNL     1      -3.502  -0.697   0.034  0.00  0.00    +0.084 A 
ATOM     29  N   UNL     1      -2.345  -0.064   0.023  0.00  0.00    -0.350 N 
ATOM     30  H   UNL     1      -2.336   0.906   0.028  0.00  0.00    +0.166 HD
ENDBRANCH  20  26
ENDBRANCH   1  20
TORSDOF 6
