REMARK  Name = ZINC18275860
REMARK  7 active torsions:
REMARK  status: ('A' for Active; 'I' for Inactive)
REMARK    1  A    between atoms: C_1  and  C_2
REMARK    2  A    between atoms: C_11  and  O_25
REMARK    3  A    between atoms: C_12  and  N_13
REMARK    4  A    between atoms: N_14  and  C_15
REMARK    5  A    between atoms: C_15  and  C_17
REMARK    6  A    between atoms: C_17  and  C_18
REMARK    7  A    between atoms: C_18  and  C_19
REMARK                            x       y       z     vdW  Elec       q    Type
REMARK                         _______ _______ _______ _____ _____    ______ ____
ROOT
ATOM      1  C   UNL     1      -0.018   1.503   0.010  0.00  0.00    +0.045 C 
ATOM      2  C   UNL     1       0.002  -0.004   0.002  0.00  0.00    -0.036 A 
ATOM      3  C   UNL     1       0.006  -0.685  -1.198  0.00  0.00    +0.016 A 
ATOM      4  C   UNL     1       0.025  -2.076  -1.201  0.00  0.00    +0.031 A 
ATOM      5  C   UNL     1       0.041  -2.784   0.010  0.00  0.00    +0.052 A 
ATOM      6  C   UNL     1       0.036  -2.082   1.209  0.00  0.00    +0.042 A 
ATOM      7  C   UNL     1       0.023  -0.702   1.200  0.00  0.00    +0.023 A 
ATOM      8 BR   UNL     1       0.025   0.246   2.836  0.00  0.00    -0.050 Br
ATOM      9  N   UNL     1       0.058  -4.139  -0.285  0.00  0.00    -0.324 N 
ATOM     10  H   UNL     1       0.071  -4.847   0.378  0.00  0.00    +0.169 HD
ATOM     11  C   UNL     1       0.054  -4.337  -1.624  0.00  0.00    +0.219 A 
ATOM     12  C   UNL     1       0.034  -3.094  -2.272  0.00  0.00    +0.152 A 
ENDROOT
BRANCH  12  13
ATOM     13  N   UNL     1       0.024  -2.875  -3.587  0.00  0.00    -0.151 NA
ATOM     14  N   UNL     1       0.034  -3.871  -4.407  0.00  0.00    -0.080 NA
BRANCH  14  15
ATOM     15  C   UNL     1       0.024  -3.651  -5.729  0.00  0.00    +0.254 C 
ATOM     16  O   UNL     1       0.006  -2.514  -6.155  0.00  0.00    -0.272 OA
BRANCH  15  17
ATOM     17  C   UNL     1       0.036  -4.815  -6.686  0.00  0.00    +0.104 C 
BRANCH  17  18
ATOM     18  C   UNL     1       0.021  -4.292  -8.124  0.00  0.00    +0.044 C 
BRANCH  18  19
ATOM     19  C   UNL     1       0.033  -5.456  -9.082  0.00  0.00    -0.047 A 
ATOM     20  C   UNL     1       1.235  -5.976  -9.523  0.00  0.00    +0.003 A 
ATOM     21  C   UNL     1       1.246  -7.043 -10.401  0.00  0.00    +0.000 A 
ATOM     22  C   UNL     1       0.054  -7.590 -10.838  0.00  0.00    +0.000 A 
ATOM     23  C   UNL     1      -1.148  -7.071 -10.397  0.00  0.00    +0.000 A 
ATOM     24  C   UNL     1      -1.159  -6.006  -9.515  0.00  0.00    +0.003 A 
ENDBRANCH  18  19
ENDBRANCH  17  18
ENDBRANCH  15  17
ENDBRANCH  14  15
ENDBRANCH  12  13
BRANCH  11  25
ATOM     25  O   UNL     1       0.068  -5.538  -2.236  0.00  0.00    -0.492 OA
ATOM     26  H   UNL     1      -0.811  -5.901  -2.411  0.00  0.00    +0.294 HD
ENDBRANCH  11  25
TORSDOF 6
