REMARK  Name = ZINC12860906
REMARK  6 active torsions:
REMARK  status: ('A' for Active; 'I' for Inactive)
REMARK    1  A    between atoms: C_1  and  C_2
REMARK    2  A    between atoms: C_10  and  C_16
REMARK    3  A    between atoms: N_18  and  C_19
REMARK    4  A    between atoms: C_19  and  C_20
REMARK    5  A    between atoms: C_23  and  S_26
REMARK    6  A    between atoms: S_26  and  N_29
REMARK                            x       y       z     vdW  Elec       q    Type
REMARK                         _______ _______ _______ _____ _____    ______ ____
ROOT
ATOM      1  C   UNL     1      -0.222   1.232   2.431  0.00  0.00    +0.244 C 
ATOM      2  O   UNL     1       0.777   0.546   2.530  0.00  0.00    -0.270 OA
ATOM      3  N   UNL     1      -0.698   1.558   1.213  0.00  0.00    -0.307 N 
ATOM      4  H   UNL     1      -1.495   2.106   1.135  0.00  0.00    +0.149 HD
ENDROOT
BRANCH   1  13
ATOM      5  C   UNL     1       1.036   0.168  10.422  0.00  0.00    +0.008 C 
ATOM      6  C   UNL     1      -0.163   0.698   9.633  0.00  0.00    -0.009 C 
ATOM      7  C   UNL     1      -0.622   2.030  10.234  0.00  0.00    +0.009 C 
ATOM      8  C   UNL     1      -1.962   2.437   9.611  0.00  0.00    +0.054 C 
ATOM      9  C   UNL     1      -1.839   2.350   8.107  0.00  0.00    +0.020 A 
ATOM     10  C   UNL     1      -0.859   1.675   7.477  0.00  0.00    -0.019 A 
ATOM     11  C   UNL     1      -1.081   1.827   6.042  0.00  0.00    +0.004 A 
ATOM     12  C   UNL     1      -0.421   1.372   4.903  0.00  0.00    +0.023 A 
ATOM     13  C   UNL     1      -0.913   1.709   3.646  0.00  0.00    +0.037 A 
ATOM     14  C   UNL     1      -2.062   2.505   3.532  0.00  0.00    +0.015 A 
ATOM     15  C   UNL     1      -2.713   2.947   4.644  0.00  0.00    +0.027 A 
ATOM     16  C   UNL     1      -2.239   2.622   5.913  0.00  0.00    +0.047 A 
ATOM     17  N   UNL     1      -2.671   2.920   7.184  0.00  0.00    -0.358 N 
ATOM     18  H   UNL     1      -3.451   3.456   7.395  0.00  0.00    +0.166 HD
ATOM     19  C   UNL     1       0.243   0.916   8.170  0.00  0.00    +0.040 C 
ENDBRANCH   1  13
BRANCH   3  20
ATOM     20  C   UNL     1      -0.013   1.086   0.008  0.00  0.00    +0.139 C 
BRANCH  20  21
ATOM     21  C   UNL     1      -0.742   1.585  -1.213  0.00  0.00    -0.030 A 
ATOM     22  C   UNL     1      -1.750   0.825  -1.775  0.00  0.00    +0.007 A 
ATOM     23  C   UNL     1      -2.421   1.285  -2.892  0.00  0.00    +0.029 A 
ATOM     24  C   UNL     1      -2.079   2.501  -3.453  0.00  0.00    +0.105 A 
ATOM     25  C   UNL     1      -1.067   3.259  -2.894  0.00  0.00    +0.029 A 
ATOM     26  C   UNL     1      -0.398   2.801  -1.774  0.00  0.00    +0.007 A 
BRANCH  24  27
ATOM     27  S   UNL     1      -2.932   3.085  -4.880  0.00  0.00    +0.056 S 
ATOM     28  O   UNL     1      -4.200   2.445  -4.885  0.00  0.00    -0.153 OA
ATOM     29  O   UNL     1      -2.791   4.499  -4.886  0.00  0.00    -0.153 OA
BRANCH  27  30
ATOM     30  N   UNL     1      -2.112   2.522  -6.204  0.00  0.00    -0.204 NA
ATOM     31  H   UNL     1      -1.318   1.978  -6.088  0.00  0.00    +0.144 HD
ATOM     32  H   UNL     1      -2.427   2.737  -7.096  0.00  0.00    +0.144 HD
ENDBRANCH  27  30
ENDBRANCH  24  27
ENDBRANCH  20  21
ENDBRANCH   3  20
TORSDOF 5
