REMARK  Name = ZINC08740303
REMARK  10 active torsions:
REMARK  status: ('A' for Active; 'I' for Inactive)
REMARK    1  A    between atoms: C_1  and  C_2
REMARK    2  A    between atoms: C_2  and  O_3
REMARK    3  A    between atoms: O_3  and  C_4
REMARK    4  A    between atoms: C_7  and  N_10
REMARK    5  A    between atoms: C_13  and  C_14
REMARK    6  A    between atoms: N_15  and  C_16
REMARK    7  A    between atoms: C_16  and  C_17
REMARK    8  A    between atoms: C_24  and  O_25
REMARK    9  A    between atoms: O_25  and  C_26
REMARK   10  A    between atoms: C_32  and  N_65
REMARK                            x       y       z     vdW  Elec       q    Type
REMARK                         _______ _______ _______ _____ _____    ______ ____
ROOT
ATOM      1  C   UNL     1       3.229  -4.607   1.808  0.00  0.00    +0.099 C 
ATOM      2  N   UNL     1       2.386  -4.014   0.939  0.00  0.00    -0.296 NA
ENDROOT
BRANCH   1   6
ATOM      3  N   UNL     1       4.175  -8.020   2.852  0.00  0.00    -0.193 N 
ATOM      4  C   UNL     1       4.234  -6.675   2.770  0.00  0.00    +0.245 C 
ATOM      5  O   UNL     1       5.085  -6.048   3.372  0.00  0.00    -0.274 OA
ATOM      6  C   UNL     1       3.234  -5.984   1.936  0.00  0.00    +0.202 C 
ATOM      7  C   UNL     1       2.245  -6.824   1.239  0.00  0.00    +0.238 C 
ATOM      8  O   UNL     1       1.392  -6.327   0.528  0.00  0.00    -0.274 OA
ATOM      9  N   UNL     1       2.311  -8.161   1.409  0.00  0.00    -0.238 N 
ATOM     10  C   UNL     1       3.246  -8.722   2.189  0.00  0.00    +0.319 C 
ATOM     11  O   UNL     1       3.251  -9.932   2.301  0.00  0.00    -0.251 OA
ATOM     12  H   UNL     1       1.667  -8.729   0.958  0.00  0.00    +0.159 HD
BRANCH   3  16
ATOM     13  C   UNL     1       6.960 -10.041   5.210  0.00  0.00    +0.121 A 
ATOM     14  C   UNL     1       6.966 -10.209   3.833  0.00  0.00    +0.047 A 
ATOM     15  C   UNL     1       6.044  -9.540   3.052  0.00  0.00    +0.027 A 
ATOM     16  C   UNL     1       5.112  -8.699   3.645  0.00  0.00    +0.046 A 
ATOM     17  C   UNL     1       5.110  -8.527   5.023  0.00  0.00    +0.027 A 
ATOM     18  C   UNL     1       6.028  -9.202   5.803  0.00  0.00    +0.047 A 
BRANCH  13  19
ATOM     19  O   UNL     1       7.867 -10.700   5.979  0.00  0.00    -0.492 OA
BRANCH  19  21
ATOM     20  C   UNL     1       8.894 -11.300   8.083  0.00  0.00    +0.048 C 
ATOM     21  C   UNL     1       7.803 -10.481   7.390  0.00  0.00    +0.225 C 
ENDBRANCH  19  21
ENDBRANCH  13  19
ENDBRANCH   3  16
ENDBRANCH   1   6
BRANCH   2  22
ATOM     22  C   UNL     1       2.380  -2.555   0.804  0.00  0.00    +0.130 C 
BRANCH  22  23
ATOM     23  C   UNL     1       1.256  -2.135  -0.145  0.00  0.00    -0.012 C 
ATOM     24  C   UNL     1      -0.068  -2.567   0.429  0.00  0.00    -0.011 A 
ATOM     25  C   UNL     1      -1.057  -3.120  -0.358  0.00  0.00    -0.040 A 
ATOM     26  C   UNL     1      -2.264  -3.497   0.210  0.00  0.00    +0.053 A 
ATOM     27  C   UNL     1      -2.487  -3.328   1.567  0.00  0.00    +0.170 A 
ATOM     28  C   UNL     1      -1.491  -2.774   2.364  0.00  0.00    +0.208 A 
ATOM     29  C   UNL     1      -0.285  -2.394   1.792  0.00  0.00    +0.167 A 
ATOM     30  O   UNL     1      -1.945  -2.713   3.651  0.00  0.00    -0.449 OA
ATOM     31  C   UNL     1      -3.071  -3.609   3.704  0.00  0.00    +0.467 C 
ATOM     32  O   UNL     1      -3.566  -3.614   2.352  0.00  0.00    -0.452 OA
ATOM     33  C   UNL     1      -0.861  -3.337  -1.837  0.00  0.00    +0.017 C 
ATOM     34  C   UNL     1       0.320  -2.503  -2.335  0.00  0.00    -0.074 C 
ATOM     35  C   UNL     1       2.717  -2.269  -2.069  0.00  0.00    -0.095 C 
ATOM     36  N   UNL     1       1.471  -2.778  -1.452  0.00  0.00    +0.384 N 
ATOM     37  H   UNL     1       1.556  -3.793  -1.318  0.00  0.00    -0.081 HD
BRANCH  29  38
ATOM     38  O   UNL     1       0.691  -1.851   2.569  0.00  0.00    -0.491 OA
ATOM     39  C   UNL     1       0.686  -0.430   2.717  0.00  0.00    +0.277 C 
ENDBRANCH  29  38
ENDBRANCH  22  23
ENDBRANCH   2  22
TORSDOF 7
