REMARK  Name = ZINC59019049
REMARK  9 active torsions:
REMARK  status: ('A' for Active; 'I' for Inactive)
REMARK    1  A    between atoms: C_1  and  C_2
REMARK    2  A    between atoms: C_7  and  N_8
REMARK    3  A    between atoms: C_9  and  C_11
REMARK    4  A    between atoms: C_11  and  S_12
REMARK    5  A    between atoms: S_12  and  C_13
REMARK    6  A    between atoms: N_18  and  N_19
REMARK    7  A    between atoms: C_20  and  C_21
REMARK    8  A    between atoms: C_26  and  O_27
REMARK    9  A    between atoms: O_27  and  C_28
REMARK                            x       y       z     vdW  Elec       q    Type
REMARK                         _______ _______ _______ _____ _____    ______ ____
ROOT
ATOM      1  C   UNL     1      -0.386  -0.116   7.687  0.00  0.00    +0.211 A 
ATOM      2  N   UNL     1      -0.472  -0.557   8.946  0.00  0.00    -0.186 NA
ATOM      3  C   UNL     1      -0.552   0.467   9.770  0.00  0.00    +0.232 A 
ATOM      4  N   UNL     1      -0.516   1.598   9.034  0.00  0.00    -0.245 N 
ATOM      5  N   UNL     1      -0.403   1.196   7.693  0.00  0.00    -0.144 NA
ATOM      6  N   UNL     1      -0.654   0.396  11.147  0.00  0.00    -0.205 N 
ATOM      7  H   UNL     1      -0.708   1.210  11.672  0.00  0.00    +0.177 HD
ATOM      8  H   UNL     1      -0.557   2.508   9.366  0.00  0.00    +0.192 HD
ENDROOT
BRANCH   6   9
ATOM      9  N   UNL     1      -0.681  -0.851  11.784  0.00  0.00    -0.187 NA
ATOM     10  C   UNL     1      -0.777  -0.917  13.078  0.00  0.00    +0.142 C 
BRANCH  10  11
ATOM     11  C   UNL     1      -0.805  -2.229  13.748  0.00  0.00    +0.037 A 
ATOM     12  C   UNL     1      -0.914  -2.305  15.139  0.00  0.00    +0.028 A 
ATOM     13  C   UNL     1      -0.940  -3.537  15.760  0.00  0.00    +0.019 A 
ATOM     14  C   UNL     1      -0.858  -4.699  15.010  0.00  0.00    +0.019 A 
ATOM     15  C   UNL     1      -0.749  -4.636  13.634  0.00  0.00    +0.047 A 
ATOM     16  C   UNL     1      -0.728  -3.408  12.994  0.00  0.00    +0.129 A 
ATOM     17 BR   UNL     1      -1.088  -3.639  17.642  0.00  0.00    -0.050 Br
BRANCH  16  18
ATOM     18  O   UNL     1      -0.626  -3.346  11.641  0.00  0.00    -0.494 OA
ATOM     19  C   UNL     1      -0.552  -4.588  10.938  0.00  0.00    +0.277 C 
ENDBRANCH  16  18
ENDBRANCH  10  11
ENDBRANCH   6   9
BRANCH   1  20
ATOM     20  S   UNL     1      -0.260  -1.131   6.253  0.00  0.00    -0.075 S 
BRANCH  20  21
ATOM     21  C   UNL     1      -0.169   0.054   4.882  0.00  0.00    +0.173 C 
BRANCH  21  23
ATOM     22  N   UNL     1       0.025  -0.014   2.417  0.00  0.00    -0.285 N 
ATOM     23  C   UNL     1      -0.057  -0.693   3.578  0.00  0.00    +0.227 C 
ATOM     24  O   UNL     1      -0.040  -1.906   3.574  0.00  0.00    -0.275 OA
ATOM     25  H   UNL     1       0.077   0.955   2.425  0.00  0.00    +0.155 HD
BRANCH  22  32
ATOM     26  C   UNL     1      -1.265   1.183   0.181  0.00  0.00    +0.046 C 
ATOM     27  C   UNL     1      -0.584  -0.158   0.084  0.00  0.00    -0.028 A 
ATOM     28  C   UNL     1      -0.569  -0.841  -1.116  0.00  0.00    +0.025 A 
ATOM     29  C   UNL     1       0.056  -2.072  -1.206  0.00  0.00    +0.041 A 
ATOM     30  C   UNL     1       0.668  -2.623  -0.093  0.00  0.00    +0.022 A 
ATOM     31  C   UNL     1       0.656  -1.944   1.109  0.00  0.00    +0.025 A 
ATOM     32  C   UNL     1       0.034  -0.706   1.201  0.00  0.00    +0.036 A 
ATOM     33 CL   UNL     1       0.072  -2.928  -2.716  0.00  0.00    -0.084 Cl
ENDBRANCH  22  32
ENDBRANCH  21  23
ENDBRANCH  20  21
ENDBRANCH   1  20
TORSDOF 7
