REMARK  Name = ZINC06055984
REMARK  4 active torsions:
REMARK  status: ('A' for Active; 'I' for Inactive)
REMARK    1  A    between atoms: C_6  and  S_7
REMARK    2  A    between atoms: S_7  and  N_10
REMARK    3  A    between atoms: N_10  and  N_11
REMARK    4  A    between atoms: N_11  and  C_12
REMARK                            x       y       z     vdW  Elec       q    Type
REMARK                         _______ _______ _______ _____ _____    ______ ____
ROOT
ATOM      1  N   UNL     1      -1.098  -1.855  -2.428  0.00  0.00    -0.257 N 
ATOM      2  H   UNL     1      -0.178  -1.572  -2.542  0.00  0.00    +0.168 HD
ENDROOT
BRANCH   1   3
ATOM      3  C   UNL     1      -1.556  -2.920  -3.091  0.00  0.00    +0.114 C 
ATOM      4  C   UNL     1      -2.862  -3.466  -3.048  0.00  0.00    +0.024 A 
ATOM      5  C   UNL     1      -4.027  -3.112  -2.357  0.00  0.00    +0.027 A 
ATOM      6  C   UNL     1      -5.177  -3.859  -2.526  0.00  0.00    +0.019 A 
ATOM      7  C   UNL     1      -5.180  -4.955  -3.375  0.00  0.00    +0.017 A 
ATOM      8  C   UNL     1      -4.037  -5.322  -4.067  0.00  0.00    +0.025 A 
ATOM      9  C   UNL     1      -2.864  -4.588  -3.918  0.00  0.00    +0.043 A 
ATOM     10  N   UNL     1      -1.627  -4.734  -4.473  0.00  0.00    -0.280 N 
ATOM     11  C   UNL     1      -0.798  -3.797  -4.051  0.00  0.00    +0.264 C 
ATOM     12  O   UNL     1       0.368  -3.667  -4.375  0.00  0.00    -0.268 OA
ATOM     13 BR   UNL     1      -6.753  -3.386  -1.594  0.00  0.00    -0.050 Br
ATOM     14  H   UNL     1      -1.388  -5.434  -5.101  0.00  0.00    +0.155 HD
ENDBRANCH   1   3
BRANCH   1  15
ATOM     15  N   UNL     1      -1.948  -1.147  -1.567  0.00  0.00    -0.110 NA
ATOM     16  H   UNL     1      -2.791  -0.799  -1.897  0.00  0.00    +0.172 HD
BRANCH  15  17
ATOM     17  S   UNL     1      -1.512  -0.905   0.012  0.00  0.00    +0.073 S 
ATOM     18  O   UNL     1      -1.218  -2.186   0.553  0.00  0.00    -0.152 OA
ATOM     19  O   UNL     1      -2.493  -0.046   0.577  0.00  0.00    -0.152 OA
BRANCH  17  25
ATOM     20  C   UNL     1      -0.017   1.378   0.010  0.00  0.00    +0.029 A 
ATOM     21  C   UNL     1       1.171   2.086   0.002  0.00  0.00    +0.017 A 
ATOM     22  C   UNL     1       2.378   1.411  -0.013  0.00  0.00    +0.018 A 
ATOM     23  C   UNL     1       2.396   0.027  -0.021  0.00  0.00    +0.017 A 
ATOM     24  C   UNL     1       1.208  -0.679  -0.013  0.00  0.00    +0.029 A 
ATOM     25  C   UNL     1       0.002  -0.004   0.002  0.00  0.00    +0.107 A 
ATOM     26 BR   UNL     1       4.003   2.378  -0.024  0.00  0.00    -0.050 Br
ENDBRANCH  17  25
ENDBRANCH  15  17
ENDBRANCH   1  15
TORSDOF 4
