REMARK  Name = ZINC12833910
REMARK  11 active torsions:
REMARK  status: ('A' for Active; 'I' for Inactive)
REMARK    1  A    between atoms: C_1  and  C_2
REMARK    2  A    between atoms: C_6  and  C_15
REMARK    3  A    between atoms: C_13  and  C_14
REMARK    4  A    between atoms: C_15  and  C_17
REMARK    5  A    between atoms: C_15  and  N_70
REMARK    6  A    between atoms: N_21  and  C_22
REMARK    7  A    between atoms: C_22  and  C_23
REMARK    8  A    between atoms: C_29  and  C_30
REMARK    9  A    between atoms: C_29  and  N_70
REMARK   10  A    between atoms: C_36  and  C_37
REMARK   11  A    between atoms: C_36  and  N_70
REMARK                            x       y       z     vdW  Elec       q    Type
REMARK                         _______ _______ _______ _____ _____    ______ ____
ROOT
ATOM      1  C   UNL     1       5.913   3.285  -0.646  0.00  0.00    +0.040 C 
ENDROOT
BRANCH   1   7
ATOM      2  C   UNL     1      -1.068   0.767  -1.379  0.00  0.00    +0.044 C 
ATOM      3  C   UNL     1       0.421   0.542  -1.422  0.00  0.00    -0.047 A 
ATOM      4  C   UNL     1       1.271   1.575  -1.143  0.00  0.00    +0.013 A 
ATOM      5  C   UNL     1       2.653   1.367  -1.183  0.00  0.00    -0.001 A 
ATOM      6  C   UNL     1       3.591   2.452  -0.889  0.00  0.00    +0.017 A 
ATOM      7  C   UNL     1       4.921   2.191  -0.943  0.00  0.00    +0.011 A 
ATOM      8  C   UNL     1       5.378   0.898  -1.279  0.00  0.00    +0.251 A 
ATOM      9  O   UNL     1       6.578   0.685  -1.322  0.00  0.00    -0.268 OA
ATOM     10  N   UNL     1       4.524  -0.104  -1.550  0.00  0.00    -0.322 N 
ATOM     11  H   UNL     1       4.873  -0.981  -1.777  0.00  0.00    +0.169 HD
ATOM     12  C   UNL     1       3.161   0.096  -1.512  0.00  0.00    +0.049 A 
ATOM     13  C   UNL     1       2.277  -0.940  -1.794  0.00  0.00    +0.030 A 
ATOM     14  C   UNL     1       0.918  -0.711  -1.754  0.00  0.00    -0.046 A 
ATOM     15  C   UNL     1      -0.037  -1.833  -2.066  0.00  0.00    +0.044 C 
ENDBRANCH   1   7
BRANCH   1  16
ATOM     16  C   UNL     1       6.711   2.919   0.580  0.00  0.00    +0.143 A 
ATOM     17  N   UNL     1       7.478   1.866   0.729  0.00  0.00    -0.115 NA
ATOM     18  N   UNL     1       7.986   1.909   1.912  0.00  0.00    -0.023 NA
ATOM     19  N   UNL     1       7.564   2.962   2.521  0.00  0.00    -0.044 NA
ATOM     20  N   UNL     1       6.780   3.614   1.730  0.00  0.00    -0.228 N 
BRANCH  20  21
ATOM     21  C   UNL     1       6.091   4.871   2.030  0.00  0.00    +0.178 C 
BRANCH  21  22
ATOM     22  C   UNL     1       4.779   4.573   2.758  0.00  0.00    +0.140 C 
ATOM     23  C   UNL     1       3.991   5.883   2.976  0.00  0.00    +0.035 C 
ATOM     24  C   UNL     1       3.405   5.682   4.400  0.00  0.00    +0.031 C 
ATOM     25  C   UNL     1       4.543   4.877   5.076  0.00  0.00    +0.160 C 
ATOM     26  O   UNL     1       5.054   4.014   4.048  0.00  0.00    -0.375 OA
ENDBRANCH  21  22
ENDBRANCH  20  21
ENDBRANCH   1  16
BRANCH   1  27
ATOM     27  N   UNL     1       6.830   3.422  -1.797  0.00  0.00    +0.397 N 
ATOM     28  H   UNL     1       7.183   2.493  -2.055  0.00  0.00    -0.079 HD
BRANCH  27  29
ATOM     29  C   UNL     1       6.109   3.998  -2.951  0.00  0.00    -0.039 C 
BRANCH  29  30
ATOM     30  C   UNL     1       5.288   2.912  -3.599  0.00  0.00    -0.046 A 
ATOM     31  C   UNL     1       3.912   3.043  -3.710  0.00  0.00    +0.005 A 
ATOM     32  C   UNL     1       3.199   2.019  -4.312  0.00  0.00    +0.020 A 
ATOM     33  C   UNL     1       3.878   0.909  -4.779  0.00  0.00    +0.111 A 
ATOM     34  N   UNL     1       5.187   0.818  -4.657  0.00  0.00    -0.263 NA
ATOM     35  C   UNL     1       5.899   1.776  -4.094  0.00  0.00    +0.112 A 
ENDBRANCH  29  30
ENDBRANCH  27  29
BRANCH  27  36
ATOM     36  C   UNL     1       7.973   4.286  -1.433  0.00  0.00    -0.001 C 
BRANCH  36  37
ATOM     37  C   UNL     1       9.083   3.415  -0.904  0.00  0.00    +0.089 A 
ATOM     38  C   UNL     1       9.985   2.751  -1.650  0.00  0.00    +0.042 A 
ATOM     39  C   UNL     1      10.836   2.068  -0.751  0.00  0.00    +0.041 A 
ATOM     40  C   UNL     1      10.399   2.349   0.489  0.00  0.00    +0.195 A 
ATOM     41  O   UNL     1       9.336   3.165   0.391  0.00  0.00    -0.470 OA
ENDBRANCH  36  37
ENDBRANCH  27  36
ENDBRANCH   1  27
TORSDOF 9
