REMARK  Name = ZINC08790041
REMARK  5 active torsions:
REMARK  status: ('A' for Active; 'I' for Inactive)
REMARK    1  A    between atoms: C_1  and  C_2
REMARK    2  A    between atoms: C_2  and  C_4
REMARK    3  A    between atoms: C_2  and  O_36
REMARK    4  A    between atoms: N_12  and  C_15
REMARK    5  A    between atoms: C_15  and  C_16
REMARK                            x       y       z     vdW  Elec       q    Type
REMARK                         _______ _______ _______ _____ _____    ______ ____
ROOT
ATOM      1  C   UNL     1       1.016   4.158  -1.322  0.00  0.00    -0.028 C 
ATOM      2  C   UNL     1       0.606   3.531   0.028  0.00  0.00    +0.075 C 
ATOM      3  C   UNL     1       1.208   2.099   0.002  0.00  0.00    +0.088 C 
ATOM      4  C   UNL     1      -0.014   1.208   0.009  0.00  0.00    +0.225 C 
ATOM      5  O   UNL     1       0.002  -0.004   0.002  0.00  0.00    -0.275 OA
ATOM      6  N   UNL     1      -1.117   1.966   0.018  0.00  0.00    -0.237 N 
ATOM      7  C   UNL     1      -0.885   3.284   0.033  0.00  0.00    +0.224 C 
ATOM      8  O   UNL     1      -1.738   4.145   0.043  0.00  0.00    -0.275 OA
ATOM      9  C   UNL     1       1.909   2.000  -1.359  0.00  0.00    +0.050 C 
ATOM     10  C   UNL     1       3.384   2.254  -1.239  0.00  0.00    -0.026 A 
ATOM     11  C   UNL     1       4.129   3.322  -0.789  0.00  0.00    +0.024 A 
ATOM     12  C   UNL     1       5.512   3.257  -0.802  0.00  0.00    +0.041 A 
ATOM     13  C   UNL     1       6.142   2.116  -1.267  0.00  0.00    +0.022 A 
ATOM     14  C   UNL     1       5.400   1.044  -1.718  0.00  0.00    +0.025 A 
ATOM     15  C   UNL     1       4.008   1.103  -1.709  0.00  0.00    +0.036 A 
ATOM     16  N   UNL     1       3.053   0.165  -2.109  0.00  0.00    -0.286 N 
ATOM     17  C   UNL     1       1.796   0.616  -1.937  0.00  0.00    +0.211 C 
ATOM     18  O   UNL     1       0.771   0.021  -2.196  0.00  0.00    -0.277 OA
ATOM     19 CL   UNL     1       6.452   4.602  -0.237  0.00  0.00    -0.084 Cl
ATOM     20  H   UNL     1       3.270  -0.710  -2.469  0.00  0.00    +0.155 HD
ATOM     21  N   UNL     1       1.264   3.004  -2.188  0.00  0.00    +0.396 N 
ATOM     22  H   UNL     1       1.879   3.269  -2.966  0.00  0.00    -0.083 HD
ATOM     23  H   UNL     1       0.378   2.642  -2.560  0.00  0.00    -0.083 HD
ENDROOT
BRANCH   1  25
ATOM     24  C   UNL     1       0.280   5.581  -3.240  0.00  0.00    +0.036 C 
ATOM     25  C   UNL     1      -0.116   5.032  -1.867  0.00  0.00    +0.098 C 
BRANCH  25  26
ATOM     26  O   UNL     1      -0.353   6.119  -0.970  0.00  0.00    -0.394 OA
ATOM     27  H   UNL     1       0.412   6.694  -0.837  0.00  0.00    +0.210 HD
ENDBRANCH  25  26
ENDBRANCH   1  25
BRANCH   6  28
ATOM     28  C   UNL     1      -2.468   1.399   0.015  0.00  0.00    +0.151 C 
BRANCH  28  29
ATOM     29  C   UNL     1      -2.928   1.193   1.435  0.00  0.00    -0.026 A 
ATOM     30  C   UNL     1      -2.681  -0.009   2.073  0.00  0.00    +0.009 A 
ATOM     31  C   UNL     1      -3.097  -0.201   3.377  0.00  0.00    +0.050 A 
ATOM     32  C   UNL     1      -3.773   0.807   4.045  0.00  0.00    +0.166 A 
ATOM     33  C   UNL     1      -4.027   2.015   3.401  0.00  0.00    +0.167 A 
ATOM     34  C   UNL     1      -3.602   2.203   2.096  0.00  0.00    +0.054 A 
ATOM     35  O   UNL     1      -4.699   2.835   4.261  0.00  0.00    -0.453 OA
ATOM     36  C   UNL     1      -4.495   2.270   5.569  0.00  0.00    +0.466 C 
ATOM     37  O   UNL     1      -4.286   0.869   5.308  0.00  0.00    -0.453 OA
ENDBRANCH  28  29
ENDBRANCH   6  28
TORSDOF 4
