REMARK  Name = ZINC65498730
REMARK  3 active torsions:
REMARK  status: ('A' for Active; 'I' for Inactive)
REMARK    1  A    between atoms: C_2  and  C_18
REMARK    2  A    between atoms: C_5  and  C_6
REMARK    3  A    between atoms: C_18  and  N_19
REMARK                            x       y       z     vdW  Elec       q    Type
REMARK                         _______ _______ _______ _____ _____    ______ ____
ROOT
ATOM      1  C   UNL     1      -0.016   1.351   0.009  0.00  0.00    +0.013 A 
ATOM      2  C   UNL     1       1.183   2.038   0.002  0.00  0.00    -0.057 A 
ATOM      3  C   UNL     1       2.343   1.336  -0.013  0.00  0.00    +0.047 A 
ATOM      4  S   UNL     1       1.754  -0.349  -0.017  0.00  0.00    -0.101 S 
ATOM      5  C   UNL     1       0.002  -0.004   0.002  0.00  0.00    -0.002 A 
ENDROOT
BRANCH   5   6
ATOM      6  C   UNL     1      -1.155  -0.969   0.008  0.00  0.00    +0.066 C 
ATOM      7  C   UNL     1      -1.089  -1.884  -1.226  0.00  0.00    +0.109 C 
ATOM      8  C   UNL     1      -1.791  -3.184  -0.998  0.00  0.00    +0.216 C 
ATOM      9  O   UNL     1      -2.078  -3.814  -1.994  0.00  0.00    -0.276 OA
ATOM     10  N   UNL     1      -2.140  -3.737   0.165  0.00  0.00    -0.289 N 
ATOM     11  C   UNL     1      -2.075  -3.001   1.420  0.00  0.00    +0.243 C 
ATOM     12  C   UNL     1      -1.067  -1.876   1.202  0.00  0.00    +0.002 C 
ATOM     13  C   UNL     1      -0.238  -1.975   2.215  0.00  0.00    +0.138 C 
ATOM     14  N   UNL     1      -0.511  -3.091   2.939  0.00  0.00    -0.160 NA
ATOM     15  N   UNL     1      -1.502  -3.744   2.538  0.00  0.00    -0.160 NA
ATOM     16  H   UNL     1      -2.446  -4.657   0.175  0.00  0.00    +0.151 HD
ENDBRANCH   5   6
BRANCH   2  17
ATOM     17  C   UNL     1       1.202   3.545   0.009  0.00  0.00    -0.042 C 
BRANCH  17  18
ATOM     18  N   UNL     1       1.221   4.027   1.396  0.00  0.00    +0.382 N 
ATOM     19  C   UNL     1       2.521   3.700   2.035  0.00  0.00    -0.078 C 
ATOM     20  C   UNL     1       2.608   4.714   3.203  0.00  0.00    -0.020 C 
ATOM     21  C   UNL     1       1.988   5.994   2.597  0.00  0.00    -0.020 C 
ATOM     22  C   UNL     1       1.118   5.503   1.425  0.00  0.00    -0.078 C 
ATOM     23  H   UNL     1       0.462   3.616   1.919  0.00  0.00    -0.081 HD
ENDBRANCH  17  18
ENDBRANCH   2  17
TORSDOF 3
