REMARK  Name = ZINC08751713
REMARK  12 active torsions:
REMARK  status: ('A' for Active; 'I' for Inactive)
REMARK    1  A    between atoms: C_1  and  C_2
REMARK    2  A    between atoms: C_2  and  C_3
REMARK    3  A    between atoms: C_2  and  C_4
REMARK    4  A    between atoms: C_4  and  C_6
REMARK    5  A    between atoms: C_4  and  S_12
REMARK    6  A    between atoms: S_12  and  C_13
REMARK    7  A    between atoms: C_16  and  C_25
REMARK    8  A    between atoms: N_17  and  C_18
REMARK    9  A    between atoms: C_25  and  O_26
REMARK   10  A    between atoms: O_26  and  C_27
REMARK   11  A    between atoms: C_30  and  O_33
REMARK   12  A    between atoms: O_33  and  C_34
REMARK                            x       y       z     vdW  Elec       q    Type
REMARK                         _______ _______ _______ _____ _____    ______ ____
ROOT
ATOM      1  C   UNL     1      -3.087   0.466   1.119  0.00  0.00    +0.197 A 
ATOM      2  N   UNL     1      -4.017  -0.364   0.706  0.00  0.00    -0.122 NA
ATOM      3  N   UNL     1      -3.944  -0.503  -0.570  0.00  0.00    -0.130 NA
ATOM      4  C   UNL     1      -2.976   0.228  -1.046  0.00  0.00    +0.176 A 
ATOM      5  N   UNL     1      -2.390   0.868   0.013  0.00  0.00    -0.269 N 
ENDROOT
BRANCH   5   6
ATOM      6  C   UNL     1      -1.304   1.756  -0.029  0.00  0.00    +0.085 A 
ATOM      7  C   UNL     1      -0.008   1.277   0.094  0.00  0.00    +0.029 A 
ATOM      8  C   UNL     1       1.059   2.153   0.048  0.00  0.00    +0.002 A 
ATOM      9  C   UNL     1       0.838   3.508  -0.116  0.00  0.00    +0.003 A 
ATOM     10  C   UNL     1      -0.452   3.991  -0.234  0.00  0.00    +0.040 A 
ATOM     11  C   UNL     1      -1.525   3.120  -0.188  0.00  0.00    +0.147 A 
ATOM     12  F   UNL     1      -2.786   3.592  -0.303  0.00  0.00    -0.203 F 
ENDBRANCH   5   6
BRANCH   1  13
ATOM     13  S   UNL     1      -2.793   0.967   2.782  0.00  0.00    -0.073 S 
BRANCH  13  14
ATOM     14  C   UNL     1      -4.177   0.142   3.608  0.00  0.00    +0.143 C 
BRANCH  14  15
ATOM     15  C   UNL     1      -5.471   0.791   3.188  0.00  0.00    +0.234 C 
ATOM     16  O   UNL     1      -5.464   1.909   2.720  0.00  0.00    -0.274 OA
ATOM     17  N   UNL     1      -6.635   0.128   3.334  0.00  0.00    -0.239 N 
ATOM     18  C   UNL     1      -7.793   0.708   2.959  0.00  0.00    +0.303 C 
ATOM     19  O   UNL     1      -7.786   1.829   2.490  0.00  0.00    -0.253 OA
ATOM     20  N   UNL     1      -8.957   0.045   3.106  0.00  0.00    -0.313 N 
ATOM     21  H   UNL     1      -6.640  -0.766   3.710  0.00  0.00    +0.159 HD
ATOM     22  H   UNL     1      -8.962  -0.849   3.481  0.00  0.00    +0.146 HD
ATOM     23  H   UNL     1      -9.790   0.463   2.836  0.00  0.00    +0.146 HD
ENDBRANCH  14  15
BRANCH  14  25
ATOM     24  C   UNL     1      -5.190  -0.419   5.822  0.00  0.00    +0.009 C 
ATOM     25  C   UNL     1      -4.013   0.265   5.124  0.00  0.00    +0.005 C 
ATOM     26  C   UNL     1      -2.706  -0.406   5.552  0.00  0.00    +0.009 C 
ENDBRANCH  14  25
ENDBRANCH  13  14
ENDBRANCH   1  13
BRANCH   4  27
ATOM     27  C   UNL     1      -2.574   0.344  -2.494  0.00  0.00    +0.305 C 
BRANCH  27  28
ATOM     28  O   UNL     1      -1.596  -0.652  -2.799  0.00  0.00    -0.484 OA
BRANCH  28  29
ATOM     29  C   UNL     1      -1.123  -0.684  -4.074  0.00  0.00    +0.121 A 
ATOM     30  C   UNL     1      -1.598   0.221  -5.012  0.00  0.00    +0.049 A 
ATOM     31  C   UNL     1      -1.115   0.191  -6.306  0.00  0.00    +0.049 A 
ATOM     32  C   UNL     1      -0.163  -0.750  -6.669  0.00  0.00    +0.120 A 
ATOM     33  C   UNL     1       0.308  -1.658  -5.732  0.00  0.00    +0.049 A 
ATOM     34  C   UNL     1      -0.172  -1.625  -4.437  0.00  0.00    +0.049 A 
BRANCH  32  35
ATOM     35  O   UNL     1       0.309  -0.782  -7.944  0.00  0.00    -0.495 OA
ATOM     36  C   UNL     1      -0.220   0.182  -8.856  0.00  0.00    +0.277 C 
ENDBRANCH  32  35
ENDBRANCH  28  29
ENDBRANCH  27  28
ENDBRANCH   4  27
TORSDOF 9
