REMARK  Name = ZINC64392145
REMARK  6 active torsions:
REMARK  status: ('A' for Active; 'I' for Inactive)
REMARK    1  A    between atoms: C_1  and  S_2
REMARK    2  A    between atoms: S_2  and  C_3
REMARK    3  A    between atoms: C_6  and  C_9
REMARK    4  A    between atoms: C_11  and  C_15
REMARK    5  A    between atoms: N_25  and  C_28
REMARK    6  A    between atoms: C_28  and  C_29
REMARK                            x       y       z     vdW  Elec       q    Type
REMARK                         _______ _______ _______ _____ _____    ______ ____
ROOT
ATOM      1  C   UNL     1       5.788  -2.494   6.444  0.00  0.00    +0.006 A 
ATOM      2  C   UNL     1       6.419  -1.859   5.385  0.00  0.00    +0.009 A 
ATOM      3  C   UNL     1       7.795  -1.824   5.311  0.00  0.00    +0.016 A 
ATOM      4  C   UNL     1       8.552  -2.433   6.309  0.00  0.00    +0.063 A 
ATOM      5  C   UNL     1       7.912  -3.077   7.383  0.00  0.00    +0.056 A 
ATOM      6  C   UNL     1       6.526  -3.096   7.443  0.00  0.00    +0.034 A 
ATOM      7  N   UNL     1       8.690  -3.675   8.363  0.00  0.00    -0.307 N 
ATOM      8  H   UNL     1       8.262  -4.123   9.109  0.00  0.00    +0.170 HD
ATOM      9  C   UNL     1      10.032  -3.639   8.288  0.00  0.00    +0.330 A 
ATOM     10  O   UNL     1      10.678  -4.175   9.168  0.00  0.00    -0.246 OA
ATOM     11  N   UNL     1      10.689  -3.037   7.284  0.00  0.00    -0.256 N 
ATOM     12  C   UNL     1      10.025  -2.426   6.279  0.00  0.00    +0.265 A 
ATOM     13  O   UNL     1      10.628  -1.883   5.373  0.00  0.00    -0.267 OA
ENDROOT
BRANCH   1  16
ATOM     14  C   UNL     1       2.985  -1.446   5.018  0.00  0.00    +0.134 C 
ATOM     15  N   UNL     1       3.716  -2.510   5.154  0.00  0.00    -0.339 N 
ATOM     16  C   UNL     1       4.283  -2.521   6.508  0.00  0.00    +0.274 C 
ATOM     17  O   UNL     1       3.789  -1.331   7.140  0.00  0.00    -0.243 OA
ATOM     18  N   UNL     1       2.985  -0.688   6.163  0.00  0.00    -0.247 N 
ATOM     19  H   UNL     1       2.511   0.149   6.286  0.00  0.00    +0.196 HD
ATOM     20  H   UNL     1       3.863  -3.186   4.474  0.00  0.00    +0.164 HD
BRANCH  14  24
ATOM     21  C   UNL     1       0.877  -0.427   1.472  0.00  0.00    +0.008 A 
ATOM     22  C   UNL     1       1.349   0.578   2.313  0.00  0.00    +0.015 A 
ATOM     23  C   UNL     1       2.032   0.250   3.462  0.00  0.00    +0.012 A 
ATOM     24  C   UNL     1       2.251  -1.091   3.784  0.00  0.00    +0.017 A 
ATOM     25  C   UNL     1       1.777  -2.097   2.940  0.00  0.00    +0.012 A 
ATOM     26  C   UNL     1       1.089  -1.764   1.794  0.00  0.00    +0.015 A 
BRANCH  21  28
ATOM     27  C   UNL     1      -0.022   1.810   0.012  0.00  0.00    +0.090 C 
ATOM     28  S   UNL     1       0.002  -0.004   0.002  0.00  0.00    -0.129 S 
ENDBRANCH  21  28
ENDBRANCH  14  24
ENDBRANCH   1  16
BRANCH  11  29
ATOM     29  C   UNL     1      12.154  -3.044   7.278  0.00  0.00    +0.165 C 
BRANCH  29  30
ATOM     30  C   UNL     1      12.647  -4.263   6.542  0.00  0.00    -0.024 A 
ATOM     31  C   UNL     1      12.869  -5.442   7.229  0.00  0.00    +0.009 A 
ATOM     32  C   UNL     1      13.321  -6.562   6.558  0.00  0.00    +0.050 A 
ATOM     33  C   UNL     1      13.554  -6.506   5.193  0.00  0.00    +0.166 A 
ATOM     34  C   UNL     1      13.331  -5.319   4.501  0.00  0.00    +0.167 A 
ATOM     35  C   UNL     1      12.872  -4.201   5.179  0.00  0.00    +0.055 A 
ATOM     36  O   UNL     1      13.630  -5.519   3.184  0.00  0.00    -0.453 OA
ATOM     37  C   UNL     1      14.426  -6.718   3.149  0.00  0.00    +0.466 C 
ATOM     38  O   UNL     1      13.993  -7.450   4.311  0.00  0.00    -0.453 OA
ENDBRANCH  29  30
ENDBRANCH  11  29
TORSDOF 5
