REMARK  Name = ZINC36207117
REMARK  15 active torsions:
REMARK  status: ('A' for Active; 'I' for Inactive)
REMARK    1  A    between atoms: C_1  and  C_2
REMARK    2  A    between atoms: C_2  and  C_3
REMARK    3  A    between atoms: C_2  and  C_4
REMARK    4  A    between atoms: C_4  and  N_5
REMARK    5  A    between atoms: N_5  and  C_6
REMARK    6  A    between atoms: N_5  and  C_26
REMARK    7  A    between atoms: C_6  and  C_7
REMARK    8  A    between atoms: C_13  and  C_18
REMARK    9  A    between atoms: C_23  and  O_24
REMARK   10  A    between atoms: O_24  and  C_25
REMARK   11  A    between atoms: C_26  and  C_27
REMARK   12  A    between atoms: C_27  and  C_29
REMARK   13  A    between atoms: C_27  and  O_37
REMARK   14  A    between atoms: C_29  and  O_30
REMARK   15  A    between atoms: O_30  and  C_31
REMARK                            x       y       z     vdW  Elec       q    Type
REMARK                         _______ _______ _______ _____ _____    ______ ____
ROOT
ATOM      1  C   UNL     1      -1.964  -2.518  -0.833  0.00  0.00    -0.003 C 
ENDROOT
BRANCH   1   2
ATOM      2  C   UNL     1      -2.034  -1.324  -1.750  0.00  0.00    +0.094 A 
ATOM      3  N   UNL     1      -3.062  -1.219  -2.632  0.00  0.00    -0.312 N 
ATOM      4  H   UNL     1      -3.737  -1.915  -2.659  0.00  0.00    +0.170 HD
ATOM      5  C   UNL     1      -3.162  -0.169  -3.467  0.00  0.00    +0.260 A 
ATOM      6  O   UNL     1      -4.090  -0.090  -4.253  0.00  0.00    -0.267 OA
ATOM      7  C   UNL     1      -2.161   0.853  -3.420  0.00  0.00    +0.080 A 
ATOM      8  C   UNL     1      -2.049   2.072  -4.211  0.00  0.00    +0.007 A 
ATOM      9  C   UNL     1      -1.001   2.901  -3.987  0.00  0.00    +0.056 A 
ATOM     10  S   UNL     1      -0.098   2.082  -2.687  0.00  0.00    -0.076 S 
ATOM     11  C   UNL     1      -1.137   0.659  -2.478  0.00  0.00    +0.116 A 
ATOM     12  N   UNL     1      -1.109  -0.405  -1.680  0.00  0.00    -0.229 NA
BRANCH   8  13
ATOM     13  C   UNL     1      -3.063   2.399  -5.242  0.00  0.00    +0.025 A 
ATOM     14  C   UNL     1      -2.705   2.438  -6.588  0.00  0.00    +0.012 A 
ATOM     15  C   UNL     1      -3.652   2.742  -7.545  0.00  0.00    +0.001 A 
ATOM     16  C   UNL     1      -4.958   3.009  -7.171  0.00  0.00    +0.004 A 
ATOM     17  C   UNL     1      -5.324   2.974  -5.839  0.00  0.00    +0.046 A 
ATOM     18  C   UNL     1      -4.384   2.664  -4.869  0.00  0.00    +0.128 A 
BRANCH  18  19
ATOM     19  O   UNL     1      -4.744   2.624  -3.559  0.00  0.00    -0.495 OA
ATOM     20  C   UNL     1      -6.111   2.905  -3.253  0.00  0.00    +0.277 C 
ENDBRANCH  18  19
ENDBRANCH   8  13
ENDBRANCH   1   2
BRANCH   1  21
ATOM     21  N   UNL     1      -0.898  -2.313   0.157  0.00  0.00    +0.386 N 
ATOM     22  H   UNL     1      -0.161  -1.758  -0.253  0.00  0.00    -0.081 HD
BRANCH  21  23
ATOM     23  C   UNL     1      -1.445  -1.614   1.327  0.00  0.00    -0.075 C 
BRANCH  23  25
ATOM     24  C   UNL     1      -2.640   0.447   2.080  0.00  0.00    +0.005 C 
ATOM     25  C   UNL     1      -1.879  -0.204   0.923  0.00  0.00    -0.034 C 
ATOM     26  C   UNL     1      -0.644   0.634   0.589  0.00  0.00    +0.005 C 
ENDBRANCH  23  25
ENDBRANCH  21  23
BRANCH  21  27
ATOM     27  C   UNL     1      -0.357  -3.614   0.571  0.00  0.00    -0.043 C 
BRANCH  27  28
ATOM     28  C   UNL     1       0.915  -3.400   1.393  0.00  0.00    +0.135 C 
BRANCH  28  29
ATOM     29  O   UNL     1       0.582  -2.776   2.634  0.00  0.00    -0.390 OA
ATOM     30  H   UNL     1       0.034  -3.322   3.214  0.00  0.00    +0.210 HD
ENDBRANCH  28  29
BRANCH  28  31
ATOM     31  C   UNL     1       1.581  -4.751   1.664  0.00  0.00    +0.258 C 
BRANCH  31  32
ATOM     32  O   UNL     1       2.828  -4.542   2.329  0.00  0.00    -0.489 OA
BRANCH  32  33
ATOM     33  C   UNL     1       3.552  -5.648   2.645  0.00  0.00    +0.121 A 
ATOM     34  C   UNL     1       3.074  -6.908   2.316  0.00  0.00    +0.045 A 
ATOM     35  C   UNL     1       3.811  -8.031   2.637  0.00  0.00    +0.004 A 
ATOM     36  C   UNL     1       5.025  -7.900   3.287  0.00  0.00    +0.000 A 
ATOM     37  C   UNL     1       5.503  -6.646   3.617  0.00  0.00    +0.004 A 
ATOM     38  C   UNL     1       4.772  -5.519   3.292  0.00  0.00    +0.045 A 
ENDBRANCH  32  33
ENDBRANCH  31  32
ENDBRANCH  28  31
ENDBRANCH  27  28
ENDBRANCH  21  27
ENDBRANCH   1  21
TORSDOF 12
