REMARK  Name = ZINC36587004
REMARK  18 active torsions:
REMARK  status: ('A' for Active; 'I' for Inactive)
REMARK    1  A    between atoms: C_1  and  C_2
REMARK    2  A    between atoms: C_2  and  C_3
REMARK    3  A    between atoms: C_3  and  C_4
REMARK    4  A    between atoms: C_3  and  C_6
REMARK    5  A    between atoms: C_4  and  C_5
REMARK    6  A    between atoms: C_6  and  C_8
REMARK    7  A    between atoms: C_6  and  N_22
REMARK    8  A    between atoms: N_10  and  C_11
REMARK    9  A    between atoms: C_11  and  S_12
REMARK   10  A    between atoms: S_12  and  C_15
REMARK   11  A    between atoms: C_18  and  C_21
REMARK   12  A    between atoms: N_22  and  C_33
REMARK   13  A    between atoms: C_23  and  C_25
REMARK   14  A    between atoms: C_29  and  O_32
REMARK   15  A    between atoms: C_30  and  O_31
REMARK   16  A    between atoms: C_33  and  C_34
REMARK   17  A    between atoms: C_33  and  C_35
REMARK   18  A    between atoms: C_33  and  C_36
REMARK                            x       y       z     vdW  Elec       q    Type
REMARK                         _______ _______ _______ _____ _____    ______ ____
ROOT
ATOM      1  C   UNL     1      -1.131  -0.681   3.862  0.00  0.00    +0.166 C 
ENDROOT
BRANCH   1   2
ATOM      2  C   UNL     1      -2.603  -1.005   3.869  0.00  0.00    +0.235 C 
ATOM      3  O   UNL     1      -3.421  -0.112   3.803  0.00  0.00    -0.274 OA
ATOM      4  N   UNL     1      -3.010  -2.287   3.951  0.00  0.00    -0.295 N 
ATOM      5  H   UNL     1      -2.358  -3.006   3.928  0.00  0.00    +0.150 HD
BRANCH   4   6
ATOM      6  C   UNL     1      -4.436  -2.597   4.074  0.00  0.00    +0.278 C 
BRANCH   6   7
ATOM      7  S   UNL     1      -5.104  -3.030   2.444  0.00  0.00    +0.013 S 
ATOM      8  O   UNL     1      -6.524  -3.053   2.486  0.00  0.00    -0.168 OA
ATOM      9  O   UNL     1      -4.421  -2.308   1.428  0.00  0.00    -0.168 OA
BRANCH   7  10
ATOM     10  C   UNL     1      -4.635  -4.710   2.194  0.00  0.00    +0.090 A 
ATOM     11  C   UNL     1      -3.482  -5.009   1.492  0.00  0.00    +0.027 A 
ATOM     12  C   UNL     1      -3.114  -6.327   1.296  0.00  0.00    +0.005 A 
ATOM     13  C   UNL     1      -3.898  -7.346   1.803  0.00  0.00    -0.050 A 
ATOM     14  C   UNL     1      -5.051  -7.047   2.506  0.00  0.00    +0.005 A 
ATOM     15  C   UNL     1      -5.417  -5.729   2.705  0.00  0.00    +0.027 A 
ATOM     16  C   UNL     1      -3.498  -8.783   1.589  0.00  0.00    +0.044 C 
ENDBRANCH   7  10
ENDBRANCH   6   7
ENDBRANCH   4   6
ENDBRANCH   1   2
BRANCH   1  17
ATOM     17  N   UNL     1      -0.951   0.771   3.941  0.00  0.00    -0.281 N 
ATOM     18  C   UNL     1      -0.213   1.305   4.935  0.00  0.00    +0.251 C 
ATOM     19  O   UNL     1       0.304   0.582   5.764  0.00  0.00    -0.270 OA
BRANCH  18  20
ATOM     20  C   UNL     1      -0.034   2.767   5.017  0.00  0.00    +0.082 A 
ATOM     21  C   UNL     1      -0.663   3.605   4.091  0.00  0.00    +0.017 A 
ATOM     22  C   UNL     1      -0.494   4.970   4.170  0.00  0.00    +0.005 A 
ATOM     23  C   UNL     1       0.298   5.520   5.166  0.00  0.00    +0.049 A 
ATOM     24  C   UNL     1       0.927   4.703   6.090  0.00  0.00    +0.159 A 
ATOM     25  C   UNL     1       0.761   3.323   6.026  0.00  0.00    +0.171 A 
BRANCH  25  26
ATOM     26  O   UNL     1       1.371   2.519   6.934  0.00  0.00    -0.503 OA
ATOM     27  H   UNL     1       2.256   2.230   6.671  0.00  0.00    +0.292 HD
ENDBRANCH  25  26
BRANCH  24  28
ATOM     28  O   UNL     1       1.703   5.251   7.064  0.00  0.00    -0.503 OA
ATOM     29  H   UNL     1       1.222   5.465   7.875  0.00  0.00    +0.292 HD
ENDBRANCH  24  28
ENDBRANCH  18  20
BRANCH  17  30
ATOM     30  C   UNL     1      -1.571   1.642   2.940  0.00  0.00    +0.030 C 
ATOM     31  C   UNL     1      -2.299   0.787   1.901  0.00  0.00    +0.031 C 
ATOM     32  C   UNL     1      -2.573   2.573   3.626  0.00  0.00    +0.031 C 
ATOM     33  C   UNL     1      -0.491   2.476   2.249  0.00  0.00    +0.031 C 
ENDBRANCH  17  30
ENDBRANCH   1  17
BRANCH   1  34
ATOM     34  C   UNL     1      -0.501  -1.203   2.569  0.00  0.00    +0.018 C 
BRANCH  34  36
ATOM     35  C   UNL     1       1.126   0.670   2.270  0.00  0.00    +0.004 C 
ATOM     36  C   UNL     1       0.983  -0.830   2.538  0.00  0.00    +0.002 C 
ENDBRANCH  34  36
BRANCH  34  37
ATOM     37  C   UNL     1      -0.645  -2.725   2.510  0.00  0.00    +0.002 C 
ATOM     38  C   UNL     1      -2.018  -3.086   1.942  0.00  0.00    +0.004 C 
ENDBRANCH  34  37
ENDBRANCH   1  34
TORSDOF 12
