REMARK  Name = ZINC09186676
REMARK  9 active torsions:
REMARK  status: ('A' for Active; 'I' for Inactive)
REMARK    1  A    between atoms: C_1  and  C_2
REMARK    2  A    between atoms: C_5  and  N_8
REMARK    3  A    between atoms: C_9  and  C_29
REMARK    4  A    between atoms: C_12  and  S_13
REMARK    5  A    between atoms: S_13  and  C_14
REMARK    6  A    between atoms: C_14  and  C_15
REMARK    7  A    between atoms: N_17  and  N_18
REMARK    8  A    between atoms: C_19  and  C_20
REMARK    9  A    between atoms: C_19  and  C_21
REMARK                            x       y       z     vdW  Elec       q    Type
REMARK                         _______ _______ _______ _____ _____    ______ ____
ROOT
ATOM      1  N   UNL     1      -7.547  -2.541   1.024  0.00  0.00    -0.270 N 
ATOM      2  C   UNL     1      -8.249  -1.355   1.040  0.00  0.00    +0.169 A 
ATOM      3  N   UNL     1      -7.379  -0.391   0.848  0.00  0.00    -0.128 NA
ATOM      4  N   UNL     1      -6.198  -0.882   0.720  0.00  0.00    -0.122 NA
ATOM      5  C   UNL     1      -6.240  -2.192   0.821  0.00  0.00    +0.197 A 
ENDROOT
BRANCH   1  10
ATOM      6  C   UNL     1      -9.643  -7.776   1.671  0.00  0.00    +0.044 C 
ATOM      7  C   UNL     1      -9.086  -6.386   1.499  0.00  0.00    -0.050 A 
ATOM      8  C   UNL     1      -8.219  -5.868   2.444  0.00  0.00    +0.005 A 
ATOM      9  C   UNL     1      -7.707  -4.594   2.289  0.00  0.00    +0.026 A 
ATOM     10  C   UNL     1      -8.064  -3.834   1.183  0.00  0.00    +0.051 A 
ATOM     11  C   UNL     1      -8.939  -4.355   0.239  0.00  0.00    +0.026 A 
ATOM     12  C   UNL     1      -9.443  -5.631   0.397  0.00  0.00    +0.005 A 
ENDBRANCH   1  10
BRANCH   2  13
ATOM     13  C   UNL     1      -9.706  -1.199   1.231  0.00  0.00    +0.020 A 
ATOM     14  C   UNL     1     -10.466  -2.260   1.725  0.00  0.00    +0.011 A 
ATOM     15  C   UNL     1     -11.825  -2.106   1.906  0.00  0.00    +0.001 A 
ATOM     16  C   UNL     1     -12.436  -0.906   1.589  0.00  0.00    +0.000 A 
ATOM     17  C   UNL     1     -11.690   0.148   1.094  0.00  0.00    +0.001 A 
ATOM     18  C   UNL     1     -10.329   0.009   0.913  0.00  0.00    +0.011 A 
ENDBRANCH   2  13
BRANCH   5  19
ATOM     19  S   UNL     1      -4.869  -3.293   0.710  0.00  0.00    -0.076 S 
BRANCH  19  20
ATOM     20  C   UNL     1      -3.532  -2.104   0.437  0.00  0.00    +0.174 C 
BRANCH  20  21
ATOM     21  C   UNL     1      -2.224  -2.841   0.307  0.00  0.00    +0.242 C 
ATOM     22  O   UNL     1      -2.197  -4.050   0.392  0.00  0.00    -0.273 OA
ATOM     23  N   UNL     1      -1.082  -2.155   0.098  0.00  0.00    -0.206 N 
ATOM     24  H   UNL     1      -1.112  -1.196  -0.043  0.00  0.00    +0.177 HD
BRANCH  23  25
ATOM     25  N   UNL     1       0.147  -2.828   0.083  0.00  0.00    -0.184 NA
ATOM     26  C   UNL     1       1.250  -2.161  -0.065  0.00  0.00    +0.065 C 
ATOM     27  C   UNL     1       2.577  -2.865   0.049  0.00  0.00    +0.068 C 
BRANCH  26  28
ATOM     28  C   UNL     1       1.205  -0.714  -0.345  0.00  0.00    +0.016 A 
ATOM     29  C   UNL     1       0.669  -0.248  -1.548  0.00  0.00    +0.012 A 
ATOM     30  C   UNL     1       0.629   1.106  -1.803  0.00  0.00    +0.021 A 
ATOM     31  C   UNL     1       1.119   2.006  -0.870  0.00  0.00    +0.042 A 
ATOM     32  C   UNL     1       1.651   1.552   0.325  0.00  0.00    +0.040 A 
ATOM     33  C   UNL     1       1.697   0.199   0.593  0.00  0.00    +0.051 A 
ATOM     34 CL   UNL     1       2.365  -0.369   2.092  0.00  0.00    -0.083 Cl
ATOM     35 CL   UNL     1       1.064   3.709  -1.200  0.00  0.00    -0.083 Cl
ENDBRANCH  26  28
ENDBRANCH  23  25
ENDBRANCH  20  21
ENDBRANCH  19  20
ENDBRANCH   5  19
TORSDOF 7
