REMARK  Name = ZINC36500889
REMARK  9 active torsions:
REMARK  status: ('A' for Active; 'I' for Inactive)
REMARK    1  A    between atoms: C_3  and  C_9
REMARK    2  A    between atoms: C_4  and  O_8
REMARK    3  A    between atoms: C_5  and  O_7
REMARK    4  A    between atoms: N_11  and  C_12
REMARK    5  A    between atoms: N_11  and  C_18
REMARK    6  A    between atoms: C_12  and  C_13
REMARK    7  A    between atoms: C_18  and  C_20
REMARK    8  A    between atoms: C_18  and  C_27
REMARK    9  A    between atoms: N_29  and  C_30
REMARK                            x       y       z     vdW  Elec       q    Type
REMARK                         _______ _______ _______ _____ _____    ______ ____
ROOT
ATOM      1  C   UNL     1       4.479   5.167  -1.247  0.00  0.00    +0.252 C 
ATOM      2  O   UNL     1       4.730   5.979  -2.116  0.00  0.00    -0.270 OA
ATOM      3  N   UNL     1       4.591   5.514   0.051  0.00  0.00    -0.275 N 
ENDROOT
BRANCH   1   6
ATOM      4  C   UNL     1       2.695   1.865  -1.191  0.00  0.00    +0.005 A 
ATOM      5  C   UNL     1       3.091   3.139  -0.847  0.00  0.00    +0.017 A 
ATOM      6  C   UNL     1       4.053   3.803  -1.612  0.00  0.00    +0.082 A 
ATOM      7  C   UNL     1       4.612   3.166  -2.727  0.00  0.00    +0.171 A 
ATOM      8  C   UNL     1       4.202   1.879  -3.062  0.00  0.00    +0.159 A 
ATOM      9  C   UNL     1       3.247   1.235  -2.294  0.00  0.00    +0.049 A 
BRANCH   8  10
ATOM     10  O   UNL     1       4.739   1.255  -4.144  0.00  0.00    -0.503 OA
ATOM     11  H   UNL     1       5.533   0.738  -3.947  0.00  0.00    +0.292 HD
ENDBRANCH   8  10
BRANCH   7  12
ATOM     12  O   UNL     1       5.547   3.801  -3.478  0.00  0.00    -0.503 OA
ATOM     13  H   UNL     1       6.456   3.650  -3.185  0.00  0.00    +0.292 HD
ENDBRANCH   7  12
ENDBRANCH   1   6
BRANCH   3  14
ATOM     14  C   UNL     1       4.737   6.923   0.423  0.00  0.00    +0.183 C 
BRANCH  14  15
ATOM     15  C   UNL     1       5.756   7.576  -0.475  0.00  0.00    +0.122 A 
ATOM     16  C   UNL     1       5.486   8.286  -1.586  0.00  0.00    +0.046 A 
ATOM     17  C   UNL     1       6.727   8.710  -2.113  0.00  0.00    +0.041 A 
ATOM     18  C   UNL     1       7.682   8.235  -1.293  0.00  0.00    +0.195 A 
ATOM     19  O   UNL     1       7.087   7.554  -0.300  0.00  0.00    -0.466 OA
ENDBRANCH  14  15
ENDBRANCH   3  14
BRANCH   3  20
ATOM     20  C   UNL     1       4.566   4.481   1.090  0.00  0.00    +0.193 C 
BRANCH  20  21
ATOM     21  C   UNL     1       3.500   4.813   2.102  0.00  0.00    -0.018 A 
ATOM     22  C   UNL     1       2.169   4.821   1.727  0.00  0.00    +0.007 A 
ATOM     23  C   UNL     1       1.191   5.126   2.655  0.00  0.00    +0.020 A 
ATOM     24  C   UNL     1       1.544   5.422   3.960  0.00  0.00    +0.041 A 
ATOM     25  C   UNL     1       2.876   5.413   4.334  0.00  0.00    +0.020 A 
ATOM     26  C   UNL     1       3.853   5.103   3.407  0.00  0.00    +0.007 A 
ATOM     27 CL   UNL     1       0.316   5.804   5.126  0.00  0.00    -0.084 Cl
ENDBRANCH  20  21
BRANCH  20  28
ATOM     28  C   UNL     1       5.907   4.423   1.773  0.00  0.00    +0.238 C 
ATOM     29  O   UNL     1       6.699   5.331   1.633  0.00  0.00    -0.273 OA
ATOM     30  N   UNL     1       6.228   3.363   2.541  0.00  0.00    -0.311 N 
ATOM     31  H   UNL     1       5.594   2.637   2.653  0.00  0.00    +0.149 HD
BRANCH  30  32
ATOM     32  C   UNL     1       7.532   3.307   3.206  0.00  0.00    +0.073 C 
ATOM     33  C   UNL     1       8.572   2.736   2.240  0.00  0.00    +0.022 C 
ATOM     34  C   UNL     1       9.934   2.678   2.934  0.00  0.00    +0.002 C 
ATOM     35  C   UNL     1       9.839   1.780   4.169  0.00  0.00    +0.000 C 
ATOM     36  C   UNL     1       8.799   2.351   5.135  0.00  0.00    +0.002 C 
ATOM     37  C   UNL     1       7.436   2.409   4.441  0.00  0.00    +0.022 C 
ENDBRANCH  30  32
ENDBRANCH  20  28
ENDBRANCH   3  20
TORSDOF 9
