REMARK  Name = ZINC36533568
REMARK  15 active torsions:
REMARK  status: ('A' for Active; 'I' for Inactive)
REMARK    1  A    between atoms: C_2  and  C_3
REMARK    2  A    between atoms: C_3  and  O_4
REMARK    3  A    between atoms: O_4  and  C_5
REMARK    4  A    between atoms: N_7  and  C_8
REMARK    5  A    between atoms: C_10  and  O_39
REMARK    6  A    between atoms: C_12  and  O_22
REMARK    7  A    between atoms: C_14  and  C_20
REMARK    8  A    between atoms: C_17  and  O_19
REMARK    9  A    between atoms: C_20  and  O_21
REMARK   10  A    between atoms: O_22  and  C_23
REMARK   11  A    between atoms: C_25  and  O_38
REMARK   12  A    between atoms: C_27  and  O_37
REMARK   13  A    between atoms: C_29  and  O_36
REMARK   14  A    between atoms: C_31  and  C_34
REMARK   15  A    between atoms: C_34  and  O_35
REMARK                            x       y       z     vdW  Elec       q    Type
REMARK                         _______ _______ _______ _____ _____    ______ ____
ROOT
ATOM      1  C   UNL     1      -4.719  -4.178  -2.444  0.00  0.00    +0.163 C 
ATOM      2  C   UNL     1      -4.549  -4.813  -3.828  0.00  0.00    +0.171 C 
ATOM      3  C   UNL     1      -4.817  -6.317  -3.724  0.00  0.00    +0.183 C 
ATOM      4  C   UNL     1      -3.871  -6.926  -2.685  0.00  0.00    +0.178 C 
ATOM      5  O   UNL     1      -4.059  -6.270  -1.430  0.00  0.00    -0.341 OA
ATOM      6  C   UNL     1      -3.778  -4.869  -1.454  0.00  0.00    +0.271 C 
ENDROOT
BRANCH   1   9
ATOM      7  C   UNL     1      -4.920  -1.894  -1.621  0.00  0.00    +0.401 C 
ATOM      8  O   UNL     1      -5.666  -2.303  -0.753  0.00  0.00    -0.226 OA
ATOM      9  N   UNL     1      -4.393  -2.752  -2.517  0.00  0.00    -0.271 N 
ATOM     10  H   UNL     1      -3.798  -2.425  -3.209  0.00  0.00    +0.153 HD
BRANCH   7  11
ATOM     11  O   UNL     1      -4.621  -0.583  -1.687  0.00  0.00    -0.446 OA
BRANCH  11  12
ATOM     12  C   UNL     1      -5.215   0.269  -0.706  0.00  0.00    +0.261 C 
BRANCH  12  14
ATOM     13  C   UNL     1      -5.640   2.666  -0.893  0.00  0.00    +0.007 C 
ATOM     14  C   UNL     1      -4.768   1.690  -0.937  0.00  0.00    +0.006 C 
ENDBRANCH  12  14
ENDBRANCH  11  12
ENDBRANCH   7  11
ENDBRANCH   1   9
BRANCH   6  15
ATOM     15  O   UNL     1      -3.973  -4.319  -0.149  0.00  0.00    -0.365 OA
ATOM     16  H   UNL     1      -3.408  -4.711   0.531  0.00  0.00    +0.213 HD
ENDBRANCH   6  15
BRANCH   2  17
ATOM     17  O   UNL     1      -3.216  -4.594  -4.293  0.00  0.00    -0.387 OA
ATOM     18  H   UNL     1      -2.977  -3.661  -4.377  0.00  0.00    +0.210 HD
ENDBRANCH   2  17
BRANCH   4  19
ATOM     19  C   UNL     1      -4.172  -8.418  -2.532  0.00  0.00    +0.190 C 
BRANCH  19  20
ATOM     20  O   UNL     1      -3.203  -9.013  -1.668  0.00  0.00    -0.392 OA
ATOM     21  H   UNL     1      -3.285  -9.973  -1.586  0.00  0.00    +0.210 HD
ENDBRANCH  19  20
ENDBRANCH   4  19
BRANCH   3  22
ATOM     22  O   UNL     1      -4.591  -6.932  -4.994  0.00  0.00    -0.340 OA
BRANCH  22  23
ATOM     23  C   UNL     1      -5.734  -7.605  -5.525  0.00  0.00    +0.282 C 
ATOM     24  C   UNL     1      -5.670  -7.591  -7.055  0.00  0.00    +0.201 C 
ATOM     25  C   UNL     1      -4.425  -8.357  -7.513  0.00  0.00    +0.179 C 
ATOM     26  C   UNL     1      -4.477  -9.779  -6.946  0.00  0.00    +0.177 C 
ATOM     27  C   UNL     1      -4.587  -9.709  -5.420  0.00  0.00    +0.178 C 
ATOM     28  O   UNL     1      -5.749  -8.957  -5.062  0.00  0.00    -0.341 OA
BRANCH  26  29
ATOM     29  O   UNL     1      -5.613 -10.464  -7.476  0.00  0.00    -0.386 OA
ATOM     30  H   UNL     1      -5.611 -10.542  -8.440  0.00  0.00    +0.210 HD
ENDBRANCH  26  29
BRANCH  25  31
ATOM     31  O   UNL     1      -3.253  -7.693  -7.036  0.00  0.00    -0.386 OA
ATOM     32  H   UNL     1      -3.161  -6.784  -7.352  0.00  0.00    +0.210 HD
ENDBRANCH  25  31
BRANCH  24  33
ATOM     33  O   UNL     1      -5.599  -6.241  -7.518  0.00  0.00    -0.384 OA
ATOM     34  H   UNL     1      -6.355  -5.697  -7.260  0.00  0.00    +0.210 HD
ENDBRANCH  24  33
BRANCH  27  35
ATOM     35  C   UNL     1      -4.699 -11.124  -4.851  0.00  0.00    +0.190 C 
BRANCH  35  36
ATOM     36  O   UNL     1      -4.689 -11.065  -3.423  0.00  0.00    -0.392 OA
ATOM     37  H   UNL     1      -4.684 -11.931  -2.993  0.00  0.00    +0.210 HD
ENDBRANCH  35  36
ENDBRANCH  27  35
ENDBRANCH  22  23
ENDBRANCH   3  22
TORSDOF 15
