REMARK  Name = ZINC35598040
REMARK  7 active torsions:
REMARK  status: ('A' for Active; 'I' for Inactive)
REMARK    1  A    between atoms: C_1  and  O_2
REMARK    2  A    between atoms: O_2  and  C_3
REMARK    3  A    between atoms: C_6  and  S_9
REMARK    4  A    between atoms: S_9  and  N_12
REMARK    5  A    between atoms: N_12  and  C_13
REMARK    6  A    between atoms: C_16  and  C_19
REMARK    7  A    between atoms: C_19  and  N_20
REMARK                            x       y       z     vdW  Elec       q    Type
REMARK                         _______ _______ _______ _____ _____    ______ ____
ROOT
ATOM      1  C   UNL     1      -4.773  -3.922  -2.263  0.00  0.00    +0.048 A 
ATOM      2  C   UNL     1      -3.403  -3.967  -2.041  0.00  0.00    +0.025 A 
ATOM      3  C   UNL     1      -2.615  -4.838  -2.767  0.00  0.00    +0.007 A 
ATOM      4  C   UNL     1      -3.188  -5.665  -3.716  0.00  0.00    -0.033 A 
ATOM      5  C   UNL     1      -4.552  -5.623  -3.940  0.00  0.00    +0.007 A 
ATOM      6  C   UNL     1      -5.347  -4.758  -3.213  0.00  0.00    +0.025 A 
ENDROOT
BRANCH   1   7
ATOM      7  N   UNL     1      -5.573  -3.043  -1.530  0.00  0.00    -0.216 N 
ATOM      8  H   UNL     1      -5.919  -2.238  -1.948  0.00  0.00    +0.174 HD
BRANCH   7   9
ATOM      9  S   UNL     1      -5.932  -3.373   0.052  0.00  0.00    +0.072 S 
ATOM     10  O   UNL     1      -6.765  -2.317   0.509  0.00  0.00    -0.150 OA
ATOM     11  O   UNL     1      -4.704  -3.703   0.687  0.00  0.00    -0.150 OA
BRANCH   9  15
ATOM     12  C   UNL     1      -8.461  -7.129   0.097  0.00  0.00    +0.120 A 
ATOM     13  C   UNL     1      -7.078  -7.222   0.148  0.00  0.00    +0.047 A 
ATOM     14  C   UNL     1      -6.309  -6.075   0.134  0.00  0.00    +0.032 A 
ATOM     15  C   UNL     1      -6.916  -4.835   0.069  0.00  0.00    +0.109 A 
ATOM     16  C   UNL     1      -8.294  -4.739   0.018  0.00  0.00    +0.032 A 
ATOM     17  C   UNL     1      -9.068  -5.883   0.026  0.00  0.00    +0.047 A 
BRANCH  12  19
ATOM     18  C   UNL     1      -8.528  -9.504   0.184  0.00  0.00    +0.277 C 
ATOM     19  O   UNL     1      -9.220  -8.256   0.110  0.00  0.00    -0.495 OA
ENDBRANCH  12  19
ENDBRANCH   9  15
ENDBRANCH   7   9
ENDBRANCH   1   7
BRANCH   4  20
ATOM     20  C   UNL     1      -2.325  -6.613  -4.507  0.00  0.00    +0.119 C 
BRANCH  20  21
ATOM     21  N   UNL     1      -2.233  -7.897  -3.800  0.00  0.00    -0.295 NA
ATOM     22  C   UNL     1      -1.520  -7.746  -2.524  0.00  0.00    +0.103 C 
ATOM     23  C   UNL     1      -1.603  -9.058  -1.738  0.00  0.00    +0.122 C 
ATOM     24  N   UNL     1      -1.117 -10.149  -2.596  0.00  0.00    -0.314 N 
ATOM     25  C   UNL     1      -1.688 -10.280  -3.945  0.00  0.00    +0.122 C 
ATOM     26  C   UNL     1      -1.602  -8.920  -4.645  0.00  0.00    +0.103 C 
ATOM     27  C   UNL     1      -0.143 -11.033  -2.145  0.00  0.00    +0.099 A 
ATOM     28  C   UNL     1       0.467 -10.816  -0.913  0.00  0.00    +0.042 A 
ATOM     29  C   UNL     1       1.434 -11.703  -0.476  0.00  0.00    +0.005 A 
ATOM     30  C   UNL     1       1.760 -12.781  -1.289  0.00  0.00    +0.018 A 
ATOM     31  C   UNL     1       1.115 -12.935  -2.499  0.00  0.00    +0.084 A 
ATOM     32  N   UNL     1       0.192 -12.076  -2.888  0.00  0.00    -0.350 N 
ATOM     33  H   UNL     1      -0.249 -12.210  -3.742  0.00  0.00    +0.166 HD
ENDBRANCH  20  21
ENDBRANCH   4  20
TORSDOF 6
