REMARK  Name = ZINC63584019
REMARK  5 active torsions:
REMARK  status: ('A' for Active; 'I' for Inactive)
REMARK    1  A    between atoms: C_1  and  C_2
REMARK    2  A    between atoms: C_3  and  N_25
REMARK    3  A    between atoms: C_5  and  C_9
REMARK    4  A    between atoms: C_14  and  N_17
REMARK    5  A    between atoms: N_17  and  C_18
REMARK                            x       y       z     vdW  Elec       q    Type
REMARK                         _______ _______ _______ _____ _____    ______ ____
ROOT
ATOM      1  C   UNL     1      -0.071  -4.194  -0.005  0.00  0.00    +0.247 C 
ATOM      2  O   UNL     1      -0.135  -2.980  -0.003  0.00  0.00    -0.270 OA
ATOM      3  N   UNL     1      -0.052  -4.869   1.161  0.00  0.00    -0.297 N 
ATOM      4  C   UNL     1      -0.022  -4.151   2.443  0.00  0.00    +0.110 C 
ATOM      5  C   UNL     1       1.159  -4.668   3.270  0.00  0.00    +0.041 C 
ATOM      6  C   UNL     1       1.054  -6.189   3.405  0.00  0.00    +0.073 C 
ATOM      7  C   UNL     1       1.118  -6.832   2.018  0.00  0.00    +0.041 C 
ATOM      8  C   UNL     1      -0.068  -6.338   1.176  0.00  0.00    +0.110 C 
ENDROOT
BRANCH   1  13
ATOM      9  C   UNL     1       0.159  -7.054  -4.995  0.00  0.00    +0.049 C 
ATOM     10  C   UNL     1       0.098  -6.306  -3.688  0.00  0.00    +0.015 A 
ATOM     11  C   UNL     1       0.896  -5.193  -3.494  0.00  0.00    +0.133 A 
ATOM     12  C   UNL     1       0.846  -4.503  -2.300  0.00  0.00    +0.046 A 
ATOM     13  C   UNL     1      -0.013  -4.929  -1.286  0.00  0.00    +0.042 A 
ATOM     14  C   UNL     1      -0.817  -6.053  -1.486  0.00  0.00    +0.051 A 
ATOM     15  C   UNL     1      -0.761  -6.732  -2.688  0.00  0.00    +0.129 A 
ATOM     16  F   UNL     1      -1.542  -7.817  -2.886  0.00  0.00    -0.205 F 
BRANCH  11  17
ATOM     17  N   UNL     1       1.807  -4.741  -4.570  0.00  0.00    +0.057 N 
ATOM     18  O   UNL     1       2.903  -4.312  -4.293  0.00  0.00    -0.126 OA
ATOM     19  O   UNL     1       1.455  -4.802  -5.725  0.00  0.00    -0.126 OA
ENDBRANCH  11  17
ENDBRANCH   1  13
BRANCH   6  20
ATOM     20  N   UNL     1       2.163  -6.684   4.224  0.00  0.00    -0.341 N 
ATOM     21  H   UNL     1       2.988  -6.176   4.282  0.00  0.00    +0.146 HD
BRANCH  20  22
ATOM     22  C   UNL     1       2.034  -7.889   4.922  0.00  0.00    +0.027 A 
ATOM     23  C   UNL     1       0.857  -8.620   4.835  0.00  0.00    +0.026 A 
ATOM     24  C   UNL     1       0.731  -9.810   5.524  0.00  0.00    +0.040 A 
ATOM     25  C   UNL     1       1.778 -10.274   6.302  0.00  0.00    +0.124 A 
ATOM     26  C   UNL     1       2.953  -9.547   6.391  0.00  0.00    +0.040 A 
ATOM     27  C   UNL     1       3.085  -8.359   5.699  0.00  0.00    +0.026 A 
ATOM     28  F   UNL     1       1.654 -11.439   6.976  0.00  0.00    -0.205 F 
ENDBRANCH  20  22
ENDBRANCH   6  20
TORSDOF 4
