REMARK  Name = ZINC16011523
REMARK  4 active torsions:
REMARK  status: ('A' for Active; 'I' for Inactive)
REMARK    1  A    between atoms: C_1  and  C_2
REMARK    2  A    between atoms: C_12  and  C_29
REMARK    3  A    between atoms: C_29  and  C_31
REMARK    4  A    between atoms: C_35  and  N_37
REMARK                            x       y       z     vdW  Elec       q    Type
REMARK                         _______ _______ _______ _____ _____    ______ ____
ROOT
ATOM      1  C   UNL     1       4.117   8.458   3.372  0.00  0.00    +0.045 C 
ATOM      2  C   UNL     1       4.188   7.069   2.792  0.00  0.00    -0.029 A 
ATOM      3  C   UNL     1       5.286   6.272   3.044  0.00  0.00    +0.005 A 
ATOM      4  C   UNL     1       5.359   4.996   2.517  0.00  0.00    +0.001 A 
ATOM      5  C   UNL     1       4.326   4.515   1.732  0.00  0.00    +0.004 A 
ATOM      6  C   UNL     1       3.229   5.306   1.478  0.00  0.00    -0.027 A 
ATOM      7  C   UNL     1       3.144   6.592   2.002  0.00  0.00    +0.039 A 
ATOM      8  N   UNL     1       1.947   7.195   1.610  0.00  0.00    -0.286 N 
ATOM      9  C   UNL     1       1.199   6.385   0.837  0.00  0.00    +0.212 C 
ATOM     10  O   UNL     1       0.117   6.644   0.354  0.00  0.00    -0.277 OA
ATOM     11  C   UNL     1       1.966   5.097   0.686  0.00  0.00    +0.052 C 
ATOM     12  C   UNL     1       1.163   3.913   1.238  0.00  0.00    +0.080 C 
ATOM     13  C   UNL     1       0.646   3.170   0.000  0.00  0.00    +0.071 C 
ATOM     14  C   UNL     1      -0.855   3.081   0.003  0.00  0.00    -0.012 A 
ATOM     15  C   UNL     1      -1.859   4.022   0.017  0.00  0.00    +0.006 A 
ATOM     16  C   UNL     1      -3.184   3.622   0.015  0.00  0.00    +0.000 A 
ATOM     17  C   UNL     1      -3.495   2.274  -0.001  0.00  0.00    +0.002 A 
ATOM     18  C   UNL     1      -2.492   1.328  -0.015  0.00  0.00    +0.023 A 
ATOM     19  C   UNL     1      -1.156   1.722  -0.018  0.00  0.00    +0.038 A 
ATOM     20  N   UNL     1       0.019   0.967  -0.024  0.00  0.00    -0.285 N 
ATOM     21  C   UNL     1       1.121   1.741  -0.016  0.00  0.00    +0.227 C 
ATOM     22  O   UNL     1       2.272   1.361  -0.020  0.00  0.00    -0.275 OA
ATOM     23  C   UNL     1       1.160   3.940  -1.220  0.00  0.00    -0.046 C 
ATOM     24  C   UNL     1       3.497   4.006  -0.849  0.00  0.00    -0.076 C 
ATOM     25  C   UNL     1       3.308   3.278  -2.204  0.00  0.00    -0.020 C 
ATOM     26  C   UNL     1       1.798   2.948  -2.212  0.00  0.00    -0.016 C 
ATOM     27  H   UNL     1       1.684   8.093   1.865  0.00  0.00    +0.155 HD
ATOM     28  H   UNL     1       0.039  -0.003  -0.036  0.00  0.00    +0.155 HD
ATOM     29  N   UNL     1       2.239   4.774  -0.726  0.00  0.00    +0.395 N 
ATOM     30  H   UNL     1       2.303   5.640  -1.274  0.00  0.00    -0.079 HD
ENDROOT
BRANCH  12  31
ATOM     31  C   UNL     1       2.053   3.012   2.054  0.00  0.00    +0.167 C 
ATOM     32  O   UNL     1       3.002   2.464   1.535  0.00  0.00    -0.292 OA
BRANCH  31  33
ATOM     33  C   UNL     1       1.771   2.797   3.483  0.00  0.00    +0.020 A 
ATOM     34  C   UNL     1       0.680   3.431   4.087  0.00  0.00    +0.011 A 
ATOM     35  C   UNL     1       0.420   3.221   5.424  0.00  0.00    +0.003 A 
ATOM     36  C   UNL     1       1.240   2.393   6.171  0.00  0.00    +0.033 A 
ATOM     37  C   UNL     1       2.323   1.765   5.582  0.00  0.00    +0.127 A 
ATOM     38  C   UNL     1       2.594   1.962   4.244  0.00  0.00    +0.044 A 
BRANCH  37  39
ATOM     39  N   UNL     1       3.193   0.882   6.389  0.00  0.00    +0.056 N 
ATOM     40  O   UNL     1       4.148   0.329   5.872  0.00  0.00    -0.126 OA
ATOM     41  O   UNL     1       2.955   0.707   7.571  0.00  0.00    -0.126 OA
ENDBRANCH  37  39
ENDBRANCH  31  33
ENDBRANCH  12  31
TORSDOF 3
