REMARK  Name = ZINC11804368
REMARK  4 active torsions:
REMARK  status: ('A' for Active; 'I' for Inactive)
REMARK    1  A    between atoms: C_1  and  C_2
REMARK    2  A    between atoms: C_2  and  C_4
REMARK    3  A    between atoms: C_2  and  N_11
REMARK    4  A    between atoms: C_7  and  C_9
REMARK                            x       y       z     vdW  Elec       q    Type
REMARK                         _______ _______ _______ _____ _____    ______ ____
ROOT
ATOM      1  C   UNL     1      -3.269   2.851   0.977  0.00  0.00    +0.036 C 
ATOM      2  C   UNL     1      -2.173   1.787   0.897  0.00  0.00    +0.136 C 
ENDROOT
BRANCH   2   3
ATOM      3  N   UNL     1      -1.098   2.255   0.012  0.00  0.00    -0.320 N 
ATOM      4  C   UNL     1      -0.661   3.619   0.384  0.00  0.00    +0.110 C 
ATOM      5  C   UNL     1       0.833   3.615  -0.013  0.00  0.00    +0.056 C 
ATOM      6  C   UNL     1       1.198   2.146   0.061  0.00  0.00    -0.025 A 
ATOM      7  C   UNL     1       0.017   1.412   0.087  0.00  0.00    +0.034 A 
ATOM      8  C   UNL     1       0.085   0.022   0.170  0.00  0.00    +0.023 A 
ATOM      9  C   UNL     1       1.309  -0.611   0.220  0.00  0.00    +0.002 A 
ATOM     10  C   UNL     1       2.478   0.128   0.189  0.00  0.00    +0.000 A 
ATOM     11  C   UNL     1       2.419   1.507   0.109  0.00  0.00    +0.005 A 
ENDBRANCH   2   3
BRANCH   2  12
ATOM     12  C   UNL     1      -1.615   1.536   2.275  0.00  0.00    +0.126 A 
ATOM     13  C   UNL     1      -1.859   0.446   3.036  0.00  0.00    +0.047 A 
ATOM     14  C   UNL     1      -1.150   0.613   4.235  0.00  0.00    +0.057 A 
ATOM     15  C   UNL     1      -0.501   1.812   4.144  0.00  0.00    +0.216 A 
ATOM     16  O   UNL     1      -0.793   2.354   2.944  0.00  0.00    -0.451 OA
BRANCH  15  17
ATOM     17  C   UNL     1       0.364   2.403   5.168  0.00  0.00    +0.421 C 
ATOM     18  O   UNL     1       0.556   1.814   6.215  0.00  0.00    -0.237 OA
ATOM     19  O   UNL     1       0.946   3.600   4.951  0.00  0.00    -0.237 OA
ENDBRANCH  15  17
ENDBRANCH   2  12
TORSDOF 3
