REMARK  Name = ZINC36660331
REMARK  11 active torsions:
REMARK  status: ('A' for Active; 'I' for Inactive)
REMARK    1  A    between atoms: C_1  and  C_2
REMARK    2  A    between atoms: C_2  and  O_3
REMARK    3  A    between atoms: O_3  and  C_4
REMARK    4  A    between atoms: C_4  and  C_6
REMARK    5  A    between atoms: C_10  and  N_11
REMARK    6  A    between atoms: C_12  and  C_14
REMARK    7  A    between atoms: N_19  and  S_20
REMARK    8  A    between atoms: S_20  and  C_23
REMARK    9  A    between atoms: N_31  and  C_34
REMARK   10  A    between atoms: C_34  and  C_35
REMARK   11  A    between atoms: C_34  and  C_36
REMARK                            x       y       z     vdW  Elec       q    Type
REMARK                         _______ _______ _______ _____ _____    ______ ____
ROOT
ATOM      1  N   UNL     1      -0.580  -2.363  -4.021  0.00  0.00    -0.278 N 
ATOM      2  C   UNL     1      -1.083  -2.687  -5.228  0.00  0.00    +0.236 C 
ATOM      3  O   UNL     1      -0.356  -3.141  -6.086  0.00  0.00    -0.274 OA
ATOM      4  H   UNL     1      -1.161  -2.000  -3.334  0.00  0.00    +0.155 HD
ENDROOT
BRANCH   1   9
ATOM      5  C   UNL     1       1.456  -2.274  -2.585  0.00  0.00    +0.091 A 
ATOM      6  C   UNL     1       2.876  -2.567  -2.568  0.00  0.00    -0.025 A 
ATOM      7  C   UNL     1       3.354  -3.073  -3.727  0.00  0.00    -0.021 A 
ATOM      8  S   UNL     1       1.947  -3.154  -4.793  0.00  0.00    -0.079 S 
ATOM      9  C   UNL     1       0.769  -2.549  -3.760  0.00  0.00    +0.086 A 
ATOM     10  C   UNL     1       4.772  -3.463  -4.003  0.00  0.00    -0.035 C 
ATOM     11  N   UNL     1       5.628  -2.861  -2.964  0.00  0.00    +0.384 N 
ATOM     12  C   UNL     1       5.082  -3.168  -1.635  0.00  0.00    -0.073 C 
ATOM     13  C   UNL     1       3.809  -2.352  -1.385  0.00  0.00    +0.018 C 
ATOM     14  H   UNL     1       5.657  -1.860  -3.091  0.00  0.00    -0.081 HD
BRANCH  11  15
ATOM     15  C   UNL     1       6.987  -3.407  -3.073  0.00  0.00    -0.074 C 
ATOM     16  C   UNL     1       7.505  -3.205  -4.498  0.00  0.00    -0.014 C 
ATOM     17  C   UNL     1       7.908  -2.684  -2.088  0.00  0.00    -0.014 C 
ENDBRANCH  11  15
BRANCH   5  18
ATOM     18  C   UNL     1       0.776  -1.719  -1.413  0.00  0.00    +0.342 C 
ATOM     19  O   UNL     1       0.292  -2.463  -0.582  0.00  0.00    -0.245 OA
BRANCH  18  20
ATOM     20  O   UNL     1       0.686  -0.382  -1.256  0.00  0.00    -0.461 OA
BRANCH  20  22
ATOM     21  C   UNL     1       0.007   1.620  -0.085  0.00  0.00    +0.048 C 
ATOM     22  C   UNL     1       0.009   0.090  -0.090  0.00  0.00    +0.229 C 
ENDBRANCH  20  22
ENDBRANCH  18  20
ENDBRANCH   5  18
ENDBRANCH   1   9
BRANCH   2  23
ATOM     23  C   UNL     1      -2.550  -2.486  -5.512  0.00  0.00    +0.166 C 
ATOM     24  C   UNL     1      -2.906  -0.989  -5.393  0.00  0.00    +0.031 C 
ATOM     25  C   UNL     1      -2.860  -0.503  -6.865  0.00  0.00    +0.019 C 
ATOM     26  C   UNL     1      -3.403  -1.742  -7.620  0.00  0.00    +0.110 C 
ATOM     27  N   UNL     1      -2.855  -2.903  -6.888  0.00  0.00    -0.165 NA
BRANCH  27  28
ATOM     28  S   UNL     1      -2.619  -4.418  -7.512  0.00  0.00    +0.062 S 
ATOM     29  O   UNL     1      -2.498  -4.264  -8.919  0.00  0.00    -0.153 OA
ATOM     30  O   UNL     1      -1.608  -5.030  -6.723  0.00  0.00    -0.153 OA
BRANCH  28  31
ATOM     31  C   UNL     1      -4.099  -5.333  -7.232  0.00  0.00    +0.106 A 
ATOM     32  C   UNL     1      -4.254  -6.055  -6.063  0.00  0.00    +0.031 A 
ATOM     33  C   UNL     1      -5.414  -6.772  -5.842  0.00  0.00    +0.040 A 
ATOM     34  C   UNL     1      -6.422  -6.768  -6.791  0.00  0.00    +0.124 A 
ATOM     35  C   UNL     1      -6.266  -6.044  -7.961  0.00  0.00    +0.040 A 
ATOM     36  C   UNL     1      -5.107  -5.323  -8.178  0.00  0.00    +0.031 A 
ATOM     37  F   UNL     1      -7.556  -7.469  -6.576  0.00  0.00    -0.205 F 
ENDBRANCH  28  31
ENDBRANCH  27  28
ENDBRANCH   2  23
TORSDOF 8
