REMARK  Name = ZINC01124179
REMARK  7 active torsions:
REMARK  status: ('A' for Active; 'I' for Inactive)
REMARK    1  A    between atoms: C_1  and  C_2
REMARK    2  A    between atoms: C_6  and  C_10
REMARK    3  A    between atoms: C_7  and  O_8
REMARK    4  A    between atoms: O_8  and  C_9
REMARK    5  A    between atoms: N_12  and  C_13
REMARK    6  A    between atoms: C_13  and  N_15
REMARK    7  A    between atoms: N_15  and  C_16
REMARK                            x       y       z     vdW  Elec       q    Type
REMARK                         _______ _______ _______ _____ _____    ______ ____
ROOT
ATOM      1  C   UNL     1       4.746   4.737  -0.281  0.00  0.00    +0.141 C 
ATOM      2  S   UNL     1       4.704   6.419  -0.599  0.00  0.00    -0.018 S 
ENDROOT
BRANCH   1   5
ATOM      3  C   UNL     1       2.428   4.631  -0.533  0.00  0.00    +0.253 C 
ATOM      4  O   UNL     1       2.398   5.826  -0.759  0.00  0.00    -0.270 OA
ATOM      5  N   UNL     1       3.603   4.022  -0.282  0.00  0.00    -0.263 N 
ATOM      6  H   UNL     1       3.627   3.070  -0.102  0.00  0.00    +0.157 HD
BRANCH   3  12
ATOM      7  C   UNL     1      -2.538   4.406  -1.071  0.00  0.00    +0.047 C 
ATOM      8  C   UNL     1      -1.218   3.735  -0.792  0.00  0.00    -0.007 A 
ATOM      9  C   UNL     1      -1.174   2.378  -0.540  0.00  0.00    +0.022 A 
ATOM     10  C   UNL     1       0.034   1.752  -0.277  0.00  0.00    +0.019 A 
ATOM     11  C   UNL     1       1.207   2.477  -0.275  0.00  0.00    +0.032 A 
ATOM     12  C   UNL     1       1.177   3.850  -0.534  0.00  0.00    +0.080 A 
ATOM     13  C   UNL     1      -0.048   4.479  -0.794  0.00  0.00    +0.135 A 
ATOM     14 BR   UNL     1       0.075  -0.106   0.073  0.00  0.00    -0.050 Br
BRANCH  13  15
ATOM     15  O   UNL     1      -0.089   5.812  -1.046  0.00  0.00    -0.494 OA
ATOM     16  C   UNL     1       0.037   6.218  -2.411  0.00  0.00    +0.277 C 
ENDBRANCH  13  15
ENDBRANCH   3  12
ENDBRANCH   1   5
BRANCH   1  17
ATOM     17  N   UNL     1       5.922   4.128  -0.030  0.00  0.00    -0.297 N 
ATOM     18  H   UNL     1       5.938   3.193   0.229  0.00  0.00    +0.154 HD
BRANCH  17  19
ATOM     19  C   UNL     1       7.120   4.844  -0.143  0.00  0.00    +0.035 A 
ATOM     20  C   UNL     1       7.309   5.716  -1.209  0.00  0.00    +0.025 A 
ATOM     21  C   UNL     1       8.485   6.429  -1.323  0.00  0.00    +0.029 A 
ATOM     22  C   UNL     1       9.487   6.267  -0.378  0.00  0.00    +0.067 A 
ATOM     23  C   UNL     1       9.302   5.388   0.691  0.00  0.00    +0.069 A 
ATOM     24  C   UNL     1       8.117   4.678   0.806  0.00  0.00    +0.051 A 
ATOM     25  N   UNL     1      10.463   5.439   1.460  0.00  0.00    -0.306 N 
ATOM     26  H   UNL     1      10.629   4.934   2.271  0.00  0.00    +0.170 HD
ATOM     27  C   UNL     1      11.315   6.309   0.886  0.00  0.00    +0.325 A 
ATOM     28  O   UNL     1      12.422   6.588   1.308  0.00  0.00    -0.247 OA
ATOM     29  N   UNL     1      10.756   6.826  -0.225  0.00  0.00    -0.306 N 
ATOM     30  H   UNL     1      11.165   7.476  -0.817  0.00  0.00    +0.170 HD
ENDBRANCH  17  19
ENDBRANCH   1  17
TORSDOF 5
