REMARK  Name = ZINC09252401
REMARK  4 active torsions:
REMARK  status: ('A' for Active; 'I' for Inactive)
REMARK    1  A    between atoms: C_4  and  N_7
REMARK    2  A    between atoms: C_22  and  C_24
REMARK    3  A    between atoms: C_24  and  C_25
REMARK    4  A    between atoms: N_27  and  C_28
REMARK                            x       y       z     vdW  Elec       q    Type
REMARK                         _______ _______ _______ _____ _____    ______ ____
ROOT
ATOM      1  N   UNL     1       1.410   0.764  -3.164  0.00  0.00    -0.269 N 
ATOM      2  C   UNL     1       1.159   1.462  -2.038  0.00  0.00    +0.307 C 
ATOM      3  O   UNL     1       0.438   0.991  -1.180  0.00  0.00    -0.252 OA
ATOM      4  N   UNL     1       1.711   2.679  -1.863  0.00  0.00    -0.269 N 
ATOM      5  C   UNL     1       2.687   3.226  -2.812  0.00  0.00    +0.099 C 
ATOM      6  C   UNL     1       2.936   2.269  -3.975  0.00  0.00    +0.024 C 
ATOM      7  C   UNL     1       3.953   2.908  -4.927  0.00  0.00    +0.002 C 
ATOM      8  C   UNL     1       5.260   3.192  -4.188  0.00  0.00    +0.002 C 
ATOM      9  C   UNL     1       4.985   4.132  -3.014  0.00  0.00    +0.024 C 
ATOM     10  C   UNL     1       3.999   3.450  -2.070  0.00  0.00    +0.093 C 
ATOM     11  N   UNL     1       3.773   4.210  -0.855  0.00  0.00    -0.309 N 
ATOM     12  C   UNL     1       2.608   4.206  -0.196  0.00  0.00    +0.234 C 
ATOM     13  O   UNL     1       2.548   4.786   0.868  0.00  0.00    -0.274 OA
ATOM     14  C   UNL     1       1.370   3.522  -0.705  0.00  0.00    +0.172 C 
ATOM     15  H   UNL     1       2.106   1.059  -3.772  0.00  0.00    +0.156 HD
ATOM     16  H   UNL     1       4.501   4.746  -0.503  0.00  0.00    +0.149 HD
ENDROOT
BRANCH   1  20
ATOM     17  C   UNL     1      -0.800  -2.661  -4.028  0.00  0.00    +0.000 A 
ATOM     18  C   UNL     1       0.541  -2.602  -4.362  0.00  0.00    +0.002 A 
ATOM     19  C   UNL     1       1.276  -1.468  -4.076  0.00  0.00    +0.023 A 
ATOM     20  C   UNL     1       0.668  -0.386  -3.454  0.00  0.00    +0.035 A 
ATOM     21  C   UNL     1      -0.678  -0.450  -3.116  0.00  0.00    +0.023 A 
ATOM     22  C   UNL     1      -1.409  -1.585  -3.408  0.00  0.00    +0.002 A 
ENDBRANCH   1  20
BRANCH  14  23
ATOM     23  C   UNL     1       0.778   2.650   0.404  0.00  0.00    +0.128 C 
BRANCH  23  24
ATOM     24  C   UNL     1      -0.654   2.317   0.072  0.00  0.00    +0.219 C 
ATOM     25  O   UNL     1      -1.133   2.683  -0.980  0.00  0.00    -0.275 OA
ATOM     26  N   UNL     1      -1.402   1.614   0.945  0.00  0.00    -0.285 N 
ATOM     27  H   UNL     1      -1.042   1.383   1.816  0.00  0.00    +0.155 HD
BRANCH  26  28
ATOM     28  C   UNL     1      -2.698   1.217   0.595  0.00  0.00    +0.033 A 
ATOM     29  C   UNL     1      -2.955   0.726  -0.678  0.00  0.00    +0.025 A 
ATOM     30  C   UNL     1      -4.233   0.331  -1.020  0.00  0.00    +0.022 A 
ATOM     31  C   UNL     1      -5.260   0.433  -0.098  0.00  0.00    +0.041 A 
ATOM     32  C   UNL     1      -5.008   0.927   1.170  0.00  0.00    +0.022 A 
ATOM     33  C   UNL     1      -3.730   1.319   1.518  0.00  0.00    +0.025 A 
ATOM     34 CL   UNL     1      -6.867  -0.058  -0.532  0.00  0.00    -0.084 Cl
ENDBRANCH  26  28
ENDBRANCH  23  24
ENDBRANCH  14  23
TORSDOF 4
