REMARK  Name = ZINC06039755
REMARK  8 active torsions:
REMARK  status: ('A' for Active; 'I' for Inactive)
REMARK    1  A    between atoms: C_1  and  C_2
REMARK    2  A    between atoms: C_5  and  C_8
REMARK    3  A    between atoms: N_10  and  C_11
REMARK    4  A    between atoms: C_11  and  C_27
REMARK    5  A    between atoms: C_12  and  C_13
REMARK    6  A    between atoms: C_16  and  C_18
REMARK    7  A    between atoms: C_21  and  N_24
REMARK    8  A    between atoms: N_29  and  C_30
REMARK                            x       y       z     vdW  Elec       q    Type
REMARK                         _______ _______ _______ _____ _____    ______ ____
ROOT
ATOM      1  C   UNL     1      -5.030   1.019  -0.206  0.00  0.00    +0.100 C 
ATOM      2  C   UNL     1      -6.109   1.897  -0.371  0.00  0.00    +0.074 C 
ENDROOT
BRANCH   2   3
ATOM      3  C   UNL     1      -7.381   1.397  -0.608  0.00  0.00    +0.131 A 
ATOM      4  C   UNL     1      -8.589   2.187  -0.893  0.00  0.00    +0.050 A 
ATOM      5  C   UNL     1      -9.598   1.294  -1.058  0.00  0.00    +0.050 A 
ATOM      6  C   UNL     1      -9.053  -0.003  -0.885  0.00  0.00    +0.136 A 
ATOM      7  O   UNL     1      -7.738   0.094  -0.625  0.00  0.00    -0.455 OA
BRANCH   6   8
ATOM      8  C   UNL     1      -9.782  -1.215  -0.977  0.00  0.00    +0.017 A 
ATOM      9  C   UNL     1     -11.138  -1.201  -1.354  0.00  0.00    +0.014 A 
ATOM     10  C   UNL     1     -11.829  -2.376  -1.445  0.00  0.00    +0.033 A 
ATOM     11  C   UNL     1     -11.202  -3.580  -1.156  0.00  0.00    +0.126 A 
ATOM     12  C   UNL     1      -9.867  -3.605  -0.778  0.00  0.00    +0.033 A 
ATOM     13  C   UNL     1      -9.155  -2.443  -0.686  0.00  0.00    +0.014 A 
BRANCH  11  14
ATOM     14  N   UNL     1     -11.963  -4.846  -1.252  0.00  0.00    +0.056 N 
ATOM     15  O   UNL     1     -11.372  -5.991  -0.979  0.00  0.00    -0.126 OA
ATOM     16  O   UNL     1     -13.230  -4.827  -1.611  0.00  0.00    -0.126 OA
ENDBRANCH  11  14
ENDBRANCH   6   8
ENDBRANCH   2   3
BRANCH   1  19
ATOM     17  C   UNL     1      -2.727   0.658  -0.043  0.00  0.00    +0.248 C 
ATOM     18  O   UNL     1      -2.917  -0.541   0.011  0.00  0.00    -0.270 OA
ATOM     19  N   UNL     1      -3.774   1.504  -0.099  0.00  0.00    -0.277 N 
ATOM     20  H   UNL     1      -3.626   2.462  -0.061  0.00  0.00    +0.155 HD
BRANCH  17  25
ATOM     21  C   UNL     1       2.645   2.720  -0.074  0.00  0.00    +0.044 C 
ATOM     22  C   UNL     1       1.238   2.180  -0.062  0.00  0.00    -0.050 A 
ATOM     23  C   UNL     1       1.025   0.814   0.000  0.00  0.00    +0.004 A 
ATOM     24  C   UNL     1      -0.260   0.313   0.011  0.00  0.00    +0.013 A 
ATOM     25  C   UNL     1      -1.347   1.187  -0.047  0.00  0.00    +0.037 A 
ATOM     26  C   UNL     1      -1.125   2.565  -0.103  0.00  0.00    +0.013 A 
ATOM     27  C   UNL     1       0.165   3.052  -0.114  0.00  0.00    +0.004 A 
ENDBRANCH  17  25
ENDBRANCH   1  19
BRANCH   1  28
ATOM     28  C   UNL     1      -5.268  -0.450  -0.150  0.00  0.00    +0.259 C 
ATOM     29  O   UNL     1      -5.181  -1.118  -1.160  0.00  0.00    -0.269 OA
ATOM     30  N   UNL     1      -5.580  -1.038   1.022  0.00  0.00    -0.306 N 
ATOM     31  H   UNL     1      -5.723  -0.496   1.813  0.00  0.00    +0.149 HD
BRANCH  30  32
ATOM     32  C   UNL     1      -5.702  -2.496   1.100  0.00  0.00    +0.096 C 
ATOM     33  C   UNL     1      -4.328  -3.107   1.422  0.00  0.00    +0.046 C 
ATOM     34  C   UNL     1      -4.540  -4.599   1.807  0.00  0.00    +0.168 C 
ATOM     35  S   UNL     1      -6.065  -4.469   2.833  0.00  0.00    -0.029 S 
ATOM     36  O   UNL     1      -5.693  -4.317   4.196  0.00  0.00    -0.174 OA
ATOM     37  O   UNL     1      -6.960  -5.509   2.463  0.00  0.00    -0.174 OA
ATOM     38  C   UNL     1      -6.717  -2.867   2.208  0.00  0.00    +0.188 C 
ENDBRANCH  30  32
ENDBRANCH   1  28
TORSDOF 7
