REMARK  Name = ZINC55369237
REMARK  11 active torsions:
REMARK  status: ('A' for Active; 'I' for Inactive)
REMARK    1  A    between atoms: C_1  and  C_2
REMARK    2  A    between atoms: C_2  and  C_3
REMARK    3  A    between atoms: C_2  and  C_4
REMARK    4  A    between atoms: C_2  and  C_5
REMARK    5  A    between atoms: C_8  and  C_10
REMARK    6  A    between atoms: C_10  and  N_11
REMARK    7  A    between atoms: N_11  and  C_12
REMARK    8  A    between atoms: C_12  and  C_13
REMARK    9  A    between atoms: N_15  and  C_22
REMARK   10  A    between atoms: C_22  and  C_23
REMARK   11  A    between atoms: C_23  and  C_24
REMARK                            x       y       z     vdW  Elec       q    Type
REMARK                         _______ _______ _______ _____ _____    ______ ____
ROOT
ATOM      1  C   UNL     1      -1.126  -0.427  -7.745  0.00  0.00    -0.039 A 
ATOM      2  C   UNL     1      -2.325   0.134  -7.968  0.00  0.00    +0.088 A 
ATOM      3  N   UNL     1      -2.216   1.097  -8.934  0.00  0.00    -0.346 N 
ATOM      4  C   UNL     1      -0.912   1.180  -9.368  0.00  0.00    +0.049 A 
ATOM      5  C   UNL     1      -0.171   0.234  -8.637  0.00  0.00    +0.001 A 
ATOM      6  C   UNL     1       1.200   0.097  -8.863  0.00  0.00    +0.010 A 
ATOM      7  C   UNL     1       1.816   0.887  -9.793  0.00  0.00    +0.001 A 
ATOM      8  C   UNL     1       1.090   1.825 -10.513  0.00  0.00    +0.002 A 
ATOM      9  C   UNL     1      -0.265   1.970 -10.312  0.00  0.00    +0.026 A 
ENDROOT
BRANCH   1  10
ATOM     10  C   UNL     1      -0.821  -1.525  -6.759  0.00  0.00    -0.044 C 
BRANCH  10  11
ATOM     11  N   UNL     1      -0.238  -0.943  -5.542  0.00  0.00    +0.386 N 
ATOM     12  H   UNL     1      -0.894  -0.295  -5.132  0.00  0.00    -0.085 HD
ATOM     13  H   UNL     1       0.613  -0.455  -5.777  0.00  0.00    -0.085 HD
BRANCH  11  14
ATOM     14  C   UNL     1       0.060  -2.013  -4.581  0.00  0.00    -0.018 C 
BRANCH  14  18
ATOM     15  C   UNL     1       0.707  -0.490  -1.238  0.00  0.00    +0.054 A 
ATOM     16  C   UNL     1       2.059  -0.430  -1.355  0.00  0.00    +0.070 A 
ATOM     17  S   UNL     1       2.279  -1.128  -2.984  0.00  0.00    -0.082 S 
ATOM     18  C   UNL     1       0.657  -1.415  -3.333  0.00  0.00    +0.062 A 
ATOM     19  N   UNL     1       0.041  -0.998  -2.256  0.00  0.00    -0.250 NA
BRANCH  15  21
ATOM     20  C   UNL     1      -0.019   1.526   0.010  0.00  0.00    +0.017 C 
ATOM     21  C   UNL     1       0.002  -0.004   0.002  0.00  0.00    +0.005 C 
ATOM     22  C   UNL     1       0.742  -0.511   1.242  0.00  0.00    +0.017 C 
ATOM     23  C   UNL     1      -1.433  -0.534   0.013  0.00  0.00    +0.017 C 
ENDBRANCH  15  21
ENDBRANCH  14  18
ENDBRANCH  11  14
ENDBRANCH  10  11
ENDBRANCH   1  10
BRANCH   3  24
ATOM     24  C   UNL     1      -3.323   1.917  -9.434  0.00  0.00    +0.131 C 
BRANCH  24  25
ATOM     25  C   UNL     1      -3.903   1.276 -10.697  0.00  0.00    +0.117 C 
BRANCH  25  26
ATOM     26  C   UNL     1      -5.041   2.120 -11.210  0.00  0.00    +0.212 C 
ATOM     27  O   UNL     1      -5.358   3.133 -10.624  0.00  0.00    -0.276 OA
ATOM     28  N   UNL     1      -5.707   1.748 -12.321  0.00  0.00    -0.329 N 
ATOM     29  H   UNL     1      -5.454   0.937 -12.790  0.00  0.00    +0.145 HD
ATOM     30  H   UNL     1      -6.440   2.290 -12.652  0.00  0.00    +0.145 HD
ENDBRANCH  25  26
ENDBRANCH  24  25
ENDBRANCH   3  24
TORSDOF 8
