REMARK  Name = ZINC12150764
REMARK  5 active torsions:
REMARK  status: ('A' for Active; 'I' for Inactive)
REMARK    1  A    between atoms: C_9  and  N_70
REMARK    2  A    between atoms: N_14  and  C_17
REMARK    3  A    between atoms: N_25  and  C_28
REMARK    4  A    between atoms: C_28  and  C_29
REMARK    5  A    between atoms: C_29  and  O_35
REMARK                            x       y       z     vdW  Elec       q    Type
REMARK                         _______ _______ _______ _____ _____    ______ ____
ROOT
ATOM      1  C   UNL     1       7.574   6.894   0.717  0.00  0.00    +0.043 A 
ATOM      2  C   UNL     1       8.811   6.310   0.434  0.00  0.00    +0.024 A 
ATOM      3  C   UNL     1       9.977   7.017   0.630  0.00  0.00    +0.003 A 
ATOM      4  C   UNL     1       9.942   8.315   1.122  0.00  0.00    +0.014 A 
ATOM      5  C   UNL     1       8.728   8.911   1.414  0.00  0.00    +0.051 A 
ATOM      6  C   UNL     1       7.527   8.196   1.211  0.00  0.00    +0.070 A 
ATOM      7  C   UNL     1       6.442   9.106   1.614  0.00  0.00    +0.256 C 
ATOM      8  O   UNL     1       5.255   8.850   1.584  0.00  0.00    -0.269 OA
ATOM      9  N   UNL     1       6.983  10.268   2.023  0.00  0.00    -0.231 N 
ATOM     10  C   UNL     1       8.325  10.234   1.935  0.00  0.00    +0.254 C 
ATOM     11  O   UNL     1       9.079  11.138   2.236  0.00  0.00    -0.270 OA
ENDROOT
BRANCH   1  14
ATOM     12  C   UNL     1       5.003   4.290   1.192  0.00  0.00    -0.059 C 
ATOM     13  C   UNL     1       6.343   5.003   1.389  0.00  0.00    +0.086 C 
ATOM     14  N   UNL     1       6.402   6.181   0.513  0.00  0.00    -0.333 N 
ATOM     15  C   UNL     1       6.260   5.793  -0.897  0.00  0.00    +0.086 C 
ATOM     16  C   UNL     1       4.920   5.080  -1.094  0.00  0.00    -0.059 C 
ATOM     17  N   UNL     1       4.883   3.886  -0.224  0.00  0.00    +0.384 N 
ATOM     18  H   UNL     1       5.671   3.273  -0.465  0.00  0.00    -0.081 HD
BRANCH  17  27
ATOM     19  C   UNL     1      -1.220   1.743   0.017  0.00  0.00    +0.000 A 
ATOM     20  C   UNL     1      -1.239   3.126   0.027  0.00  0.00    +0.000 A 
ATOM     21  C   UNL     1      -0.052   3.828   0.020  0.00  0.00    +0.004 A 
ATOM     22  C   UNL     1       1.165   3.157   0.009  0.00  0.00    -0.046 A 
ATOM     23  C   UNL     1       1.184   1.781   0.000  0.00  0.00    -0.044 A 
ATOM     24  C   UNL     1      -0.013   1.076   0.008  0.00  0.00    +0.004 A 
ATOM     25  C   UNL     1       2.465   0.989  -0.022  0.00  0.00    +0.034 C 
ATOM     26  C   UNL     1       3.644   1.862   0.401  0.00  0.00    -0.010 C 
ATOM     27  C   UNL     1       3.619   3.147  -0.434  0.00  0.00    -0.064 C 
ATOM     28  C   UNL     1       2.422   3.986   0.010  0.00  0.00    +0.020 C 
ENDBRANCH  17  27
ENDBRANCH   1  14
BRANCH   9  29
ATOM     29  C   UNL     1       6.212  11.419   2.500  0.00  0.00    +0.151 C 
BRANCH  29  30
ATOM     30  C   UNL     1       6.019  11.310   4.014  0.00  0.00    +0.082 C 
ATOM     31  C   UNL     1       5.376   9.964   4.351  0.00  0.00    +0.036 C 
ATOM     32  C   UNL     1       5.183   9.855   5.865  0.00  0.00    +0.003 C 
ATOM     33  C   UNL     1       4.274  10.989   6.345  0.00  0.00    +0.000 C 
ATOM     34  C   UNL     1       4.917  12.336   6.008  0.00  0.00    +0.003 C 
ATOM     35  C   UNL     1       5.110  12.444   4.494  0.00  0.00    +0.036 C 
BRANCH  30  36
ATOM     36  O   UNL     1       7.288  11.409   4.664  0.00  0.00    -0.387 OA
ATOM     37  H   UNL     1       7.916  10.721   4.407  0.00  0.00    +0.210 HD
ENDBRANCH  30  36
ENDBRANCH  29  30
ENDBRANCH   9  29
TORSDOF 5
