REMARK  Name = ZINC12250155
REMARK  11 active torsions:
REMARK  status: ('A' for Active; 'I' for Inactive)
REMARK    1  A    between atoms: C_1  and  C_2
REMARK    2  A    between atoms: C_2  and  C_3
REMARK    3  A    between atoms: C_6  and  N_9
REMARK    4  A    between atoms: C_10  and  C_12
REMARK    5  A    between atoms: C_13  and  C_37
REMARK    6  A    between atoms: C_15  and  S_26
REMARK    7  A    between atoms: C_16  and  C_24
REMARK    8  A    between atoms: C_17  and  C_19
REMARK    9  A    between atoms: S_26  and  C_27
REMARK   10  A    between atoms: C_27  and  C_28
REMARK   11  A    between atoms: N_30  and  C_31
REMARK                            x       y       z     vdW  Elec       q    Type
REMARK                         _______ _______ _______ _____ _____    ______ ____
ROOT
ATOM      1  C   UNL     1      -4.322   6.305  -6.215  0.00  0.00    +0.047 C 
ATOM      2  C   UNL     1      -3.695   5.147  -5.949  0.00  0.00    +0.015 C 
ATOM      3  N   UNL     1      -3.396   4.786  -4.665  0.00  0.00    -0.312 N 
ATOM      4  C   UNL     1      -3.405   5.726  -3.659  0.00  0.00    +0.080 C 
ATOM      5  C   UNL     1      -4.030   6.921  -3.837  0.00  0.00    +0.072 C 
ATOM      6  C   UNL     1      -4.738   7.247  -5.121  0.00  0.00    +0.134 C 
ATOM      7  C   UNL     1      -3.309   4.235  -7.085  0.00  0.00    +0.061 C 
ATOM      8  H   UNL     1      -3.147   3.740  -4.433  0.00  0.00    +0.152 HD
ENDROOT
BRANCH   6   9
ATOM      9  C   UNL     1      -6.226   7.133  -4.910  0.00  0.00    +0.118 A 
ATOM     10  C   UNL     1      -7.120   8.126  -5.065  0.00  0.00    +0.045 A 
ATOM     11  C   UNL     1      -8.391   7.582  -4.768  0.00  0.00    +0.041 A 
ATOM     12  C   UNL     1      -8.196   6.292  -4.442  0.00  0.00    +0.195 A 
ATOM     13  O   UNL     1      -6.882   6.026  -4.529  0.00  0.00    -0.467 OA
ENDBRANCH   6   9
BRANCH   1  15
ATOM     14  N   UNL     1      -5.599   6.030  -8.220  0.00  0.00    -0.282 N 
ATOM     15  C   UNL     1      -4.598   6.646  -7.560  0.00  0.00    +0.247 C 
ATOM     16  O   UNL     1      -3.931   7.496  -8.122  0.00  0.00    -0.270 OA
ATOM     17  H   UNL     1      -6.258   5.328  -7.688  0.00  0.00    +0.155 HD
BRANCH  14  21
ATOM     18  C   UNL     1      -6.200   6.787 -12.272  0.00  0.00    -0.048 A 
ATOM     19  C   UNL     1      -4.917   6.770 -11.756  0.00  0.00    +0.005 A 
ATOM     20  C   UNL     1      -4.715   6.520 -10.413  0.00  0.00    +0.023 A 
ATOM     21  C   UNL     1      -5.801   6.285  -9.580  0.00  0.00    +0.034 A 
ATOM     22  C   UNL     1      -7.088   6.297 -10.102  0.00  0.00    +0.023 A 
ATOM     23  C   UNL     1      -7.284   6.552 -11.445  0.00  0.00    +0.005 A 
BRANCH  18  25
ATOM     24  C   UNL     1      -6.398   5.740 -14.511  0.00  0.00    +0.009 C 
ATOM     25  C   UNL     1      -6.418   7.060 -13.738  0.00  0.00    +0.032 C 
ENDBRANCH  18  25
ENDBRANCH  14  21
ENDBRANCH   1  15
BRANCH   5  26
ATOM     26  C   UNL     1      -4.013   7.886  -2.780  0.00  0.00    +0.098 C 
ATOM     27  N   UNL     1      -3.999   8.653  -1.941  0.00  0.00    -0.191 NA
ENDBRANCH   5  26
BRANCH   4  28
ATOM     28  S   UNL     1      -2.596   5.380  -2.132  0.00  0.00    -0.100 S 
BRANCH  28  29
ATOM     29  C   UNL     1      -1.977   3.714  -2.475  0.00  0.00    +0.171 C 
BRANCH  29  30
ATOM     30  C   UNL     1      -1.228   3.200  -1.272  0.00  0.00    +0.223 C 
ATOM     31  O   UNL     1      -1.124   3.892  -0.281  0.00  0.00    -0.275 OA
ATOM     32  N   UNL     1      -0.675   1.971  -1.298  0.00  0.00    -0.312 N 
ATOM     33  H   UNL     1      -0.770   1.344  -2.196  0.00  0.00    +0.149 HD
BRANCH  32  34
ATOM     34  C   UNL     1       0.053   1.471  -0.129  0.00  0.00    +0.073 C 
ATOM     35  C   UNL     1       1.500   1.964  -0.180  0.00  0.00    +0.022 C 
ATOM     36  C   UNL     1       2.260   1.441   1.040  0.00  0.00    +0.002 C 
ATOM     37  C   UNL     1       2.242  -0.089   1.037  0.00  0.00    +0.000 C 
ATOM     38  C   UNL     1       0.794  -0.581   1.088  0.00  0.00    +0.002 C 
ATOM     39  C   UNL     1       0.034  -0.059  -0.133  0.00  0.00    +0.022 C 
ENDBRANCH  32  34
ENDBRANCH  29  30
ENDBRANCH  28  29
ENDBRANCH   4  28
TORSDOF 9
