REMARK  Name = ZINC20611583
REMARK  8 active torsions:
REMARK  status: ('A' for Active; 'I' for Inactive)
REMARK    1  A    between atoms: C_1  and  C_2
REMARK    2  A    between atoms: C_16  and  C_19
REMARK    3  A    between atoms: C_19  and  C_20
REMARK    4  A    between atoms: C_20  and  C_21
REMARK    5  A    between atoms: N_26  and  C_29
REMARK    6  A    between atoms: C_32  and  O_35
REMARK    7  A    between atoms: O_35  and  C_36
REMARK    8  A    between atoms: C_36  and  C_38
REMARK                            x       y       z     vdW  Elec       q    Type
REMARK                         _______ _______ _______ _____ _____    ______ ____
ROOT
ATOM      1  C   UNL     1      -0.089   1.547   0.069  0.00  0.00    +0.047 C 
ATOM      2  C   UNL     1      -0.068   0.040   0.052  0.00  0.00    -0.011 A 
ATOM      3  C   UNL     1      -0.074  -0.635  -1.152  0.00  0.00    +0.046 A 
ATOM      4  C   UNL     1      -0.055  -2.019  -1.177  0.00  0.00    +0.021 A 
ATOM      5  C   UNL     1      -0.031  -2.728   0.011  0.00  0.00    +0.009 A 
ATOM      6  C   UNL     1      -0.026  -2.058   1.214  0.00  0.00    +0.004 A 
ATOM      7  C   UNL     1      -0.037  -0.667   1.251  0.00  0.00    +0.043 A 
ATOM      8  N   UNL     1      -0.018  -0.219   2.574  0.00  0.00    -0.283 N 
ATOM      9  C   UNL     1       0.013  -1.238   3.455  0.00  0.00    +0.243 C 
ATOM     10  O   UNL     1       0.038  -1.149   4.664  0.00  0.00    -0.273 OA
ATOM     11  C   UNL     1      -0.003  -2.507   2.647  0.00  0.00    +0.136 C 
ATOM     12  C   UNL     1       1.230  -3.367   2.949  0.00  0.00    +0.123 C 
ATOM     13  C   UNL     1       0.729  -4.429   3.966  0.00  0.00    +0.107 C 
ATOM     14  C   UNL     1      -0.763  -4.098   4.180  0.00  0.00    +0.068 C 
ATOM     15  N   UNL     1      -1.171  -3.348   2.970  0.00  0.00    -0.295 NA
ATOM     16  C   UNL     1       1.510  -4.106   5.220  0.00  0.00    +0.232 C 
ATOM     17  O   UNL     1       1.424  -4.704   6.271  0.00  0.00    -0.274 OA
ATOM     18  N   UNL     1       2.310  -3.059   4.988  0.00  0.00    -0.210 N 
ATOM     19  C   UNL     1       2.239  -2.559   3.734  0.00  0.00    +0.233 C 
ATOM     20  O   UNL     1       2.872  -1.620   3.303  0.00  0.00    -0.274 OA
ATOM     21 CL   UNL     1      -0.106   0.255  -2.642  0.00  0.00    -0.083 Cl
ATOM     22  H   UNL     1      -0.024   0.717   2.829  0.00  0.00    +0.155 HD
ATOM     23  H   UNL     1      -1.987  -2.781   3.148  0.00  0.00    +0.123 HD
ENDROOT
BRANCH  18  24
ATOM     24  C   UNL     1       3.161  -2.524   5.967  0.00  0.00    +0.044 A 
ATOM     25  C   UNL     1       2.627  -1.909   7.091  0.00  0.00    +0.027 A 
ATOM     26  C   UNL     1       3.465  -1.383   8.053  0.00  0.00    +0.048 A 
ATOM     27  C   UNL     1       4.841  -1.467   7.897  0.00  0.00    +0.132 A 
ATOM     28  C   UNL     1       5.375  -2.081   6.773  0.00  0.00    +0.048 A 
ATOM     29  C   UNL     1       4.538  -2.613   5.813  0.00  0.00    +0.027 A 
BRANCH  27  30
ATOM     30  O   UNL     1       5.666  -0.947   8.845  0.00  0.00    -0.426 OA
BRANCH  30  31
ATOM     31  C   UNL     1       5.819  -1.630   9.990  0.00  0.00    +0.309 C 
ATOM     32  O   UNL     1       5.311  -2.719  10.116  0.00  0.00    -0.251 OA
ATOM     33  C   UNL     1       6.623  -1.038  11.119  0.00  0.00    +0.136 C 
ENDBRANCH  30  31
ENDBRANCH  27  30
ENDBRANCH  18  24
BRANCH  14  34
ATOM     34  C   UNL     1      -1.578  -5.384   4.331  0.00  0.00    +0.028 C 
BRANCH  34  35
ATOM     35  C   UNL     1      -3.029  -5.032   4.666  0.00  0.00    +0.097 C 
BRANCH  35  36
ATOM     36  C   UNL     1      -3.832  -6.299   4.815  0.00  0.00    +0.211 C 
ATOM     37  O   UNL     1      -3.296  -7.377   4.668  0.00  0.00    -0.276 OA
ATOM     38  N   UNL     1      -5.145  -6.234   5.112  0.00  0.00    -0.329 N 
ATOM     39  H   UNL     1      -5.573  -5.372   5.230  0.00  0.00    +0.145 HD
ATOM     40  H   UNL     1      -5.661  -7.050   5.208  0.00  0.00    +0.145 HD
ENDBRANCH  35  36
ENDBRANCH  34  35
ENDBRANCH  14  34
TORSDOF 6
