REMARK  Name = ZINC39467232
REMARK  6 active torsions:
REMARK  status: ('A' for Active; 'I' for Inactive)
REMARK    1  A    between atoms: C_1  and  S_2
REMARK    2  A    between atoms: S_2  and  C_3
REMARK    3  A    between atoms: P_12  and  C_28
REMARK    4  A    between atoms: C_20  and  C_21
REMARK    5  A    between atoms: C_26  and  O_27
REMARK    6  A    between atoms: C_33  and  O_34
REMARK                            x       y       z     vdW  Elec       q    Type
REMARK                         _______ _______ _______ _____ _____    ______ ____
ROOT
ATOM      1  C   UNL     1       0.877  -0.427   1.472  0.00  0.00    +0.012 C 
ATOM      2  C   UNL     1       1.334   0.535   2.285  0.00  0.00    -0.008 C 
ATOM      3  C   UNL     1       2.065   0.139   3.538  0.00  0.00    +0.017 C 
ATOM      4  C   UNL     1       2.023   1.248   4.585  0.00  0.00    -0.003 C 
ATOM      5  C   UNL     1       2.750   0.781   5.854  0.00  0.00    -0.020 C 
ATOM      6  C   UNL     1       2.658   1.921   6.877  0.00  0.00    +0.157 C 
ATOM      7  O   UNL     1       3.402   1.564   8.056  0.00  0.00    -0.316 OA
ATOM      8  P   UNL     1       3.112   0.108   8.723  0.00  0.00    +0.291 P 
ATOM      9  O   UNL     1       1.890   0.161   9.557  0.00  0.00    -0.269 OA
ATOM     10  N   UNL     1       2.892  -0.917   7.449  0.00  0.00    -0.288 NA
ATOM     11  N   UNL     1       2.150  -0.442   6.385  0.00  0.00    +0.398 N 
ATOM     12  C   UNL     1       2.157  -1.524   5.384  0.00  0.00    -0.046 C 
ATOM     13  C   UNL     1       1.392  -1.102   4.137  0.00  0.00    +0.005 C 
ATOM     14  C   UNL     1       1.355  -2.188   3.098  0.00  0.00    -0.015 C 
ATOM     15  C   UNL     1       1.107  -1.850   1.821  0.00  0.00    -0.005 C 
ATOM     16  H   UNL     1       3.261  -1.814   7.456  0.00  0.00    +0.111 HD
ATOM     17  H   UNL     1       1.202  -0.254   6.676  0.00  0.00    -0.055 HD
ENDROOT
BRANCH  15  18
ATOM     18  C   UNL     1       1.069  -2.893   0.769  0.00  0.00    +0.024 A 
ATOM     19  C   UNL     1      -0.033  -3.740   0.663  0.00  0.00    +0.012 A 
ATOM     20  C   UNL     1      -0.063  -4.710  -0.319  0.00  0.00    +0.001 A 
ATOM     21  C   UNL     1       0.997  -4.845  -1.198  0.00  0.00    +0.004 A 
ATOM     22  C   UNL     1       2.094  -4.010  -1.102  0.00  0.00    +0.046 A 
ATOM     23  C   UNL     1       2.135  -3.028  -0.126  0.00  0.00    +0.125 A 
BRANCH  23  24
ATOM     24  O   UNL     1       3.210  -2.203  -0.034  0.00  0.00    -0.506 OA
ATOM     25  H   UNL     1       3.912  -2.534   0.543  0.00  0.00    +0.292 HD
ENDBRANCH  23  24
ENDBRANCH  15  18
BRANCH   8  26
ATOM     26  C   UNL     1       4.531  -0.419   9.723  0.00  0.00    +0.091 A 
ATOM     27  C   UNL     1       5.551  -1.150   9.143  0.00  0.00    +0.018 A 
ATOM     28  C   UNL     1       6.632  -1.553   9.905  0.00  0.00    +0.001 A 
ATOM     29  C   UNL     1       6.696  -1.226  11.247  0.00  0.00    +0.004 A 
ATOM     30  C   UNL     1       5.680  -0.496  11.830  0.00  0.00    +0.046 A 
ATOM     31  C   UNL     1       4.596  -0.085  11.067  0.00  0.00    +0.131 A 
BRANCH  31  32
ATOM     32  O   UNL     1       3.597   0.638  11.638  0.00  0.00    -0.506 OA
ATOM     33  H   UNL     1       2.884   0.101  12.009  0.00  0.00    +0.292 HD
ENDBRANCH  31  32
ENDBRANCH   8  26
BRANCH   1  35
ATOM     34  C   UNL     1      -0.022   1.810   0.012  0.00  0.00    +0.090 C 
ATOM     35  S   UNL     1       0.002  -0.004   0.002  0.00  0.00    -0.128 S 
ENDBRANCH   1  35
TORSDOF 5
