REMARK  Name = ZINC65180413
REMARK  9 active torsions:
REMARK  status: ('A' for Active; 'I' for Inactive)
REMARK    1  A    between atoms: C_1  and  C_2
REMARK    2  A    between atoms: C_2  and  N_3
REMARK    3  A    between atoms: C_8  and  C_18
REMARK    4  A    between atoms: C_10  and  C_12
REMARK    5  A    between atoms: N_20  and  N_21
REMARK    6  A    between atoms: N_24  and  C_25
REMARK    7  A    between atoms: C_25  and  C_26
REMARK    8  A    between atoms: C_26  and  C_27
REMARK    9  A    between atoms: C_26  and  C_28
REMARK                            x       y       z     vdW  Elec       q    Type
REMARK                         _______ _______ _______ _____ _____    ______ ____
ROOT
ATOM      1  N   UNL     1      -1.372  -0.511   0.012  0.00  0.00    -0.247 N 
ATOM      2  C   UNL     1      -2.118  -0.790   1.129  0.00  0.00    +0.160 A 
ATOM      3  C   UNL     1      -3.369  -1.250   0.665  0.00  0.00    +0.051 A 
ATOM      4  C   UNL     1      -3.323  -1.228  -0.744  0.00  0.00    +0.145 A 
ATOM      5  N   UNL     1      -2.154  -0.789  -1.115  0.00  0.00    -0.177 NA
ATOM      6  C   UNL     1      -4.358  -1.618   1.606  0.00  0.00    +0.052 A 
ATOM      7  C   UNL     1      -4.046  -1.508   2.957  0.00  0.00    +0.042 A 
ATOM      8  C   UNL     1      -2.782  -1.043   3.331  0.00  0.00    +0.074 A 
ATOM      9  N   UNL     1      -1.876  -0.705   2.428  0.00  0.00    -0.228 NA
ENDROOT
BRANCH   8  10
ATOM     10  C   UNL     1      -2.449  -0.925   4.771  0.00  0.00    +0.000 A 
ATOM     11  C   UNL     1      -3.389  -1.281   5.737  0.00  0.00    +0.010 A 
ATOM     12  C   UNL     1      -3.073  -1.169   7.076  0.00  0.00    +0.001 A 
ATOM     13  C   UNL     1      -1.828  -0.706   7.460  0.00  0.00    +0.000 A 
ATOM     14  C   UNL     1      -0.892  -0.351   6.505  0.00  0.00    +0.001 A 
ATOM     15  C   UNL     1      -1.194  -0.463   5.163  0.00  0.00    +0.010 A 
ENDBRANCH   8  10
BRANCH   6  16
ATOM     16  C   UNL     1      -5.683  -2.105   1.167  0.00  0.00    +0.261 C 
ATOM     17  O   UNL     1      -5.936  -2.194  -0.018  0.00  0.00    -0.269 OA
ATOM     18  N   UNL     1      -6.611  -2.451   2.082  0.00  0.00    -0.229 N 
ATOM     19  H   UNL     1      -6.409  -2.380   3.028  0.00  0.00    +0.173 HD
BRANCH  18  20
ATOM     20  N   UNL     1      -7.867  -2.912   1.666  0.00  0.00    -0.218 N 
ATOM     21  C   UNL     1      -8.794  -3.258   2.580  0.00  0.00    +0.316 C 
ATOM     22  O   UNL     1      -9.884  -3.658   2.219  0.00  0.00    -0.251 OA
ATOM     23  N   UNL     1      -8.514  -3.159   3.895  0.00  0.00    -0.298 N 
ATOM     24  H   UNL     1      -8.069  -2.983   0.720  0.00  0.00    +0.174 HD
ATOM     25  H   UNL     1      -7.645  -2.840   4.183  0.00  0.00    +0.150 HD
BRANCH  23  26
ATOM     26  C   UNL     1      -9.523  -3.535   4.889  0.00  0.00    +0.108 C 
BRANCH  26  27
ATOM     27  C   UNL     1      -8.954  -3.331   6.295  0.00  0.00    -0.000 C 
ATOM     28  C   UNL     1      -8.691  -1.842   6.527  0.00  0.00    +0.009 C 
ATOM     29  C   UNL     1      -9.959  -3.840   7.330  0.00  0.00    +0.009 C 
ENDBRANCH  26  27
ENDBRANCH  23  26
ENDBRANCH  18  20
ENDBRANCH   6  16
BRANCH   1  31
ATOM     30  C   UNL     1      -0.019   1.526   0.010  0.00  0.00    +0.029 C 
ATOM     31  C   UNL     1       0.002  -0.004   0.002  0.00  0.00    +0.142 C 
ENDBRANCH   1  31
TORSDOF 6
