REMARK  Name = ZINC09128891
REMARK  6 active torsions:
REMARK  status: ('A' for Active; 'I' for Inactive)
REMARK    1  A    between atoms: C_1  and  C_2
REMARK    2  A    between atoms: C_2  and  N_55
REMARK    3  A    between atoms: C_15  and  C_17
REMARK    4  A    between atoms: C_18  and  O_34
REMARK    5  A    between atoms: N_23  and  C_26
REMARK    6  A    between atoms: C_26  and  C_27
REMARK                            x       y       z     vdW  Elec       q    Type
REMARK                         _______ _______ _______ _____ _____    ______ ____
ROOT
ATOM      1  C   UNL     1       2.329  -0.128   0.013  0.00  0.00    +0.069 A 
ATOM      2  C   UNL     1       2.222   1.229   0.083  0.00  0.00    +0.201 A 
ATOM      3  N   UNL     1       0.979   1.808   0.120  0.00  0.00    -0.278 N 
ATOM      4  H   UNL     1       0.898   2.773   0.169  0.00  0.00    +0.173 HD
ATOM      5  C   UNL     1      -0.129   1.045   0.090  0.00  0.00    +0.332 A 
ATOM      6  O   UNL     1      -1.223   1.575   0.119  0.00  0.00    -0.246 OA
ATOM      7  N   UNL     1      -0.045  -0.297   0.022  0.00  0.00    -0.256 N 
ATOM      8  C   UNL     1       1.157  -0.905  -0.017  0.00  0.00    +0.262 A 
ATOM      9  O   UNL     1       1.228  -2.120  -0.079  0.00  0.00    -0.267 OA
ENDROOT
BRANCH   1  22
ATOM     10  C   UNL     1       4.983  -2.495  -1.169  0.00  0.00    -0.073 C 
ATOM     11  C   UNL     1       4.864  -3.553  -0.063  0.00  0.00    +0.019 C 
ATOM     12  C   UNL     1       4.415  -2.858   1.198  0.00  0.00    -0.022 A 
ATOM     13  C   UNL     1       4.451  -3.328   2.565  0.00  0.00    +0.003 A 
ATOM     14  C   UNL     1       4.886  -4.522   3.150  0.00  0.00    +0.010 A 
ATOM     15  C   UNL     1       4.769  -4.625   4.514  0.00  0.00    +0.001 A 
ATOM     16  C   UNL     1       4.247  -3.601   5.287  0.00  0.00    +0.002 A 
ATOM     17  C   UNL     1       3.807  -2.410   4.736  0.00  0.00    +0.026 A 
ATOM     18  C   UNL     1       3.914  -2.277   3.353  0.00  0.00    +0.047 A 
ATOM     19  N   UNL     1       3.584  -1.259   2.504  0.00  0.00    -0.359 N 
ATOM     20  H   UNL     1       3.195  -0.412   2.772  0.00  0.00    +0.166 HD
ATOM     21  C   UNL     1       3.886  -1.614   1.217  0.00  0.00    +0.011 A 
ATOM     22  C   UNL     1       3.684  -0.787  -0.030  0.00  0.00    +0.021 C 
ATOM     23  N   UNL     1       3.738  -1.697  -1.199  0.00  0.00    +0.388 N 
ATOM     24  H   UNL     1       2.933  -2.334  -1.162  0.00  0.00    -0.080 HD
BRANCH  23  26
ATOM     25  C   UNL     1       4.933  -0.066  -2.624  0.00  0.00    -0.017 C 
ATOM     26  C   UNL     1       3.671  -0.914  -2.450  0.00  0.00    -0.081 C 
ENDBRANCH  23  26
ENDBRANCH   1  22
BRANCH   2  27
ATOM     27  O   UNL     1       3.331   1.998   0.114  0.00  0.00    -0.493 OA
ATOM     28  H   UNL     1       3.151   2.947   0.163  0.00  0.00    +0.294 HD
ENDBRANCH   2  27
BRANCH   7  29
ATOM     29  C   UNL     1      -1.269  -1.101  -0.009  0.00  0.00    +0.165 C 
BRANCH  29  30
ATOM     30  C   UNL     1      -1.698  -1.306  -1.439  0.00  0.00    -0.027 A 
ATOM     31  C   UNL     1      -2.558  -0.405  -2.038  0.00  0.00    +0.008 A 
ATOM     32  C   UNL     1      -2.949  -0.589  -3.350  0.00  0.00    +0.038 A 
ATOM     33  C   UNL     1      -2.488  -1.683  -4.063  0.00  0.00    +0.123 A 
ATOM     34  C   UNL     1      -1.631  -2.588  -3.460  0.00  0.00    +0.038 A 
ATOM     35  C   UNL     1      -1.237  -2.399  -2.149  0.00  0.00    +0.008 A 
ATOM     36  F   UNL     1      -2.873  -1.867  -5.345  0.00  0.00    -0.205 F 
ENDBRANCH  29  30
ENDBRANCH   7  29
TORSDOF 5
