REMARK  Name = ZINC35577013
REMARK  8 active torsions:
REMARK  status: ('A' for Active; 'I' for Inactive)
REMARK    1  A    between atoms: C_1  and  N_2
REMARK    2  A    between atoms: N_2  and  C_3
REMARK    3  A    between atoms: N_2  and  C_4
REMARK    4  A    between atoms: C_4  and  C_5
REMARK    5  A    between atoms: C_5  and  N_6
REMARK    6  A    between atoms: C_9  and  C_24
REMARK    7  A    between atoms: C_11  and  N_23
REMARK    8  A    between atoms: N_12  and  C_16
REMARK                            x       y       z     vdW  Elec       q    Type
REMARK                         _______ _______ _______ _____ _____    ______ ____
ROOT
ATOM      1  N   UNL     1       0.143  -1.250   3.637  0.00  0.00    -0.315 N 
ATOM      2  C   UNL     1      -0.175  -0.761   4.891  0.00  0.00    +0.218 A 
ATOM      3  N   UNL     1       0.479  -1.248   5.940  0.00  0.00    -0.214 NA
ATOM      4  C   UNL     1       0.236  -0.835   7.178  0.00  0.00    +0.089 A 
ATOM      5  C   UNL     1      -0.753   0.156   7.370  0.00  0.00    +0.086 A 
ATOM      6  C   UNL     1      -1.286   0.832   8.461  0.00  0.00    +0.131 A 
ATOM      7  N   UNL     1      -2.224   1.679   7.995  0.00  0.00    -0.216 N 
ATOM      8  N   UNL     1      -2.315   1.569   6.603  0.00  0.00    -0.144 NA
ATOM      9  C   UNL     1      -1.454   0.669   6.179  0.00  0.00    +0.189 A 
ATOM     10  N   UNL     1      -1.107   0.167   4.979  0.00  0.00    -0.193 NA
ATOM     11  H   UNL     1       0.825  -1.933   3.542  0.00  0.00    +0.149 HD
ENDROOT
BRANCH   7  12
ATOM     12  C   UNL     1      -2.994   2.541   8.786  0.00  0.00    +0.068 A 
ATOM     13  C   UNL     1      -3.393   2.148  10.057  0.00  0.00    +0.030 A 
ATOM     14  C   UNL     1      -4.152   3.000  10.835  0.00  0.00    +0.040 A 
ATOM     15  C   UNL     1      -4.517   4.244  10.348  0.00  0.00    +0.124 A 
ATOM     16  C   UNL     1      -4.121   4.637   9.081  0.00  0.00    +0.040 A 
ATOM     17  C   UNL     1      -3.356   3.792   8.302  0.00  0.00    +0.030 A 
ATOM     18  F   UNL     1      -5.260   5.075  11.111  0.00  0.00    -0.205 F 
ENDBRANCH   7  12
BRANCH   4  19
ATOM     19  C   UNL     1       0.981  -1.397   8.326  0.00  0.00    +0.001 A 
ATOM     20  C   UNL     1       0.298  -1.796   9.476  0.00  0.00    +0.013 A 
ATOM     21  C   UNL     1       0.997  -2.320  10.543  0.00  0.00    +0.039 A 
ATOM     22  C   UNL     1       2.375  -2.450  10.475  0.00  0.00    +0.123 A 
ATOM     23  C   UNL     1       3.058  -2.055   9.336  0.00  0.00    +0.039 A 
ATOM     24  C   UNL     1       2.368  -1.536   8.261  0.00  0.00    +0.013 A 
ATOM     25  F   UNL     1       3.055  -2.964  11.524  0.00  0.00    -0.205 F 
ENDBRANCH   4  19
BRANCH   6  26
ATOM     26  N   UNL     1      -0.921   0.664   9.784  0.00  0.00    -0.342 N 
ATOM     27  H   UNL     1      -0.133   0.145  10.008  0.00  0.00    +0.144 HD
ATOM     28  H   UNL     1      -1.453   1.067  10.489  0.00  0.00    +0.144 HD
ENDBRANCH   6  26
BRANCH   1  29
ATOM     29  C   UNL     1      -0.549  -0.737   2.452  0.00  0.00    +0.086 C 
BRANCH  29  30
ATOM     30  C   UNL     1      -0.013  -1.439   1.203  0.00  0.00    -0.061 C 
BRANCH  30  32
ATOM     31  C   UNL     1      -0.379   0.496  -0.166  0.00  0.00    -0.097 C 
ATOM     32  N   UNL     1      -0.707  -0.924   0.016  0.00  0.00    +0.377 N 
ATOM     33  C   UNL     1      -0.279  -1.681  -1.169  0.00  0.00    -0.097 C 
ATOM     34  H   UNL     1      -1.703  -1.026   0.138  0.00  0.00    -0.083 HD
ENDBRANCH  30  32
ENDBRANCH  29  30
ENDBRANCH   1  29
TORSDOF 6
