REMARK  Name = ZINC59641287
REMARK  14 active torsions:
REMARK  status: ('A' for Active; 'I' for Inactive)
REMARK    1  A    between atoms: C_1  and  C_2
REMARK    2  A    between atoms: C_4  and  C_32
REMARK    3  A    between atoms: C_5  and  C_30
REMARK    4  A    between atoms: C_6  and  N_8
REMARK    5  A    between atoms: N_8  and  N_9
REMARK    6  A    between atoms: C_10  and  C_11
REMARK    7  A    between atoms: C_13  and  O_28
REMARK    8  A    between atoms: C_14  and  O_18
REMARK    9  A    between atoms: O_18  and  C_19
REMARK   10  A    between atoms: C_19  and  C_20
REMARK   11  A    between atoms: C_25  and  C_26
REMARK   12  A    between atoms: O_28  and  C_29
REMARK   13  A    between atoms: C_32  and  O_33
REMARK   14  A    between atoms: O_33  and  C_34
REMARK                            x       y       z     vdW  Elec       q    Type
REMARK                         _______ _______ _______ _____ _____    ______ ____
ROOT
ATOM      1  C   UNL     1       0.053  -1.695   6.000  0.00  0.00    -0.001 A 
ATOM      2  C   UNL     1       0.073  -2.344   7.238  0.00  0.00    +0.059 A 
ATOM      3  C   UNL     1       0.068  -1.602   8.404  0.00  0.00    +0.163 A 
ATOM      4  C   UNL     1       0.044  -0.210   8.344  0.00  0.00    +0.176 A 
ATOM      5  C   UNL     1       0.023   0.435   7.116  0.00  0.00    +0.064 A 
ATOM      6  C   UNL     1       0.034  -0.299   5.947  0.00  0.00    +0.028 A 
ATOM      7 BR   UNL     1      -0.011   2.324   7.043  0.00  0.00    -0.046 Br
ENDROOT
BRANCH   1   9
ATOM      8  N   UNL     1       0.044  -1.877   3.604  0.00  0.00    -0.189 NA
ATOM      9  C   UNL     1       0.058  -2.482   4.753  0.00  0.00    +0.138 C 
BRANCH   8  10
ATOM     10  N   UNL     1       0.049  -2.625   2.420  0.00  0.00    -0.220 N 
ATOM     11  H   UNL     1       0.062  -3.594   2.458  0.00  0.00    +0.176 HD
BRANCH  10  17
ATOM     12  C   UNL     1      -0.018   1.503   0.010  0.00  0.00    +0.065 C 
ATOM     13  C   UNL     1       0.002  -0.004   0.002  0.00  0.00    +0.041 A 
ATOM     14  C   UNL     1       0.005  -0.676  -1.207  0.00  0.00    +0.030 A 
ATOM     15  C   UNL     1       0.024  -2.060  -1.218  0.00  0.00    +0.000 A 
ATOM     16  C   UNL     1       0.039  -2.734   0.008  0.00  0.00    +0.098 A 
ATOM     17  C   UNL     1       0.035  -1.981   1.195  0.00  0.00    +0.156 A 
ATOM     18  N   UNL     1       0.022  -0.657   1.147  0.00  0.00    -0.234 NA
BRANCH  16  19
ATOM     19  C   UNL     1       0.058  -4.166   0.053  0.00  0.00    +0.103 C 
ATOM     20  N   UNL     1       0.074  -5.301   0.089  0.00  0.00    -0.191 NA
ENDBRANCH  16  19
BRANCH  15  21
ATOM     21  C   UNL     1       0.028  -2.822  -2.518  0.00  0.00    +0.196 C 
BRANCH  21  22
ATOM     22  O   UNL     1       0.010  -1.901  -3.611  0.00  0.00    -0.378 OA
ATOM     23  C   UNL     1       0.012  -2.524  -4.896  0.00  0.00    +0.194 C 
ENDBRANCH  21  22
ENDBRANCH  15  21
ENDBRANCH  10  17
ENDBRANCH   8  10
ENDBRANCH   1   9
BRANCH   3  24
ATOM     24  O   UNL     1       0.087  -2.231   9.610  0.00  0.00    -0.491 OA
ATOM     25  C   UNL     1       0.111  -3.659   9.596  0.00  0.00    +0.277 C 
ENDBRANCH   3  24
BRANCH   4  26
ATOM     26  O   UNL     1       0.039   0.518   9.493  0.00  0.00    -0.483 OA
BRANCH  26  27
ATOM     27  C   UNL     1       1.310   0.887  10.032  0.00  0.00    +0.266 C 
BRANCH  27  28
ATOM     28  C   UNL     1       1.108   1.683  11.295  0.00  0.00    +0.007 A 
ATOM     29  C   UNL     1      -0.168   1.940  11.754  0.00  0.00    +0.008 A 
ATOM     30  C   UNL     1      -0.355   2.671  12.913  0.00  0.00    +0.000 A 
ATOM     31  C   UNL     1       0.733   3.150  13.620  0.00  0.00    +0.001 A 
ATOM     32  C   UNL     1       2.014   2.902  13.173  0.00  0.00    +0.019 A 
ATOM     33  C   UNL     1       2.211   2.159  12.007  0.00  0.00    +0.058 A 
BRANCH  33  34
ATOM     34  C   UNL     1       3.538   1.891  11.540  0.00  0.00    +0.100 C 
ATOM     35  N   UNL     1       4.590   1.679  11.169  0.00  0.00    -0.191 NA
ENDBRANCH  33  34
ENDBRANCH  27  28
ENDBRANCH  26  27
ENDBRANCH   4  26
TORSDOF 11
