REMARK  Name = ZINC10784683
REMARK  9 active torsions:
REMARK  status: ('A' for Active; 'I' for Inactive)
REMARK    1  A    between atoms: C_1  and  C_2
REMARK    2  A    between atoms: C_5  and  C_8
REMARK    3  A    between atoms: C_11  and  S_14
REMARK    4  A    between atoms: N_12  and  N_13
REMARK    5  A    between atoms: S_14  and  C_15
REMARK    6  A    between atoms: C_15  and  C_16
REMARK    7  A    between atoms: N_18  and  C_19
REMARK    8  A    between atoms: C_19  and  C_21
REMARK    9  A    between atoms: C_19  and  C_22
REMARK                            x       y       z     vdW  Elec       q    Type
REMARK                         _______ _______ _______ _____ _____    ______ ____
ROOT
ATOM      1  C   UNL     1       1.511  -8.330  -5.180  0.00  0.00    +0.182 A 
ATOM      2  N   UNL     1       0.465  -7.553  -5.018  0.00  0.00    -0.127 NA
ATOM      3  N   UNL     1       0.806  -6.482  -4.395  0.00  0.00    -0.121 NA
ATOM      4  C   UNL     1       2.093  -6.505  -4.130  0.00  0.00    +0.209 A 
ATOM      5  N   UNL     1       2.586  -7.682  -4.616  0.00  0.00    -0.224 N 
ENDROOT
BRANCH   1  10
ATOM      6  C   UNL     1       1.586 -13.473  -7.761  0.00  0.00    +0.044 C 
ATOM      7  C   UNL     1       1.567 -12.126  -7.085  0.00  0.00    -0.050 A 
ATOM      8  C   UNL     1       2.615 -11.752  -6.263  0.00  0.00    +0.004 A 
ATOM      9  C   UNL     1       2.603 -10.521  -5.641  0.00  0.00    +0.012 A 
ATOM     10  C   UNL     1       1.530  -9.651  -5.843  0.00  0.00    +0.021 A 
ATOM     11  C   UNL     1       0.473 -10.036  -6.669  0.00  0.00    +0.012 A 
ATOM     12  C   UNL     1       0.500 -11.268  -7.289  0.00  0.00    +0.004 A 
ENDBRANCH   1  10
BRANCH   5  13
ATOM     13  N   UNL     1       3.877  -8.124  -4.556  0.00  0.00    -0.295 N 
ATOM     14  H   UNL     1       4.014  -8.733  -3.763  0.00  0.00    +0.163 HD
ATOM     15  H   UNL     1       4.143  -8.582  -5.414  0.00  0.00    +0.163 HD
ENDBRANCH   5  13
BRANCH   4  16
ATOM     16  S   UNL     1       3.010  -5.253  -3.295  0.00  0.00    -0.075 S 
BRANCH  16  17
ATOM     17  C   UNL     1       1.691  -4.054  -2.980  0.00  0.00    +0.173 C 
BRANCH  17  18
ATOM     18  C   UNL     1       2.259  -2.863  -2.252  0.00  0.00    +0.224 C 
ATOM     19  O   UNL     1       3.439  -2.827  -1.974  0.00  0.00    -0.275 OA
ATOM     20  N   UNL     1       1.455  -1.836  -1.911  0.00  0.00    -0.308 N 
ATOM     21  H   UNL     1       0.511  -1.865  -2.133  0.00  0.00    +0.149 HD
BRANCH  20  22
ATOM     22  C   UNL     1       2.006  -0.678  -1.203  0.00  0.00    +0.107 C 
ATOM     23  C   UNL     1       2.035  -0.964   0.299  0.00  0.00    +0.033 C 
BRANCH  22  24
ATOM     24  C   UNL     1       1.145   0.530  -1.468  0.00  0.00    +0.010 A 
ATOM     25  C   UNL     1       1.519   1.812  -1.697  0.00  0.00    +0.013 A 
ATOM     26  C   UNL     1       0.544   2.766  -1.918  0.00  0.00    +0.008 A 
ATOM     27  C   UNL     1      -0.759   2.391  -1.900  0.00  0.00    +0.045 A 
ATOM     28  S   UNL     1      -0.634   0.642  -1.563  0.00  0.00    -0.100 S 
ENDBRANCH  22  24
ENDBRANCH  20  22
ENDBRANCH  17  18
ENDBRANCH  16  17
ENDBRANCH   4  16
TORSDOF 7
