REMARK  Name = ZINC49117300
REMARK  4 active torsions:
REMARK  status: ('A' for Active; 'I' for Inactive)
REMARK    1  A    between atoms: C_3  and  S_9
REMARK    2  A    between atoms: C_4  and  N_8
REMARK    3  A    between atoms: S_9  and  N_12
REMARK    4  A    between atoms: N_12  and  C_13
REMARK                            x       y       z     vdW  Elec       q    Type
REMARK                         _______ _______ _______ _____ _____    ______ ____
ROOT
ATOM      1  S   UNL     1       3.888   2.329  -0.023  0.00  0.00    +0.093 S 
ATOM      2  O   UNL     1       4.687   1.775  -1.059  0.00  0.00    -0.148 OA
ATOM      3  O   UNL     1       3.535   3.705   0.014  0.00  0.00    -0.148 OA
ENDROOT
BRANCH   1   6
ATOM      4  C   UNL     1      -0.017   1.381   0.010  0.00  0.00    +0.040 A 
ATOM      5  C   UNL     1       1.170   2.091   0.002  0.00  0.00    +0.033 A 
ATOM      6  C   UNL     1       2.377   1.421  -0.013  0.00  0.00    +0.131 A 
ATOM      7  C   UNL     1       2.401   0.032  -0.021  0.00  0.00    +0.054 A 
ATOM      8  C   UNL     1       1.209  -0.680  -0.013  0.00  0.00    +0.063 A 
ATOM      9  C   UNL     1       0.002  -0.004   0.002  0.00  0.00    +0.125 A 
ATOM     10  F   UNL     1      -1.159  -0.695   0.009  0.00  0.00    -0.205 F 
BRANCH   7  11
ATOM     11  N   UNL     1       3.622  -0.647  -0.036  0.00  0.00    -0.356 N 
ATOM     12  H   UNL     1       4.454  -0.148  -0.042  0.00  0.00    +0.142 HD
ATOM     13  H   UNL     1       3.637  -1.617  -0.042  0.00  0.00    +0.142 HD
ENDBRANCH   7  11
ENDBRANCH   1   6
BRANCH   1  14
ATOM     14  N   UNL     1       4.666   2.000   1.401  0.00  0.00    -0.097 NA
BRANCH  14  15
ATOM     15  C   UNL     1       5.904   2.588   1.673  0.00  0.00    +0.089 A 
ATOM     16  C   UNL     1       6.481   3.453   0.752  0.00  0.00    +0.043 A 
ATOM     17  C   UNL     1       7.705   4.032   1.023  0.00  0.00    +0.020 A 
ATOM     18  C   UNL     1       8.357   3.753   2.212  0.00  0.00    +0.016 A 
ATOM     19  C   UNL     1       7.785   2.892   3.131  0.00  0.00    +0.018 A 
ATOM     20  C   UNL     1       6.558   2.314   2.868  0.00  0.00    +0.042 A 
ATOM     21 BR   UNL     1       5.773   1.144   4.130  0.00  0.00    -0.048 Br
ATOM     22 BR   UNL     1       8.492   5.209  -0.231  0.00  0.00    -0.050 Br
ENDBRANCH  14  15
ENDBRANCH   1  14
TORSDOF 4
