REMARK  Name = ZINC19673966
REMARK  4 active torsions:
REMARK  status: ('A' for Active; 'I' for Inactive)
REMARK    1  A    between atoms: C_4  and  N_7
REMARK    2  A    between atoms: C_8  and  S_10
REMARK    3  A    between atoms: S_10  and  C_11
REMARK    4  A    between atoms: C_11  and  C_12
REMARK                            x       y       z     vdW  Elec       q    Type
REMARK                         _______ _______ _______ _____ _____    ______ ____
ROOT
ATOM      1  C   UNL     1       4.842  -3.828  -3.473  0.00  0.00    +0.151 C 
ENDROOT
BRANCH   1   2
ATOM      2  C   UNL     1       5.578  -4.435  -4.640  0.00  0.00    +0.121 A 
ATOM      3  N   UNL     1       6.117  -5.675  -4.516  0.00  0.00    -0.310 N 
ATOM      4  H   UNL     1       6.021  -6.153  -3.678  0.00  0.00    +0.170 HD
ATOM      5  C   UNL     1       6.782  -6.254  -5.534  0.00  0.00    +0.260 A 
ATOM      6  O   UNL     1       7.262  -7.367  -5.409  0.00  0.00    -0.267 OA
ATOM      7  C   UNL     1       6.916  -5.536  -6.767  0.00  0.00    +0.075 A 
ATOM      8  C   UNL     1       7.594  -5.968  -7.999  0.00  0.00    -0.023 A 
ATOM      9  C   UNL     1       7.584  -5.108  -9.031  0.00  0.00    -0.004 A 
ATOM     10  S   UNL     1       6.684  -3.692  -8.441  0.00  0.00    -0.073 S 
ATOM     11  C   UNL     1       6.327  -4.266  -6.801  0.00  0.00    +0.116 A 
ATOM     12  N   UNL     1       5.679  -3.760  -5.754  0.00  0.00    -0.226 NA
ATOM     13  C   UNL     1       8.309  -5.653 -10.232  0.00  0.00    +0.043 C 
ATOM     14  C   UNL     1       9.159  -6.817  -9.676  0.00  0.00    +0.010 C 
ATOM     15  C   UNL     1       8.350  -7.228  -8.430  0.00  0.00    +0.037 C 
ENDBRANCH   1   2
BRANCH   1  16
ATOM     16  S   UNL     1       4.230  -2.183  -3.933  0.00  0.00    -0.085 S 
BRANCH  16  18
ATOM     17  N   UNL     1       2.839  -0.440  -2.473  0.00  0.00    -0.365 N 
ATOM     18  C   UNL     1       3.405  -1.615  -2.483  0.00  0.00    +0.126 C 
ATOM     19  N   UNL     1       3.359  -2.411  -1.362  0.00  0.00    -0.339 N 
ATOM     20  H   UNL     1       2.905  -2.098  -0.564  0.00  0.00    +0.144 HD
ATOM     21  H   UNL     1       3.780  -3.285  -1.369  0.00  0.00    +0.144 HD
ATOM     22  H   UNL     1       2.872   0.121  -3.264  0.00  0.00    +0.162 HD
BRANCH  17  26
ATOM     23  C   UNL     1      -0.019   1.526   0.010  0.00  0.00    +0.000 C 
ATOM     24  C   UNL     1       1.417   2.055  -0.000  0.00  0.00    +0.002 C 
ATOM     25  C   UNL     1       2.133   1.562  -1.259  0.00  0.00    +0.024 C 
ATOM     26  C   UNL     1       2.154   0.032  -1.268  0.00  0.00    +0.081 C 
ATOM     27  C   UNL     1       0.718  -0.497  -1.257  0.00  0.00    +0.024 C 
ATOM     28  C   UNL     1       0.002  -0.004   0.002  0.00  0.00    +0.002 C 
ENDBRANCH  17  26
ENDBRANCH  16  18
ENDBRANCH   1  16
TORSDOF 4
