REMARK  Name = ZINC49548321
REMARK  4 active torsions:
REMARK  status: ('A' for Active; 'I' for Inactive)
REMARK    1  A    between atoms: C_1  and  N_2
REMARK    2  A    between atoms: N_2  and  C_3
REMARK    3  A    between atoms: C_6  and  S_9
REMARK    4  A    between atoms: S_9  and  N_12
REMARK                            x       y       z     vdW  Elec       q    Type
REMARK                         _______ _______ _______ _____ _____    ______ ____
ROOT
ATOM      1  S   UNL     1       2.565  -2.908  -4.483  0.00  0.00    +0.101 S 
ATOM      2  O   UNL     1       1.965  -4.195  -4.529  0.00  0.00    -0.146 OA
ATOM      3  O   UNL     1       2.558  -2.024  -5.595  0.00  0.00    -0.146 OA
ENDROOT
BRANCH   1   4
ATOM      4  N   UNL     1       4.153  -3.140  -4.073  0.00  0.00    -0.103 NA
ATOM      5  C   UNL     1       4.958  -3.765  -4.896  0.00  0.00    +0.192 A 
ATOM      6  N   UNL     1       4.696  -4.295  -6.133  0.00  0.00    -0.336 N 
ATOM      7  C   UNL     1       5.712  -4.922  -6.843  0.00  0.00    +0.028 A 
ATOM      8  C   UNL     1       6.914  -4.979  -6.271  0.00  0.00    +0.012 A 
ATOM      9  S   UNL     1       6.692  -4.148  -4.714  0.00  0.00    -0.053 S 
ATOM     10  C   UNL     1       7.929  -5.685  -7.126  0.00  0.00    +0.044 C 
ATOM     11  C   UNL     1       7.086  -6.455  -8.168  0.00  0.00    +0.011 C 
ATOM     12  C   UNL     1       5.800  -5.606  -8.212  0.00  0.00    +0.054 C 
ATOM     13  H   UNL     1       3.805  -4.232  -6.511  0.00  0.00    +0.168 HD
ENDBRANCH   1   4
BRANCH   1  17
ATOM     14  C   UNL     1       0.606  -0.689  -1.055  0.00  0.00    +0.027 A 
ATOM     15  C   UNL     1       1.194   0.018  -2.097  0.00  0.00    +0.025 A 
ATOM     16  C   UNL     1       1.791  -0.662  -3.140  0.00  0.00    +0.031 A 
ATOM     17  C   UNL     1       1.804  -2.044  -3.149  0.00  0.00    +0.113 A 
ATOM     18  C   UNL     1       1.220  -2.751  -2.114  0.00  0.00    +0.031 A 
ATOM     19  C   UNL     1       0.626  -2.077  -1.064  0.00  0.00    +0.025 A 
BRANCH  14  21
ATOM     20  C   UNL     1      -0.018   1.461   0.010  0.00  0.00    +0.125 C 
ATOM     21  N   UNL     1       0.002  -0.004   0.002  0.00  0.00    -0.347 N 
ATOM     22  H   UNL     1      -0.404  -0.499   0.731  0.00  0.00    +0.146 HD
ENDBRANCH  14  21
ENDBRANCH   1  17
TORSDOF 3
