REMARK  Name = ZINC36821222
REMARK  4 active torsions:
REMARK  status: ('A' for Active; 'I' for Inactive)
REMARK    1  A    between atoms: C_3  and  N_9
REMARK    2  A    between atoms: C_10  and  C_12
REMARK    3  A    between atoms: C_12  and  S_13
REMARK    4  A    between atoms: S_13  and  C_14
REMARK                            x       y       z     vdW  Elec       q    Type
REMARK                         _______ _______ _______ _____ _____    ______ ____
ROOT
ATOM      1  C   UNL     1       6.100   6.754  -0.498  0.00  0.00    +0.191 A 
ATOM      2  N   UNL     1       7.181   5.983  -0.505  0.00  0.00    -0.207 NA
ATOM      3  C   UNL     1       8.401   6.484  -0.590  0.00  0.00    +0.129 A 
ATOM      4  C   UNL     1       8.570   7.894  -0.677  0.00  0.00    +0.051 A 
ATOM      5  C   UNL     1       9.812   8.664  -0.777  0.00  0.00    -0.025 A 
ATOM      6  C   UNL     1       9.697  10.005  -0.847  0.00  0.00    -0.004 A 
ATOM      7  S   UNL     1       7.955  10.324  -0.787  0.00  0.00    -0.073 S 
ATOM      8  C   UNL     1       7.380   8.650  -0.665  0.00  0.00    +0.115 A 
ATOM      9  N   UNL     1       6.196   8.074  -0.583  0.00  0.00    -0.214 NA
ATOM     10  C   UNL     1      10.807  11.007  -0.953  0.00  0.00    +0.043 C 
ATOM     11  C   UNL     1      12.126  10.308  -0.595  0.00  0.00    +0.005 C 
ATOM     12  C   UNL     1      12.205   8.986  -1.364  0.00  0.00    +0.005 C 
ATOM     13  C   UNL     1      11.185   7.996  -0.800  0.00  0.00    +0.037 C 
ATOM     14  N   UNL     1       9.502   5.647  -0.594  0.00  0.00    -0.343 N 
ATOM     15  H   UNL     1       9.447   4.775  -1.016  0.00  0.00    +0.144 HD
ATOM     16  H   UNL     1      10.329   5.931  -0.174  0.00  0.00    +0.144 HD
ENDROOT
BRANCH   1  17
ATOM     17  S   UNL     1       4.507   6.009  -0.381  0.00  0.00    -0.077 S 
BRANCH  17  18
ATOM     18  C   UNL     1       4.859   4.232  -0.289  0.00  0.00    +0.173 C 
BRANCH  18  20
ATOM     19  N   UNL     1       3.580   2.123  -0.103  0.00  0.00    -0.284 N 
ATOM     20  C   UNL     1       3.565   3.468  -0.184  0.00  0.00    +0.228 C 
ATOM     21  O   UNL     1       2.508   4.064  -0.173  0.00  0.00    -0.275 OA
ATOM     22  H   UNL     1       4.425   1.652  -0.027  0.00  0.00    +0.155 HD
BRANCH  19  25
ATOM     23  C   UNL     1       0.068   1.245  -0.753  0.00  0.00    +0.040 A 
ATOM     24  C   UNL     1       1.253   1.955  -0.729  0.00  0.00    +0.027 A 
ATOM     25  C   UNL     1       2.378   1.406  -0.128  0.00  0.00    +0.052 A 
ATOM     26  C   UNL     1       2.308   0.143   0.448  0.00  0.00    +0.065 A 
ATOM     27  C   UNL     1       1.121  -0.563   0.421  0.00  0.00    +0.060 A 
ATOM     28  C   UNL     1       0.000  -0.013  -0.179  0.00  0.00    +0.125 A 
ATOM     29  F   UNL     1      -1.160  -0.704  -0.203  0.00  0.00    -0.205 F 
ATOM     30 CL   UNL     1       3.713  -0.547   1.200  0.00  0.00    -0.082 Cl
ENDBRANCH  19  25
ENDBRANCH  18  20
ENDBRANCH  17  18
ENDBRANCH   1  17
TORSDOF 4
