REMARK  Name = ZINC15016245
REMARK  5 active torsions:
REMARK  status: ('A' for Active; 'I' for Inactive)
REMARK    1  A    between atoms: C_10  and  C_25
REMARK    2  A    between atoms: C_13  and  C_16
REMARK    3  A    between atoms: C_19  and  O_24
REMARK    4  A    between atoms: C_20  and  O_23
REMARK    5  A    between atoms: C_21  and  O_22
REMARK                            x       y       z     vdW  Elec       q    Type
REMARK                         _______ _______ _______ _____ _____    ______ ____
ROOT
ATOM      1  C   UNL     1       3.620   3.522  -0.104  0.00  0.00    +0.001 A 
ATOM      2  C   UNL     1       2.429   4.153   0.205  0.00  0.00    +0.004 A 
ATOM      3  C   UNL     1       1.254   3.434   0.239  0.00  0.00    +0.046 A 
ATOM      4  C   UNL     1       1.251   2.066  -0.035  0.00  0.00    +0.129 A 
ATOM      5  C   UNL     1       2.453   1.440  -0.328  0.00  0.00    +0.017 A 
ATOM      6  C   UNL     1       3.628   2.166  -0.369  0.00  0.00    +0.009 A 
ATOM      7  C   UNL     1       2.493  -0.041  -0.602  0.00  0.00    +0.136 C 
ATOM      8  C   UNL     1       3.199  -0.362  -1.927  0.00  0.00    +0.087 C 
ATOM      9  C   UNL     1       2.182  -1.195  -2.681  0.00  0.00    +0.075 C 
ATOM     10  N   UNL     1       1.066  -1.211  -2.025  0.00  0.00    -0.184 NA
ATOM     11  N   UNL     1       1.096  -0.455  -0.867  0.00  0.00    -0.205 N 
ATOM     12  C   UNL     1       0.002  -0.004   0.002  0.00  0.00    +0.314 C 
ATOM     13  O   UNL     1       0.053   1.427  -0.001  0.00  0.00    -0.465 OA
ENDROOT
BRANCH  12  14
ATOM     14  C   UNL     1       0.203  -0.527   1.401  0.00  0.00    +0.058 A 
ATOM     15  C   UNL     1      -0.072   0.283   2.487  0.00  0.00    +0.016 A 
ATOM     16  C   UNL     1       0.111  -0.192   3.772  0.00  0.00    +0.050 A 
ATOM     17  C   UNL     1       0.571  -1.484   3.977  0.00  0.00    +0.162 A 
ATOM     18  C   UNL     1       0.849  -2.301   2.888  0.00  0.00    +0.201 A 
ATOM     19  C   UNL     1       0.658  -1.822   1.597  0.00  0.00    +0.170 A 
BRANCH  19  20
ATOM     20  O   UNL     1       0.923  -2.620   0.528  0.00  0.00    -0.503 OA
ATOM     21  H   UNL     1       1.833  -2.559   0.208  0.00  0.00    +0.292 HD
ENDBRANCH  19  20
BRANCH  18  22
ATOM     22  O   UNL     1       1.300  -3.570   3.085  0.00  0.00    -0.501 OA
ATOM     23  H   UNL     1       0.598  -4.232   3.151  0.00  0.00    +0.292 HD
ENDBRANCH  18  22
BRANCH  17  24
ATOM     24  O   UNL     1       0.751  -1.950   5.242  0.00  0.00    -0.503 OA
ATOM     25  H   UNL     1      -0.030  -2.380   5.617  0.00  0.00    +0.292 HD
ENDBRANCH  17  24
ENDBRANCH  12  14
BRANCH   9  26
ATOM     26  C   UNL     1       2.425  -1.877  -3.958  0.00  0.00    +0.035 A 
ATOM     27  C   UNL     1       1.561  -2.652  -4.710  0.00  0.00    +0.017 A 
ATOM     28  C   UNL     1       2.026  -3.192  -5.889  0.00  0.00    +0.008 A 
ATOM     29  C   UNL     1       3.305  -2.949  -6.273  0.00  0.00    +0.046 A 
ATOM     30  S   UNL     1       3.910  -1.916  -4.949  0.00  0.00    -0.095 S 
ENDBRANCH   9  26
TORSDOF 5
