REMARK  Name = ZINC04851997
REMARK  5 active torsions:
REMARK  status: ('A' for Active; 'I' for Inactive)
REMARK    1  A    between atoms: C_4  and  C_7
REMARK    2  A    between atoms: C_10  and  C_13
REMARK    3  A    between atoms: C_13  and  C_14
REMARK    4  A    between atoms: N_16  and  C_17
REMARK    5  A    between atoms: C_25  and  C_26
REMARK                            x       y       z     vdW  Elec       q    Type
REMARK                         _______ _______ _______ _____ _____    ______ ____
ROOT
ATOM      1  C   UNL     1      -0.043   6.650  -1.106  0.00  0.00    +0.222 C 
ATOM      2  O   UNL     1      -0.847   6.025  -1.764  0.00  0.00    -0.275 OA
ATOM      3  N   UNL     1       0.516   7.769  -1.608  0.00  0.00    -0.282 N 
ATOM      4  H   UNL     1       1.096   8.313  -1.053  0.00  0.00    +0.155 HD
ENDROOT
BRANCH   3   5
ATOM      5  C   UNL     1       0.259   8.144  -2.922  0.00  0.00    +0.092 A 
ATOM      6  C   UNL     1       0.459   7.332  -4.129  0.00  0.00    +0.042 A 
ATOM      7  C   UNL     1       0.914   6.034  -4.361  0.00  0.00    +0.013 A 
ATOM      8  C   UNL     1       0.977   5.556  -5.640  0.00  0.00    +0.001 A 
ATOM      9  C   UNL     1       0.586   6.353  -6.707  0.00  0.00    +0.004 A 
ATOM     10  C   UNL     1       0.130   7.636  -6.498  0.00  0.00    +0.047 A 
ATOM     11  C   UNL     1       0.057   8.143  -5.205  0.00  0.00    +0.138 A 
ATOM     12  O   UNL     1      -0.338   9.329  -4.703  0.00  0.00    -0.448 OA
ATOM     13  C   UNL     1      -0.225   9.347  -3.356  0.00  0.00    +0.211 A 
BRANCH  13  14
ATOM     14  C   UNL     1      -0.568  10.478  -2.496  0.00  0.00    +0.279 C 
ATOM     15  O   UNL     1      -0.612  10.333  -1.288  0.00  0.00    -0.267 OA
ATOM     16  N   UNL     1      -0.835  11.682  -3.040  0.00  0.00    -0.323 N 
ATOM     17  H   UNL     1      -0.800  11.798  -4.002  0.00  0.00    +0.145 HD
ATOM     18  H   UNL     1      -1.062  12.433  -2.469  0.00  0.00    +0.145 HD
ENDBRANCH  13  14
ENDBRANCH   3   5
BRANCH   1  19
ATOM     19  C   UNL     1       0.333   6.174   0.274  0.00  0.00    +0.131 C 
BRANCH  19  23
ATOM     20  C   UNL     1      -1.819   2.594   1.183  0.00  0.00    -0.018 A 
ATOM     21  C   UNL     1      -2.364   3.836   1.499  0.00  0.00    +0.009 A 
ATOM     22  C   UNL     1      -1.663   4.989   1.208  0.00  0.00    +0.005 A 
ATOM     23  C   UNL     1      -0.425   4.912   0.594  0.00  0.00    -0.039 A 
ATOM     24  C   UNL     1       0.118   3.681   0.273  0.00  0.00    +0.005 A 
ATOM     25  C   UNL     1      -0.573   2.522   0.564  0.00  0.00    +0.009 A 
BRANCH  20  29
ATOM     26  C   UNL     1      -3.961  -0.968   2.084  0.00  0.00    +0.000 A 
ATOM     27  C   UNL     1      -4.504   0.263   2.407  0.00  0.00    +0.001 A 
ATOM     28  C   UNL     1      -3.813   1.422   2.116  0.00  0.00    +0.008 A 
ATOM     29  C   UNL     1      -2.566   1.351   1.498  0.00  0.00    -0.018 A 
ATOM     30  C   UNL     1      -2.027   0.109   1.171  0.00  0.00    +0.008 A 
ATOM     31  C   UNL     1      -2.724  -1.044   1.470  0.00  0.00    +0.001 A 
ENDBRANCH  20  29
ENDBRANCH  19  23
ENDBRANCH   1  19
TORSDOF 5
