REMARK  Name = ZINC54201292
REMARK  8 active torsions:
REMARK  status: ('A' for Active; 'I' for Inactive)
REMARK    1  A    between atoms: C_1  and  O_2
REMARK    2  A    between atoms: O_2  and  C_3
REMARK    3  A    between atoms: C_6  and  C_9
REMARK    4  A    between atoms: C_12  and  C_15
REMARK    5  A    between atoms: C_20  and  O_21
REMARK    6  A    between atoms: C_28  and  C_29
REMARK    7  A    between atoms: C_34  and  O_35
REMARK    8  A    between atoms: O_35  and  C_36
REMARK                            x       y       z     vdW  Elec       q    Type
REMARK                         _______ _______ _______ _____ _____    ______ ____
ROOT
ATOM      1  C   UNL     1       2.441  -2.457  -4.355  0.00  0.00    +0.069 C 
ATOM      2  N   UNL     1       3.042  -1.855  -5.324  0.00  0.00    -0.182 NA
ATOM      3  N   UNL     1       3.709  -2.710  -6.199  0.00  0.00    -0.200 N 
ATOM      4  C   UNL     1       3.525  -4.096  -5.742  0.00  0.00    +0.139 C 
ATOM      5  C   UNL     1       2.662  -3.948  -4.473  0.00  0.00    +0.087 C 
ATOM      6  C   UNL     1       4.422  -2.322  -7.307  0.00  0.00    +0.149 C 
ATOM      7  N   UNL     1       5.011  -3.190  -8.075  0.00  0.00    -0.153 NA
ATOM      8  C   UNL     1       5.709  -2.827  -9.159  0.00  0.00    +0.302 C 
ATOM      9  O   UNL     1       6.302  -3.537  -9.954  0.00  0.00    -0.260 OA
ATOM     10  S   UNL     1       5.557  -1.047  -9.154  0.00  0.00    -0.026 S 
ATOM     11  C   UNL     1       4.550  -0.902  -7.684  0.00  0.00    +0.057 C 
ATOM     12  C   UNL     1       4.044   0.208  -7.080  0.00  0.00    +0.030 C 
ENDROOT
BRANCH   1  16
ATOM     13  C   UNL     1       0.204  -0.547  -1.295  0.00  0.00    +0.120 A 
ATOM     14  C   UNL     1       0.802   0.213  -2.292  0.00  0.00    +0.046 A 
ATOM     15  C   UNL     1       1.529  -0.403  -3.287  0.00  0.00    +0.013 A 
ATOM     16  C   UNL     1       1.665  -1.794  -3.293  0.00  0.00    -0.002 A 
ATOM     17  C   UNL     1       1.061  -2.554  -2.287  0.00  0.00    +0.013 A 
ATOM     18  C   UNL     1       0.340  -1.929  -1.293  0.00  0.00    +0.046 A 
BRANCH  13  20
ATOM     19  C   UNL     1      -0.612   1.489  -0.378  0.00  0.00    +0.277 C 
ATOM     20  O   UNL     1      -0.512   0.065  -0.316  0.00  0.00    -0.495 OA
ENDBRANCH  13  20
ENDBRANCH   1  16
BRANCH   4  21
ATOM     21  C   UNL     1       2.807  -4.908  -6.790  0.00  0.00    +0.017 A 
ATOM     22  C   UNL     1       2.097  -4.273  -7.790  0.00  0.00    +0.009 A 
ATOM     23  C   UNL     1       1.438  -5.017  -8.751  0.00  0.00    +0.001 A 
ATOM     24  C   UNL     1       1.487  -6.399  -8.713  0.00  0.00    +0.004 A 
ATOM     25  C   UNL     1       2.196  -7.039  -7.715  0.00  0.00    +0.046 A 
ATOM     26  C   UNL     1       2.863  -6.294  -6.753  0.00  0.00    +0.122 A 
BRANCH  26  27
ATOM     27  O   UNL     1       3.565  -6.921  -5.773  0.00  0.00    -0.506 OA
ATOM     28  H   UNL     1       3.046  -7.118  -4.981  0.00  0.00    +0.292 HD
ENDBRANCH  26  27
ENDBRANCH   4  21
BRANCH  12  29
ATOM     29  C   UNL     1       4.438   1.540  -7.548  0.00  0.00    +0.018 A 
ATOM     30  C   UNL     1       5.587   1.702  -8.332  0.00  0.00    +0.011 A 
ATOM     31  C   UNL     1       5.950   2.957  -8.767  0.00  0.00    +0.001 A 
ATOM     32  C   UNL     1       5.183   4.062  -8.434  0.00  0.00    +0.004 A 
ATOM     33  C   UNL     1       4.047   3.919  -7.660  0.00  0.00    +0.046 A 
ATOM     34  C   UNL     1       3.661   2.664  -7.217  0.00  0.00    +0.127 A 
BRANCH  34  35
ATOM     35  O   UNL     1       2.542   2.522  -6.463  0.00  0.00    -0.495 OA
ATOM     36  C   UNL     1       1.804   3.709  -6.167  0.00  0.00    +0.277 C 
ENDBRANCH  34  35
ENDBRANCH  12  29
TORSDOF 6
