REMARK  Name = ZINC33174395
REMARK  7 active torsions:
REMARK  status: ('A' for Active; 'I' for Inactive)
REMARK    1  A    between atoms: C_4  and  N_10
REMARK    2  A    between atoms: C_14  and  C_17
REMARK    3  A    between atoms: N_19  and  C_20
REMARK    4  A    between atoms: C_20  and  C_21
REMARK    5  A    between atoms: C_21  and  C_22
REMARK    6  A    between atoms: C_22  and  N_23
REMARK    7  A    between atoms: C_26  and  N_29
REMARK                            x       y       z     vdW  Elec       q    Type
REMARK                         _______ _______ _______ _____ _____    ______ ____
ROOT
ATOM      1  C   UNL     1       5.681   6.437   2.345  0.00  0.00    +0.218 C 
ATOM      2  O   UNL     1       6.769   5.901   2.368  0.00  0.00    -0.275 OA
ATOM      3  N   UNL     1       4.563   5.690   2.247  0.00  0.00    -0.315 N 
ATOM      4  H   UNL     1       3.577   6.176   2.226  0.00  0.00    +0.149 HD
ENDROOT
BRANCH   1   9
ATOM      5  N   UNL     1       6.884  10.005   2.590  0.00  0.00    -0.315 N 
ATOM      6  C   UNL     1       6.270  10.545   1.370  0.00  0.00    +0.106 C 
ATOM      7  C   UNL     1       4.846  10.002   1.231  0.00  0.00    +0.020 C 
ATOM      8  C   UNL     1       4.891   8.473   1.168  0.00  0.00    +0.016 C 
ATOM      9  C   UNL     1       5.579   7.938   2.427  0.00  0.00    +0.092 C 
ATOM     10  C   UNL     1       6.982   8.540   2.531  0.00  0.00    +0.119 C 
BRANCH   5  14
ATOM     11  C   UNL     1      10.615  11.673   3.182  0.00  0.00    +0.033 A 
ATOM     12  C   UNL     1      10.304  10.925   2.079  0.00  0.00    +0.085 A 
ATOM     13  N   UNL     1       9.092  10.411   1.935  0.00  0.00    -0.349 N 
ATOM     14  C   UNL     1       8.128  10.578   2.816  0.00  0.00    +0.107 A 
ATOM     15  C   UNL     1       8.345  11.342   3.993  0.00  0.00    +0.027 A 
ATOM     16  C   UNL     1       9.642  11.882   4.142  0.00  0.00    +0.024 A 
ATOM     17  S   UNL     1       9.560  12.746   5.686  0.00  0.00    -0.096 S 
ATOM     18  C   UNL     1       7.860  12.404   6.104  0.00  0.00    +0.046 A 
ATOM     19  C   UNL     1       7.431  11.653   5.079  0.00  0.00    +0.019 A 
ATOM     20  H   UNL     1       8.851   9.811   1.045  0.00  0.00    +0.167 HD
ENDBRANCH   5  14
ENDBRANCH   1   9
BRANCH   3  21
ATOM     21  C   UNL     1       4.662   4.230   2.167  0.00  0.00    +0.105 C 
BRANCH  21  22
ATOM     22  C   UNL     1       3.260   3.629   2.063  0.00  0.00    +0.034 C 
BRANCH  22  23
ATOM     23  C   UNL     1       3.363   2.104   1.980  0.00  0.00    +0.086 C 
BRANCH  23  24
ATOM     24  N   UNL     1       2.016   1.527   1.880  0.00  0.00    -0.302 NA
ATOM     25  C   UNL     1       1.373   1.908   0.616  0.00  0.00    +0.083 C 
ATOM     26  C   UNL     1      -0.075   1.413   0.610  0.00  0.00    +0.000 C 
ATOM     27  C   UNL     1      -0.090  -0.110   0.773  0.00  0.00    -0.066 C 
ATOM     28  C   UNL     1       0.629  -0.483   2.073  0.00  0.00    +0.000 C 
ATOM     29  C   UNL     1       2.057   0.067   2.037  0.00  0.00    +0.083 C 
BRANCH  27  30
ATOM     30  N   UNL     1      -1.479  -0.585   0.826  0.00  0.00    +0.382 N 
ATOM     31  C   UNL     1      -2.192   0.002   1.968  0.00  0.00    -0.078 C 
ATOM     32  C   UNL     1      -3.668  -0.398   1.909  0.00  0.00    -0.019 C 
ATOM     33  C   UNL     1      -3.780  -1.925   1.943  0.00  0.00    -0.004 C 
ATOM     34  C   UNL     1      -2.989  -2.513   0.771  0.00  0.00    -0.019 C 
ATOM     35  C   UNL     1      -1.532  -2.052   0.863  0.00  0.00    -0.078 C 
ATOM     36  H   UNL     1      -1.986  -0.254  -0.092  0.00  0.00    -0.081 HD
ENDBRANCH  27  30
ENDBRANCH  23  24
ENDBRANCH  22  23
ENDBRANCH  21  22
ENDBRANCH   3  21
TORSDOF 7
