REMARK  Name = ZINC58992577
REMARK  9 active torsions:
REMARK  status: ('A' for Active; 'I' for Inactive)
REMARK    1  A    between atoms: C_4  and  C_7
REMARK    2  A    between atoms: N_8  and  N_9
REMARK    3  A    between atoms: C_12  and  S_15
REMARK    4  A    between atoms: S_15  and  C_16
REMARK    5  A    between atoms: C_16  and  C_17
REMARK    6  A    between atoms: N_19  and  C_20
REMARK    7  A    between atoms: C_25  and  S_26
REMARK    8  A    between atoms: S_26  and  C_27
REMARK    9  A    between atoms: C_27  and  C_28
REMARK                            x       y       z     vdW  Elec       q    Type
REMARK                         _______ _______ _______ _____ _____    ______ ____
ROOT
ATOM      1  C   UNL     1       3.585 -10.210  -0.102  0.00  0.00    +0.228 C 
ATOM      2  O   UNL     1       2.373 -10.175  -0.093  0.00  0.00    -0.275 OA
ATOM      3  N   UNL     1       4.224 -11.397  -0.105  0.00  0.00    -0.284 N 
ATOM      4  H   UNL     1       5.191 -11.427  -0.178  0.00  0.00    +0.155 HD
ENDROOT
BRANCH   3   5
ATOM      5  C   UNL     1       3.492 -12.588  -0.002  0.00  0.00    +0.047 A 
ATOM      6  C   UNL     1       2.239 -12.686  -0.587  0.00  0.00    +0.024 A 
ATOM      7  C   UNL     1       1.518 -13.861  -0.485  0.00  0.00    +0.002 A 
ATOM      8  C   UNL     1       2.043 -14.942   0.200  0.00  0.00    +0.001 A 
ATOM      9  C   UNL     1       3.292 -14.854   0.786  0.00  0.00    +0.016 A 
ATOM     10  C   UNL     1       4.025 -13.680   0.684  0.00  0.00    +0.029 A 
BRANCH  10  11
ATOM     11  S   UNL     1       5.619 -13.566   1.425  0.00  0.00    -0.119 S 
BRANCH  11  12
ATOM     12  C   UNL     1       5.869 -15.196   2.181  0.00  0.00    +0.109 C 
BRANCH  12  13
ATOM     13  C   UNL     1       7.215 -15.234   2.858  0.00  0.00    -0.037 A 
ATOM     14  C   UNL     1       8.332 -15.641   2.152  0.00  0.00    +0.006 A 
ATOM     15  C   UNL     1       9.566 -15.676   2.773  0.00  0.00    +0.020 A 
ATOM     16  C   UNL     1       9.684 -15.305   4.101  0.00  0.00    +0.041 A 
ATOM     17  C   UNL     1       8.566 -14.899   4.806  0.00  0.00    +0.020 A 
ATOM     18  C   UNL     1       7.333 -14.858   4.183  0.00  0.00    +0.006 A 
ATOM     19 CL   UNL     1      11.234 -15.350   4.881  0.00  0.00    -0.084 Cl
ENDBRANCH  12  13
ENDBRANCH  11  12
ENDBRANCH  10  11
ENDBRANCH   3   5
BRANCH   1  20
ATOM     20  C   UNL     1       4.377  -8.928  -0.111  0.00  0.00    +0.173 C 
BRANCH  20  21
ATOM     21  S   UNL     1       3.240  -7.515  -0.104  0.00  0.00    -0.075 S 
BRANCH  21  25
ATOM     22  N   UNL     1       4.935  -2.660  -0.127  0.00  0.00    -0.205 N 
ATOM     23  C   UNL     1       4.958  -4.043  -0.124  0.00  0.00    +0.232 A 
ATOM     24  N   UNL     1       3.906  -4.835  -0.115  0.00  0.00    -0.186 NA
ATOM     25  C   UNL     1       4.304  -6.111  -0.115  0.00  0.00    +0.211 A 
ATOM     26  N   UNL     1       5.615  -6.149  -0.125  0.00  0.00    -0.144 NA
ATOM     27  N   UNL     1       6.063  -4.818  -0.137  0.00  0.00    -0.245 N 
ATOM     28  H   UNL     1       5.766  -2.161  -0.139  0.00  0.00    +0.177 HD
ATOM     29  H   UNL     1       6.985  -4.515  -0.150  0.00  0.00    +0.192 HD
BRANCH  22  31
ATOM     30  C   UNL     1       3.688  -0.682  -0.114  0.00  0.00    +0.138 C 
ATOM     31  N   UNL     1       3.710  -1.980  -0.112  0.00  0.00    -0.188 NA
BRANCH  30  35
ATOM     32  C   UNL     1      -0.022   1.378  -0.070  0.00  0.00    +0.000 A 
ATOM     33  C   UNL     1       1.162   2.093  -0.087  0.00  0.00    +0.001 A 
ATOM     34  C   UNL     1       2.372   1.431  -0.101  0.00  0.00    +0.009 A 
ATOM     35  C   UNL     1       2.399   0.034  -0.099  0.00  0.00    -0.005 A 
ATOM     36  C   UNL     1       1.199  -0.682  -0.082  0.00  0.00    +0.009 A 
ATOM     37  C   UNL     1      -0.003  -0.005  -0.068  0.00  0.00    +0.001 A 
ENDBRANCH  30  35
ENDBRANCH  22  31
ENDBRANCH  21  25
ENDBRANCH  20  21
ENDBRANCH   1  20
TORSDOF 9
