REMARK  Name = ZINC11867331
REMARK  9 active torsions:
REMARK  status: ('A' for Active; 'I' for Inactive)
REMARK    1  A    between atoms: C_1  and  C_2
REMARK    2  A    between atoms: C_2  and  C_3
REMARK    3  A    between atoms: C_8  and  C_29
REMARK    4  A    between atoms: C_9  and  N_28
REMARK    5  A    between atoms: C_12  and  C_15
REMARK    6  A    between atoms: C_13  and  O_14
REMARK    7  A    between atoms: C_15  and  C_17
REMARK    8  A    between atoms: C_15  and  N_63
REMARK    9  A    between atoms: C_31  and  C_34
REMARK                            x       y       z     vdW  Elec       q    Type
REMARK                         _______ _______ _______ _____ _____    ______ ____
ROOT
ATOM      1  C   UNL     1      -1.202  -2.729  -3.238  0.00  0.00    -0.005 A 
ATOM      2  C   UNL     1      -2.177  -2.115  -3.971  0.00  0.00    +0.022 A 
ATOM      3  C   UNL     1      -2.888  -1.047  -3.422  0.00  0.00    +0.065 A 
ATOM      4  C   UNL     1      -3.947  -0.364  -4.188  0.00  0.00    +0.204 A 
ATOM      5  O   UNL     1      -4.232  -0.710  -5.323  0.00  0.00    -0.286 OA
ATOM      6  C   UNL     1      -4.634   0.703  -3.547  0.00  0.00    +0.111 A 
ATOM      7  C   UNL     1      -4.272   1.059  -2.255  0.00  0.00    +0.198 A 
ATOM      8  O   UNL     1      -3.303   0.423  -1.587  0.00  0.00    -0.440 OA
ATOM      9  C   UNL     1      -2.609  -0.607  -2.118  0.00  0.00    +0.146 A 
ATOM     10  C   UNL     1      -1.612  -1.237  -1.388  0.00  0.00    +0.028 A 
ATOM     11  C   UNL     1      -0.914  -2.295  -1.946  0.00  0.00    +0.125 A 
ENDROOT
BRANCH   6  12
ATOM     12  C   UNL     1      -5.708   1.429  -4.250  0.00  0.00    +0.117 A 
ATOM     13  N   UNL     1      -6.450   2.446  -3.831  0.00  0.00    -0.244 NA
ATOM     14  C   UNL     1      -7.375   2.977  -4.601  0.00  0.00    +0.046 A 
ATOM     15  C   UNL     1      -7.581   2.483  -5.848  0.00  0.00    +0.070 A 
ATOM     16  S   UNL     1      -6.355   1.182  -5.898  0.00  0.00    -0.075 S 
ATOM     17  C   UNL     1      -8.204   4.131  -4.100  0.00  0.00    +0.066 C 
ENDBRANCH   6  12
BRANCH   7  18
ATOM     18  N   UNL     1      -4.927   2.093  -1.646  0.00  0.00    -0.329 N 
ATOM     19  H   UNL     1      -4.687   2.355  -0.744  0.00  0.00    +0.145 HD
ATOM     20  H   UNL     1      -5.632   2.565  -2.117  0.00  0.00    +0.145 HD
ENDBRANCH   7  18
BRANCH   1  22
ATOM     21  C   UNL     1      -1.078  -5.200  -3.399  0.00  0.00    +0.009 C 
ATOM     22  C   UNL     1      -0.433  -3.882  -3.830  0.00  0.00    +0.035 C 
ENDBRANCH   1  22
BRANCH  11  23
ATOM     23  O   UNL     1       0.057  -2.915  -1.228  0.00  0.00    -0.506 OA
ATOM     24  H   UNL     1      -0.260  -3.659  -0.698  0.00  0.00    +0.292 HD
ENDBRANCH  11  23
BRANCH  10  25
ATOM     25  C   UNL     1      -1.293  -0.775   0.011  0.00  0.00    +0.000 C 
BRANCH  25  31
ATOM     26  C   UNL     1      -2.371  -2.773   0.850  0.00  0.00    -0.078 C 
ATOM     27  C   UNL     1      -2.145  -4.049   1.664  0.00  0.00    -0.019 C 
ATOM     28  C   UNL     1      -1.813  -3.674   3.111  0.00  0.00    -0.004 C 
ATOM     29  C   UNL     1      -0.578  -2.769   3.124  0.00  0.00    -0.019 C 
ATOM     30  C   UNL     1      -0.850  -1.530   2.268  0.00  0.00    -0.078 C 
ATOM     31  N   UNL     1      -1.139  -1.958   0.883  0.00  0.00    +0.387 N 
ATOM     32  H   UNL     1      -0.355  -2.525   0.539  0.00  0.00    -0.080 HD
ENDBRANCH  25  31
BRANCH  25  33
ATOM     33  C   UNL     1       0.002  -0.004   0.002  0.00  0.00    -0.056 A 
ATOM     34  C   UNL     1      -0.017   1.378   0.010  0.00  0.00    +0.002 A 
ATOM     35  C   UNL     1       1.171   2.086   0.002  0.00  0.00    +0.000 A 
ATOM     36  C   UNL     1       2.377   1.411  -0.015  0.00  0.00    +0.000 A 
ATOM     37  C   UNL     1       2.396   0.029  -0.021  0.00  0.00    +0.000 A 
ATOM     38  C   UNL     1       1.208  -0.679  -0.013  0.00  0.00    +0.002 A 
ENDBRANCH  25  33
ENDBRANCH  10  25
TORSDOF 7
