REMARK  Name = ZINC20993392
REMARK  8 active torsions:
REMARK  status: ('A' for Active; 'I' for Inactive)
REMARK    1  A    between atoms: N_7  and  C_17
REMARK    2  A    between atoms: C_17  and  C_18
REMARK    3  A    between atoms: C_18  and  C_19
REMARK    4  A    between atoms: N_21  and  C_22
REMARK    5  A    between atoms: C_22  and  C_23
REMARK    6  A    between atoms: C_23  and  C_24
REMARK    7  A    between atoms: C_27  and  S_30
REMARK    8  A    between atoms: S_30  and  N_33
REMARK                            x       y       z     vdW  Elec       q    Type
REMARK                         _______ _______ _______ _____ _____    ______ ____
ROOT
ATOM      1  C   UNL     1      -1.750  -1.347  -0.247  0.00  0.00    +0.115 C 
ENDROOT
BRANCH   1   2
ATOM      2  C   UNL     1      -1.668  -2.471  -1.248  0.00  0.00    +0.215 C 
ATOM      3  O   UNL     1      -2.105  -2.318  -2.369  0.00  0.00    -0.276 OA
ATOM      4  N   UNL     1      -1.108  -3.646  -0.897  0.00  0.00    -0.315 N 
ATOM      5  H   UNL     1      -0.711  -3.784   0.119  0.00  0.00    +0.149 HD
BRANCH   4   6
ATOM      6  C   UNL     1      -1.028  -4.738  -1.870  0.00  0.00    +0.109 C 
BRANCH   6   7
ATOM      7  C   UNL     1      -0.354  -5.950  -1.223  0.00  0.00    +0.054 C 
BRANCH   7   8
ATOM      8  C   UNL     1      -0.272  -7.073  -2.223  0.00  0.00    -0.046 A 
ATOM      9  C   UNL     1      -1.300  -7.993  -2.316  0.00  0.00    +0.005 A 
ATOM     10  C   UNL     1      -1.227  -9.021  -3.237  0.00  0.00    +0.029 A 
ATOM     11  C   UNL     1      -0.121  -9.135  -4.059  0.00  0.00    +0.105 A 
ATOM     12  C   UNL     1       0.909  -8.219  -3.963  0.00  0.00    +0.029 A 
ATOM     13  C   UNL     1       0.834  -7.188  -3.045  0.00  0.00    +0.005 A 
BRANCH  11  14
ATOM     14  S   UNL     1      -0.026 -10.448  -5.230  0.00  0.00    +0.056 S 
ATOM     15  O   UNL     1      -1.362 -10.851  -5.498  0.00  0.00    -0.153 OA
ATOM     16  O   UNL     1       0.860 -10.016  -6.253  0.00  0.00    -0.153 OA
BRANCH  14  17
ATOM     17  N   UNL     1       0.711 -11.725  -4.474  0.00  0.00    -0.204 NA
ATOM     18  H   UNL     1       0.790 -12.569  -5.175  0.00  0.00    +0.144 HD
ATOM     19  H   UNL     1       0.115 -12.028  -3.601  0.00  0.00    +0.144 HD
ENDBRANCH  14  17
ENDBRANCH  11  14
ENDBRANCH   7   8
ENDBRANCH   6   7
ENDBRANCH   4   6
ENDBRANCH   1   2
BRANCH   1  20
ATOM     20  C   UNL     1      -2.424  -0.136  -0.895  0.00  0.00    +0.123 C 
BRANCH  20  27
ATOM     21  C   UNL     1      -5.953   1.215   0.877  0.00  0.00    +0.002 A 
ATOM     22  C   UNL     1      -5.911   1.484   2.232  0.00  0.00    +0.001 A 
ATOM     23  C   UNL     1      -4.693   1.586   2.875  0.00  0.00    +0.017 A 
ATOM     24  C   UNL     1      -3.508   1.420   2.166  0.00  0.00    +0.036 A 
ATOM     25  C   UNL     1      -3.546   1.153   0.806  0.00  0.00    +0.050 A 
ATOM     26  C   UNL     1      -4.781   1.053   0.166  0.00  0.00    +0.024 A 
ATOM     27  N   UNL     1      -2.400   0.993   0.038  0.00  0.00    -0.266 N 
ATOM     28  C   UNL     1      -1.301   1.704   0.026  0.00  0.00    +0.253 C 
ATOM     29  O   UNL     1      -0.450   1.357  -0.770  0.00  0.00    -0.270 OA
ATOM     30  C   UNL     1      -0.971   2.863   0.853  0.00  0.00    +0.069 A 
ATOM     31  C   UNL     1      -0.354   3.974   0.256  0.00  0.00    +0.017 A 
ATOM     32  C   UNL     1      -0.061   5.072   1.044  0.00  0.00    +0.020 A 
ATOM     33  C   UNL     1      -0.384   5.047   2.389  0.00  0.00    +0.112 A 
ATOM     34  N   UNL     1      -0.957   3.993   2.931  0.00  0.00    -0.248 NA
ATOM     35  C   UNL     1      -1.251   2.907   2.223  0.00  0.00    +0.114 A 
ATOM     36  S   UNL     1      -1.980   1.538   3.030  0.00  0.00    -0.067 S 
ENDBRANCH  20  27
ENDBRANCH   1  20
TORSDOF 8
