REMARK  Name = ZINC24266372
REMARK  11 active torsions:
REMARK  status: ('A' for Active; 'I' for Inactive)
REMARK    1  A    between atoms: C_1  and  C_2
REMARK    2  A    between atoms: C_4  and  C_33
REMARK    3  A    between atoms: C_5  and  C_32
REMARK    4  A    between atoms: C_6  and  S_9
REMARK    5  A    between atoms: C_7  and  C_8
REMARK    6  A    between atoms: S_9  and  N_12
REMARK    7  A    between atoms: N_15  and  C_18
REMARK    8  A    between atoms: C_18  and  C_20
REMARK    9  A    between atoms: C_18  and  C_21
REMARK   10  A    between atoms: N_26  and  C_27
REMARK   11  A    between atoms: C_27  and  C_28
REMARK                            x       y       z     vdW  Elec       q    Type
REMARK                         _______ _______ _______ _____ _____    ______ ____
ROOT
ATOM      1  N   UNL     1       1.976   3.070  -0.247  0.00  0.00    -0.180 NA
ATOM      2  C   UNL     1       0.567   2.925  -0.644  0.00  0.00    +0.091 C 
ATOM      3  C   UNL     1       0.268   1.435  -0.843  0.00  0.00    -0.060 C 
ATOM      4  N   UNL     1       0.652   0.696   0.367  0.00  0.00    +0.389 N 
ATOM      5  C   UNL     1       2.096   0.793   0.615  0.00  0.00    -0.060 C 
ATOM      6  C   UNL     1       2.470   2.256   0.874  0.00  0.00    +0.091 C 
ATOM      7  H   UNL     1       0.134   1.159   1.220  0.00  0.00    -0.081 HD
ENDROOT
BRANCH   1   8
ATOM      8  S   UNL     1       2.978   4.122  -1.041  0.00  0.00    +0.061 S 
ATOM      9  O   UNL     1       4.303   3.650  -0.839  0.00  0.00    -0.153 OA
ATOM     10  O   UNL     1       2.426   4.310  -2.336  0.00  0.00    -0.153 OA
BRANCH   8  16
ATOM     11  C   UNL     1       4.755   7.627   2.405  0.00  0.00    +0.044 C 
ATOM     12  C   UNL     1       3.722   7.243   1.377  0.00  0.00    -0.045 A 
ATOM     13  C   UNL     1       2.686   8.109   1.083  0.00  0.00    +0.007 A 
ATOM     14  C   UNL     1       1.738   7.757   0.140  0.00  0.00    -0.045 A 
ATOM     15  C   UNL     1       1.827   6.539  -0.508  0.00  0.00    -0.021 A 
ATOM     16  C   UNL     1       2.865   5.674  -0.214  0.00  0.00    +0.112 A 
ATOM     17  C   UNL     1       3.809   6.024   0.732  0.00  0.00    -0.021 A 
ATOM     18  C   UNL     1       4.936   5.078   1.058  0.00  0.00    +0.046 C 
ATOM     19  C   UNL     1       0.794   6.155  -1.536  0.00  0.00    +0.046 C 
ATOM     20  C   UNL     1       0.608   8.700  -0.181  0.00  0.00    +0.044 C 
ENDBRANCH   8  16
ENDBRANCH   1   8
BRANCH   4  21
ATOM     21  C   UNL     1       0.225  -0.707   0.285  0.00  0.00    +0.017 C 
ATOM     22  C   UNL     1       0.635  -1.287  -1.070  0.00  0.00    -0.004 C 
BRANCH  21  23
ATOM     23  C   UNL     1      -1.273  -0.786   0.431  0.00  0.00    +0.207 C 
ATOM     24  O   UNL     1      -1.938   0.228   0.419  0.00  0.00    -0.277 OA
ATOM     25  N   UNL     1      -1.874  -1.984   0.576  0.00  0.00    -0.242 N 
ATOM     26  C   UNL     1      -3.214  -2.054   0.707  0.00  0.00    +0.306 C 
ATOM     27  O   UNL     1      -3.880  -1.037   0.695  0.00  0.00    -0.252 OA
ATOM     28  N   UNL     1      -3.815  -3.251   0.852  0.00  0.00    -0.291 N 
ATOM     29  H   UNL     1      -1.272  -2.904   0.587  0.00  0.00    +0.159 HD
ATOM     30  H   UNL     1      -3.212  -4.171   0.863  0.00  0.00    +0.151 HD
BRANCH  28  31
ATOM     31  C   UNL     1      -5.271  -3.328   0.994  0.00  0.00    +0.219 C 
BRANCH  31  32
ATOM     32  C   UNL     1      -5.693  -4.791   1.141  0.00  0.00    +0.405 C 
ATOM     33  F   UNL     1      -5.084  -5.340   2.275  0.00  0.00    -0.169 F 
ATOM     34  F   UNL     1      -7.083  -4.864   1.278  0.00  0.00    -0.169 F 
ATOM     35  F   UNL     1      -5.297  -5.507   0.006  0.00  0.00    -0.169 F 
ENDBRANCH  31  32
ENDBRANCH  28  31
ENDBRANCH  21  23
ENDBRANCH   4  21
TORSDOF 6
