REMARK  Name = ZINC67103429
REMARK  6 active torsions:
REMARK  status: ('A' for Active; 'I' for Inactive)
REMARK    1  A    between atoms: C_6  and  C_7
REMARK    2  A    between atoms: C_7  and  C_9
REMARK    3  A    between atoms: C_7  and  N_15
REMARK    4  A    between atoms: N_18  and  N_19
REMARK    5  A    between atoms: C_20  and  C_22
REMARK    6  A    between atoms: C_22  and  C_23
REMARK                            x       y       z     vdW  Elec       q    Type
REMARK                         _______ _______ _______ _____ _____    ______ ____
ROOT
ATOM      1  N   UNL     1      -1.163  -1.938   0.891  0.00  0.00    -0.289 N 
ATOM      2  C   UNL     1      -2.259  -2.480   1.458  0.00  0.00    +0.316 C 
ATOM      3  O   UNL     1      -3.356  -2.003   1.239  0.00  0.00    -0.251 OA
ATOM      4  N   UNL     1      -2.140  -3.550   2.268  0.00  0.00    -0.218 N 
ATOM      5  H   UNL     1      -0.288  -2.319   1.065  0.00  0.00    +0.151 HD
ATOM      6  H   UNL     1      -2.929  -3.940   2.676  0.00  0.00    +0.174 HD
ENDROOT
BRANCH   4   7
ATOM      7  N   UNL     1      -0.876  -4.101   2.520  0.00  0.00    -0.233 N 
ATOM      8  C   UNL     1      -0.757  -5.171   3.330  0.00  0.00    +0.229 C 
ATOM      9  O   UNL     1      -1.743  -5.658   3.841  0.00  0.00    -0.274 OA
ATOM     10  H   UNL     1      -0.087  -3.711   2.112  0.00  0.00    +0.173 HD
BRANCH   8  11
ATOM     11  C   UNL     1       0.602  -5.763   3.602  0.00  0.00    +0.101 C 
BRANCH  11  12
ATOM     12  C   UNL     1       0.459  -6.959   4.544  0.00  0.00    -0.002 C 
ATOM     13  C   UNL     1      -0.052  -6.479   5.904  0.00  0.00    +0.004 C 
ATOM     14  C   UNL     1      -0.196  -7.675   6.847  0.00  0.00    +0.000 C 
ATOM     15  C   UNL     1       1.165  -8.351   7.024  0.00  0.00    +0.000 C 
ATOM     16  C   UNL     1       1.676  -8.832   5.664  0.00  0.00    +0.000 C 
ATOM     17  C   UNL     1       1.820  -7.635   4.721  0.00  0.00    +0.004 C 
ENDBRANCH  11  12
ENDBRANCH   8  11
ENDBRANCH   4   7
BRANCH   1  18
ATOM     18  C   UNL     1      -1.293  -0.775   0.010  0.00  0.00    +0.133 C 
BRANCH  18  24
ATOM     19  C   UNL     1      -0.017   1.378   0.010  0.00  0.00    +0.008 A 
ATOM     20  C   UNL     1       1.170   2.086   0.002  0.00  0.00    +0.038 A 
ATOM     21  C   UNL     1       2.379   1.410  -0.013  0.00  0.00    +0.123 A 
ATOM     22  C   UNL     1       2.396   0.026  -0.021  0.00  0.00    +0.038 A 
ATOM     23  C   UNL     1       1.208  -0.680  -0.013  0.00  0.00    +0.008 A 
ATOM     24  C   UNL     1       0.002  -0.004   0.002  0.00  0.00    -0.025 A 
ATOM     25  F   UNL     1       3.540   2.101  -0.021  0.00  0.00    -0.205 F 
ENDBRANCH  18  24
BRANCH  18  26
ATOM     26  C   UNL     1      -1.617  -1.243  -1.410  0.00  0.00    +0.143 C 
ATOM     27  C   UNL     1      -2.964  -2.009  -1.430  0.00  0.00    +0.036 C 
ATOM     28  C   UNL     1      -3.395  -1.808  -2.908  0.00  0.00    +0.031 C 
ATOM     29  C   UNL     1      -2.854  -0.396  -3.219  0.00  0.00    +0.160 C 
ATOM     30  O   UNL     1      -1.812  -0.113  -2.275  0.00  0.00    -0.374 OA
ENDBRANCH  18  26
ENDBRANCH   1  18
TORSDOF 6
