REMARK  Name = ZINC05431022
REMARK  9 active torsions:
REMARK  status: ('A' for Active; 'I' for Inactive)
REMARK    1  A    between atoms: C_1  and  C_2
REMARK    2  A    between atoms: C_2  and  C_4
REMARK    3  A    between atoms: C_4  and  O_36
REMARK    4  A    between atoms: C_8  and  O_31
REMARK    5  A    between atoms: C_11  and  O_12
REMARK    6  A    between atoms: C_19  and  O_23
REMARK    7  A    between atoms: O_23  and  C_24
REMARK    8  A    between atoms: C_24  and  C_25
REMARK    9  A    between atoms: C_32  and  O_35
REMARK                            x       y       z     vdW  Elec       q    Type
REMARK                         _______ _______ _______ _____ _____    ______ ____
ROOT
ATOM      1  C   UNL     1       8.580   3.584   0.373  0.00  0.00    +0.130 C 
ATOM      2  C   UNL     1       7.367   4.411  -0.047  0.00  0.00    +0.082 C 
ATOM      3  C   UNL     1       6.118   3.569  -0.031  0.00  0.00    +0.007 A 
ATOM      4  C   UNL     1       6.152   2.197  -0.033  0.00  0.00    +0.030 A 
ATOM      5  C   UNL     1       4.957   1.465  -0.027  0.00  0.00    +0.134 A 
ATOM      6  C   UNL     1       3.726   2.118  -0.017  0.00  0.00    +0.078 A 
ATOM      7  C   UNL     1       3.691   3.527  -0.011  0.00  0.00    +0.078 A 
ATOM      8  C   UNL     1       4.888   4.241  -0.018  0.00  0.00    +0.132 A 
ATOM      9  C   UNL     1       2.399   4.233   0.001  0.00  0.00    +0.198 C 
ATOM     10  O   UNL     1       2.369   5.449   0.006  0.00  0.00    -0.286 OA
ATOM     11  C   UNL     1       1.139   3.461   0.007  0.00  0.00    +0.037 A 
ATOM     12  C   UNL     1      -0.087   4.120   0.019  0.00  0.00    +0.012 A 
ATOM     13  C   UNL     1      -1.265   3.392   0.025  0.00  0.00    +0.004 A 
ATOM     14  C   UNL     1      -1.237   2.012   0.014  0.00  0.00    +0.046 A 
ATOM     15  C   UNL     1      -0.023   1.333   0.008  0.00  0.00    +0.132 A 
ATOM     16  C   UNL     1       1.175   2.055   0.001  0.00  0.00    +0.075 A 
ATOM     17  C   UNL     1       2.469   1.349  -0.011  0.00  0.00    +0.202 C 
ATOM     18  O   UNL     1       2.499   0.133  -0.018  0.00  0.00    -0.286 OA
ATOM     19  C   UNL     1       7.442   1.418  -0.036  0.00  0.00    +0.152 C 
ATOM     20  C   UNL     1       8.606   2.305  -0.472  0.00  0.00    +0.079 C 
ENDROOT
BRANCH   1  22
ATOM     21  C   UNL     1      10.404   5.242   1.233  0.00  0.00    +0.089 C 
ATOM     22  C   UNL     1       9.841   4.375   0.136  0.00  0.00    +0.162 C 
ATOM     23  O   UNL     1      10.400   4.314  -0.932  0.00  0.00    -0.295 OA
ENDBRANCH   1  22
BRANCH   8  24
ATOM     24  O   UNL     1       4.863   5.596  -0.012  0.00  0.00    -0.506 OA
ATOM     25  H   UNL     1       4.848   5.993  -0.894  0.00  0.00    +0.292 HD
ENDBRANCH   8  24
BRANCH   5  26
ATOM     26  O   UNL     1       4.999   0.109  -0.029  0.00  0.00    -0.506 OA
ATOM     27  H   UNL     1       4.924  -0.285  -0.909  0.00  0.00    +0.292 HD
ENDBRANCH   5  26
BRANCH  19  28
ATOM     28  O   UNL     1       7.325   0.318  -0.941  0.00  0.00    -0.387 OA
ATOM     29  H   UNL     1       8.088  -0.277  -0.938  0.00  0.00    +0.210 HD
ENDBRANCH  19  28
BRANCH   1  30
ATOM     30  O   UNL     1       8.476   3.245   1.757  0.00  0.00    -0.381 OA
ATOM     31  H   UNL     1       8.455   4.010   2.349  0.00  0.00    +0.211 HD
ENDBRANCH   1  30
BRANCH  15  32
ATOM     32  O   UNL     1      -0.001  -0.023   0.003  0.00  0.00    -0.487 OA
BRANCH  32  33
ATOM     33  C   UNL     1      -1.263  -0.692   0.010  0.00  0.00    +0.264 C 
BRANCH  33  34
ATOM     34  C   UNL     1      -1.042  -2.183   0.003  0.00  0.00    -0.010 A 
ATOM     35  C   UNL     1      -0.955  -2.863  -1.197  0.00  0.00    +0.007 A 
ATOM     36  C   UNL     1      -0.747  -4.229  -1.204  0.00  0.00    +0.000 A 
ATOM     37  C   UNL     1      -0.636  -4.918  -0.010  0.00  0.00    +0.000 A 
ATOM     38  C   UNL     1      -0.728  -4.238   1.190  0.00  0.00    +0.000 A 
ATOM     39  C   UNL     1      -0.931  -2.871   1.197  0.00  0.00    +0.007 A 
ENDBRANCH  33  34
ENDBRANCH  32  33
ENDBRANCH  15  32
TORSDOF 8
