REMARK  Name = ZINC39675905
REMARK  13 active torsions:
REMARK  status: ('A' for Active; 'I' for Inactive)
REMARK    1  A    between atoms: C_1  and  C_2
REMARK    2  A    between atoms: C_2  and  C_3
REMARK    3  A    between atoms: C_2  and  C_4
REMARK    4  A    between atoms: C_4  and  C_6
REMARK    5  A    between atoms: C_4  and  O_34
REMARK    6  A    between atoms: C_10  and  C_19
REMARK    7  A    between atoms: N_21  and  C_22
REMARK    8  A    between atoms: C_22  and  C_23
REMARK    9  A    between atoms: C_23  and  C_25
REMARK   10  A    between atoms: C_23  and  N_31
REMARK   11  A    between atoms: N_31  and  C_32
REMARK   12  A    between atoms: N_31  and  C_33
REMARK   13  A    between atoms: O_34  and  C_35
REMARK                            x       y       z     vdW  Elec       q    Type
REMARK                         _______ _______ _______ _____ _____    ______ ____
ROOT
ATOM      1  C   UNL     1      -1.080  -1.948   0.591  0.00  0.00    +0.257 C 
ATOM      2  O   UNL     1      -1.221  -2.827  -0.233  0.00  0.00    -0.272 OA
ATOM      3  N   UNL     1      -0.560  -2.235   1.800  0.00  0.00    -0.297 N 
ATOM      4  C   UNL     1      -0.420  -1.331   2.967  0.00  0.00    +0.121 C 
ATOM      5  C   UNL     1      -0.760  -2.214   4.188  0.00  0.00    +0.100 C 
ATOM      6  C   UNL     1      -0.479  -3.653   3.722  0.00  0.00    -0.004 C 
ATOM      7  C   UNL     1      -0.004  -3.527   2.267  0.00  0.00    +0.115 C 
ATOM      8  C   UNL     1       0.612  -4.284   4.583  0.00  0.00    -0.010 C 
ATOM      9  C   UNL     1       0.832  -5.732   4.138  0.00  0.00    -0.082 C 
ATOM     10  N   UNL     1      -0.422  -6.484   4.273  0.00  0.00    +0.379 N 
ATOM     11  C   UNL     1      -1.438  -5.927   3.372  0.00  0.00    -0.082 C 
ATOM     12  C   UNL     1      -1.755  -4.487   3.785  0.00  0.00    -0.010 C 
ATOM     13  H   UNL     1      -0.259  -7.451   4.037  0.00  0.00    -0.086 HD
ATOM     14  H   UNL     1      -0.748  -6.422   5.226  0.00  0.00    -0.086 HD
ENDROOT
BRANCH   5  15
ATOM     15  C   UNL     1      -2.211  -2.055   4.563  0.00  0.00    +0.218 C 
ATOM     16  O   UNL     1      -3.041  -1.858   3.702  0.00  0.00    -0.275 OA
ATOM     17  N   UNL     1      -2.585  -2.133   5.856  0.00  0.00    -0.316 N 
ATOM     18  H   UNL     1      -1.920  -2.291   6.544  0.00  0.00    +0.149 HD
BRANCH  17  19
ATOM     19  C   UNL     1      -3.995  -1.978   6.220  0.00  0.00    +0.093 C 
BRANCH  19  20
ATOM     20  C   UNL     1      -4.131  -1.979   7.744  0.00  0.00    -0.021 C 
BRANCH  20  21
ATOM     21  C   UNL     1      -3.362  -0.817   8.318  0.00  0.00    -0.059 A 
ATOM     22  C   UNL     1      -3.915   0.450   8.309  0.00  0.00    +0.002 A 
ATOM     23  C   UNL     1      -3.209   1.516   8.835  0.00  0.00    +0.000 A 
ATOM     24  C   UNL     1      -1.951   1.315   9.370  0.00  0.00    +0.000 A 
ATOM     25  C   UNL     1      -1.398   0.048   9.380  0.00  0.00    +0.000 A 
ATOM     26  C   UNL     1      -2.105  -1.019   8.857  0.00  0.00    +0.002 A 
ENDBRANCH  20  21
BRANCH  20  27
ATOM     27  N   UNL     1      -5.548  -1.856   8.110  0.00  0.00    +0.382 N 
ATOM     28  C   UNL     1      -6.282  -3.034   7.629  0.00  0.00    -0.096 C 
ATOM     29  C   UNL     1      -5.671  -1.765   9.571  0.00  0.00    -0.096 C 
ATOM     30  H   UNL     1      -5.934  -1.025   7.687  0.00  0.00    -0.082 HD
ENDBRANCH  20  27
ENDBRANCH  19  20
ENDBRANCH  17  19
ENDBRANCH   5  15
BRANCH   1  31
ATOM     31  C   UNL     1      -1.487  -0.535   0.261  0.00  0.00    +0.261 C 
BRANCH  31  33
ATOM     32  C   UNL     1      -0.659   1.706  -0.473  0.00  0.00    +0.011 C 
ATOM     33  C   UNL     1      -0.262   0.251  -0.211  0.00  0.00    +0.033 C 
ATOM     34  C   UNL     1       0.821   0.205   0.869  0.00  0.00    +0.011 C 
ENDBRANCH  31  33
BRANCH  31  35
ATOM     35  O   UNL     1      -2.471  -0.551  -0.775  0.00  0.00    -0.479 OA
BRANCH  35  36
ATOM     36  C   UNL     1      -3.492   0.339  -0.670  0.00  0.00    +0.122 A 
ATOM     37  C   UNL     1      -4.543   0.300  -1.575  0.00  0.00    +0.045 A 
ATOM     38  C   UNL     1      -5.580   1.206  -1.466  0.00  0.00    +0.004 A 
ATOM     39  C   UNL     1      -5.572   2.150  -0.456  0.00  0.00    +0.000 A 
ATOM     40  C   UNL     1      -4.526   2.190   0.447  0.00  0.00    +0.004 A 
ATOM     41  C   UNL     1      -3.489   1.283   0.346  0.00  0.00    +0.045 A 
ENDBRANCH  35  36
ENDBRANCH  31  35
ENDBRANCH   1  31
TORSDOF 9
