REMARK  Name = ZINC17211171
REMARK  8 active torsions:
REMARK  status: ('A' for Active; 'I' for Inactive)
REMARK    1  A    between atoms: C_1  and  C_2
REMARK    2  A    between atoms: C_2  and  O_3
REMARK    3  A    between atoms: O_3  and  C_4
REMARK    4  A    between atoms: C_9  and  N_10
REMARK    5  A    between atoms: C_11  and  C_13
REMARK    6  A    between atoms: C_15  and  C_16
REMARK    7  A    between atoms: C_15  and  C_27
REMARK    8  A    between atoms: C_27  and  C_29
REMARK                            x       y       z     vdW  Elec       q    Type
REMARK                         _______ _______ _______ _____ _____    ______ ____
ROOT
ATOM      1  C   UNL     1      -3.825   3.450   4.633  0.00  0.00    +0.251 C 
ATOM      2  O   UNL     1      -4.299   3.773   3.570  0.00  0.00    -0.282 OA
ATOM      3  C   UNL     1      -4.537   3.802   5.914  0.00  0.00    +0.096 C 
ENDROOT
BRANCH   3   4
ATOM      4  C   UNL     1      -4.056   5.169   6.405  0.00  0.00    +0.245 C 
ATOM      5  C   UNL     1      -2.577   5.123   6.695  0.00  0.00    +0.011 A 
ATOM      6  C   UNL     1      -1.470   4.860   5.920  0.00  0.00    +0.008 A 
ATOM      7  C   UNL     1      -0.207   4.893   6.486  0.00  0.00    +0.000 A 
ATOM      8  C   UNL     1      -0.053   5.190   7.829  0.00  0.00    +0.001 A 
ATOM      9  C   UNL     1      -1.155   5.455   8.615  0.00  0.00    +0.015 A 
ATOM     10  C   UNL     1      -2.432   5.424   8.052  0.00  0.00    +0.066 A 
ATOM     11  C   UNL     1      -3.776   5.655   8.614  0.00  0.00    +0.340 C 
ATOM     12  O   UNL     1      -4.005   5.939   9.772  0.00  0.00    -0.245 OA
ATOM     13  O   UNL     1      -4.710   5.506   7.659  0.00  0.00    -0.448 OA
ENDBRANCH   3   4
BRANCH   1  15
ATOM     14  N   UNL     1      -1.902   2.387   3.533  0.00  0.00    -0.276 N 
ATOM     15  C   UNL     1      -2.538   2.702   4.678  0.00  0.00    +0.289 C 
ATOM     16  O   UNL     1      -2.062   2.377   5.746  0.00  0.00    -0.266 OA
ATOM     17  H   UNL     1      -2.284   2.759   2.571  0.00  0.00    +0.155 HD
BRANCH  14  23
ATOM     18  C   UNL     1       0.184   1.667   2.540  0.00  0.00    +0.142 A 
ATOM     19  C   UNL     1       1.315   0.867   2.577  0.00  0.00    +0.047 A 
ATOM     20  C   UNL     1       1.514  -0.000   3.635  0.00  0.00    +0.004 A 
ATOM     21  C   UNL     1       0.583  -0.080   4.655  0.00  0.00    +0.002 A 
ATOM     22  C   UNL     1      -0.550   0.710   4.623  0.00  0.00    +0.027 A 
ATOM     23  C   UNL     1      -0.755   1.587   3.567  0.00  0.00    +0.076 A 
BRANCH  18  24
ATOM     24  O   UNL     1      -0.011   2.523   1.503  0.00  0.00    -0.490 OA
BRANCH  24  26
ATOM     25  C   UNL     1       0.602   3.567  -0.589  0.00  0.00    +0.048 C 
ATOM     26  C   UNL     1       0.993   2.551   0.487  0.00  0.00    +0.226 C 
ENDBRANCH  24  26
ENDBRANCH  18  24
ENDBRANCH  14  23
ENDBRANCH   1  15
BRANCH   3  27
ATOM     27  C   UNL     1      -6.023   3.852   5.666  0.00  0.00    +0.197 C 
ATOM     28  O   UNL     1      -6.444   4.078   4.551  0.00  0.00    -0.287 OA
BRANCH  27  29
ATOM     29  C   UNL     1      -6.962   3.627   6.775  0.00  0.00    +0.023 A 
ATOM     30  C   UNL     1      -6.467   3.364   8.068  0.00  0.00    +0.012 A 
ATOM     31  C   UNL     1      -7.314   3.153   9.106  0.00  0.00    +0.009 A 
ATOM     32  C   UNL     1      -8.706   3.195   8.901  0.00  0.00    -0.018 A 
ATOM     33  C   UNL     1      -9.601   2.980   9.961  0.00  0.00    +0.008 A 
ATOM     34  C   UNL     1     -10.943   3.026   9.733  0.00  0.00    +0.001 A 
ATOM     35  C   UNL     1     -11.446   3.285   8.460  0.00  0.00    +0.001 A 
ATOM     36  C   UNL     1     -10.610   3.498   7.407  0.00  0.00    +0.008 A 
ATOM     37  C   UNL     1      -9.218   3.458   7.604  0.00  0.00    -0.017 A 
ATOM     38  C   UNL     1      -8.329   3.679   6.542  0.00  0.00    +0.020 A 
ENDBRANCH  27  29
ENDBRANCH   3  27
TORSDOF 7
