REMARK  Name = ZINC39678208
REMARK  5 active torsions:
REMARK  status: ('A' for Active; 'I' for Inactive)
REMARK    1  A    between atoms: C_4  and  N_32
REMARK    2  A    between atoms: C_5  and  C_7
REMARK    3  A    between atoms: C_7  and  N_8
REMARK    4  A    between atoms: C_9  and  C_11
REMARK    5  A    between atoms: C_22  and  C_24
REMARK                            x       y       z     vdW  Elec       q    Type
REMARK                         _______ _______ _______ _____ _____    ______ ____
ROOT
ATOM      1  C   UNL     1       1.816  -4.505   2.963  0.00  0.00    +0.100 C 
ATOM      2  C   UNL     1       3.260  -4.164   3.391  0.00  0.00    +0.121 C 
ATOM      3  N   UNL     1       3.705  -5.338   4.178  0.00  0.00    -0.296 N 
ATOM      4  C   UNL     1       3.146  -6.503   3.450  0.00  0.00    +0.115 C 
ATOM      5  C   UNL     1       1.745  -6.041   3.002  0.00  0.00    -0.004 C 
ATOM      6  C   UNL     1       1.428  -6.591   1.614  0.00  0.00    -0.010 C 
ATOM      7  C   UNL     1       1.304  -8.115   1.690  0.00  0.00    -0.082 C 
ATOM      8  N   UNL     1       0.241  -8.476   2.636  0.00  0.00    +0.379 N 
ATOM      9  C   UNL     1       0.599  -8.024   3.986  0.00  0.00    -0.082 C 
ATOM     10  C   UNL     1       0.692  -6.496   4.008  0.00  0.00    -0.010 C 
ATOM     11  C   UNL     1       4.450  -5.347   5.301  0.00  0.00    +0.248 C 
ATOM     12  O   UNL     1       4.754  -4.298   5.836  0.00  0.00    -0.270 OA
ATOM     13  H   UNL     1      -0.622  -8.036   2.353  0.00  0.00    -0.086 HD
ATOM     14  H   UNL     1       0.121  -9.477   2.638  0.00  0.00    -0.086 HD
ENDROOT
BRANCH  11  15
ATOM     15  C   UNL     1       4.896  -6.629   5.882  0.00  0.00    +0.055 A 
ATOM     16  C   UNL     1       5.229  -7.699   5.048  0.00  0.00    +0.016 A 
ATOM     17  C   UNL     1       5.645  -8.893   5.595  0.00  0.00    +0.021 A 
ATOM     18  C   UNL     1       5.733  -9.035   6.971  0.00  0.00    +0.042 A 
ATOM     19  C   UNL     1       5.404  -7.980   7.804  0.00  0.00    +0.040 A 
ATOM     20  C   UNL     1       4.993  -6.776   7.268  0.00  0.00    +0.054 A 
ATOM     21 CL   UNL     1       4.588  -5.450   8.313  0.00  0.00    -0.083 Cl
ATOM     22 CL   UNL     1       6.257 -10.544   7.652  0.00  0.00    -0.083 Cl
ENDBRANCH  11  15
BRANCH   1  24
ATOM     23  N   UNL     1       0.282  -3.813   1.149  0.00  0.00    -0.311 N 
ATOM     24  C   UNL     1       1.550  -4.003   1.567  0.00  0.00    +0.218 C 
ATOM     25  O   UNL     1       2.476  -3.770   0.820  0.00  0.00    -0.275 OA
ATOM     26  H   UNL     1      -0.458  -3.999   1.747  0.00  0.00    +0.149 HD
BRANCH  23  27
ATOM     27  C   UNL     1       0.024  -3.324  -0.207  0.00  0.00    +0.141 C 
BRANCH  27  32
ATOM     28  C   UNL     1      -3.512  -4.068  -1.303  0.00  0.00    +0.000 A 
ATOM     29  C   UNL     1      -4.194  -2.968  -0.816  0.00  0.00    +0.002 A 
ATOM     30  C   UNL     1      -3.515  -1.980  -0.131  0.00  0.00    +0.023 A 
ATOM     31  C   UNL     1      -2.145  -2.092   0.069  0.00  0.00    +0.034 A 
ATOM     32  C   UNL     1      -1.463  -3.199  -0.421  0.00  0.00    -0.009 A 
ATOM     33  C   UNL     1      -2.148  -4.183  -1.106  0.00  0.00    +0.007 A 
BRANCH  31  34
ATOM     34  N   UNL     1      -1.454  -1.095   0.761  0.00  0.00    -0.330 N 
ATOM     35  C   UNL     1      -0.881   0.053   0.046  0.00  0.00    +0.105 C 
ATOM     36  C   UNL     1      -1.391   1.344   0.695  0.00  0.00    +0.019 C 
ATOM     37  C   UNL     1      -1.075   1.315   2.193  0.00  0.00    +0.003 C 
ATOM     38  C   UNL     1      -1.792   0.131   2.844  0.00  0.00    +0.019 C 
ATOM     39  C   UNL     1      -1.293  -1.170   2.220  0.00  0.00    +0.105 C 
ENDBRANCH  31  34
ENDBRANCH  27  32
ENDBRANCH  23  27
ENDBRANCH   1  24
TORSDOF 5
