REMARK  Name = ZINC64392077
REMARK  7 active torsions:
REMARK  status: ('A' for Active; 'I' for Inactive)
REMARK    1  A    between atoms: C_1  and  C_2
REMARK    2  A    between atoms: C_2  and  O_3
REMARK    3  A    between atoms: O_3  and  C_4
REMARK    4  A    between atoms: C_8  and  C_10
REMARK    5  A    between atoms: C_12  and  C_16
REMARK    6  A    between atoms: N_26  and  C_29
REMARK    7  A    between atoms: C_29  and  C_30
REMARK                            x       y       z     vdW  Elec       q    Type
REMARK                         _______ _______ _______ _____ _____    ______ ____
ROOT
ATOM      1  C   UNL     1      -6.721  -5.887  -1.655  0.00  0.00    +0.006 A 
ATOM      2  C   UNL     1      -6.235  -5.194  -2.753  0.00  0.00    +0.009 A 
ATOM      3  C   UNL     1      -6.864  -5.295  -3.976  0.00  0.00    +0.016 A 
ATOM      4  C   UNL     1      -7.994  -6.099  -4.102  0.00  0.00    +0.063 A 
ATOM      5  C   UNL     1      -8.486  -6.801  -2.988  0.00  0.00    +0.056 A 
ATOM      6  C   UNL     1      -7.837  -6.692  -1.768  0.00  0.00    +0.034 A 
ATOM      7  N   UNL     1      -9.613  -7.595  -3.144  0.00  0.00    -0.307 N 
ATOM      8  H   UNL     1      -9.964  -8.085  -2.384  0.00  0.00    +0.170 HD
ATOM      9  C   UNL     1     -10.223  -7.691  -4.337  0.00  0.00    +0.330 A 
ATOM     10  O   UNL     1     -11.209  -8.398  -4.432  0.00  0.00    -0.246 OA
ATOM     11  N   UNL     1      -9.792  -7.041  -5.429  0.00  0.00    -0.256 N 
ATOM     12  C   UNL     1      -8.704  -6.242  -5.386  0.00  0.00    +0.265 A 
ATOM     13  O   UNL     1      -8.320  -5.657  -6.380  0.00  0.00    -0.267 OA
ENDROOT
BRANCH   1  16
ATOM     14  C   UNL     1      -4.288  -4.371   0.008  0.00  0.00    +0.134 C 
ATOM     15  N   UNL     1      -4.589  -5.514  -0.527  0.00  0.00    -0.339 N 
ATOM     16  C   UNL     1      -6.021  -5.766  -0.326  0.00  0.00    +0.274 C 
ATOM     17  O   UNL     1      -6.512  -4.625   0.394  0.00  0.00    -0.243 OA
ATOM     18  N   UNL     1      -5.386  -3.782   0.584  0.00  0.00    -0.247 N 
ATOM     19  H   UNL     1      -5.392  -2.928   1.044  0.00  0.00    +0.196 HD
ATOM     20  H   UNL     1      -3.970  -6.104  -0.986  0.00  0.00    +0.164 HD
BRANCH  14  25
ATOM     21  C   UNL     1      -1.498  -1.848   0.006  0.00  0.00    +0.121 A 
ATOM     22  C   UNL     1      -0.386  -2.679  -0.003  0.00  0.00    +0.045 A 
ATOM     23  C   UNL     1      -0.543  -4.052  -0.008  0.00  0.00    +0.004 A 
ATOM     24  C   UNL     1      -1.807  -4.606  -0.005  0.00  0.00    +0.012 A 
ATOM     25  C   UNL     1      -2.930  -3.780   0.004  0.00  0.00    +0.020 A 
ATOM     26  C   UNL     1      -2.771  -2.395   0.016  0.00  0.00    +0.057 A 
BRANCH  21  27
ATOM     27  O   UNL     1      -1.339  -0.499   0.012  0.00  0.00    -0.492 OA
BRANCH  27  29
ATOM     28  C   UNL     1      -0.019   1.526   0.010  0.00  0.00    +0.048 C 
ATOM     29  C   UNL     1       0.002  -0.004   0.002  0.00  0.00    +0.225 C 
ENDBRANCH  27  29
ENDBRANCH  21  27
ENDBRANCH  14  25
ENDBRANCH   1  16
BRANCH  11  30
ATOM     30  C   UNL     1     -10.516  -7.201  -6.693  0.00  0.00    +0.168 C 
BRANCH  30  31
ATOM     31  C   UNL     1     -11.590  -6.149  -6.793  0.00  0.00    +0.008 A 
ATOM     32  C   UNL     1     -12.901  -6.467  -6.490  0.00  0.00    +0.008 A 
ATOM     33  C   UNL     1     -13.886  -5.502  -6.582  0.00  0.00    +0.000 A 
ATOM     34  C   UNL     1     -13.562  -4.217  -6.977  0.00  0.00    +0.003 A 
ATOM     35  C   UNL     1     -12.253  -3.896  -7.279  0.00  0.00    +0.039 A 
ATOM     36  C   UNL     1     -11.264  -4.861  -7.183  0.00  0.00    +0.128 A 
ATOM     37  F   UNL     1      -9.982  -4.547  -7.474  0.00  0.00    -0.205 F 
ENDBRANCH  30  31
ENDBRANCH  11  30
TORSDOF 6
