REMARK  Name = ZINC12098488
REMARK  11 active torsions:
REMARK  status: ('A' for Active; 'I' for Inactive)
REMARK    1  A    between atoms: C_1  and  C_2
REMARK    2  A    between atoms: C_7  and  C_8
REMARK    3  A    between atoms: C_8  and  S_9
REMARK    4  A    between atoms: S_9  and  C_10
REMARK    5  A    between atoms: C_13  and  C_22
REMARK    6  A    between atoms: N_14  and  C_15
REMARK    7  A    between atoms: C_15  and  C_16
REMARK    8  A    between atoms: C_22  and  N_64
REMARK    9  A    between atoms: C_23  and  N_64
REMARK   10  A    between atoms: C_24  and  C_25
REMARK   11  A    between atoms: C_24  and  N_64
REMARK                            x       y       z     vdW  Elec       q    Type
REMARK                         _______ _______ _______ _____ _____    ______ ____
ROOT
ATOM      1  C   UNL     1      -2.154  10.017   4.697  0.00  0.00    +0.192 A 
ATOM      2  N   UNL     1      -3.369   9.558   4.894  0.00  0.00    -0.123 NA
ATOM      3  N   UNL     1      -3.805   9.004   3.820  0.00  0.00    -0.135 NA
ATOM      4  C   UNL     1      -2.901   9.067   2.884  0.00  0.00    +0.117 A 
ATOM      5  N   UNL     1      -1.818   9.718   3.408  0.00  0.00    -0.305 N 
ENDROOT
BRANCH   1   6
ATOM      6  S   UNL     1      -1.149  10.858   5.874  0.00  0.00    -0.081 S 
BRANCH   6   7
ATOM      7  C   UNL     1      -2.268  10.864   7.296  0.00  0.00    +0.112 C 
BRANCH   7  14
ATOM      8  C   UNL     1      -2.577  13.714   7.655  0.00  0.00    +0.044 C 
ATOM      9  C   UNL     1      -1.748  12.918   8.629  0.00  0.00    -0.046 A 
ATOM     10  C   UNL     1      -1.136  13.551   9.695  0.00  0.00    +0.003 A 
ATOM     11  C   UNL     1      -0.376  12.820  10.589  0.00  0.00    +0.000 A 
ATOM     12  C   UNL     1      -0.229  11.457  10.418  0.00  0.00    +0.000 A 
ATOM     13  C   UNL     1      -0.845  10.823   9.355  0.00  0.00    +0.005 A 
ATOM     14  C   UNL     1      -1.600  11.554   8.458  0.00  0.00    -0.034 A 
ENDBRANCH   7  14
ENDBRANCH   6   7
ENDBRANCH   1   6
BRANCH   5  15
ATOM     15  C   UNL     1      -0.559  10.029   2.728  0.00  0.00    +0.157 C 
BRANCH  15  16
ATOM     16  C   UNL     1      -0.668  11.399   2.055  0.00  0.00    +0.138 C 
ATOM     17  C   UNL     1       0.609  11.683   1.235  0.00  0.00    +0.035 C 
ATOM     18  C   UNL     1       0.843  13.196   1.506  0.00  0.00    +0.031 C 
ATOM     19  C   UNL     1       0.340  13.317   2.966  0.00  0.00    +0.160 C 
ATOM     20  O   UNL     1      -0.781  12.422   3.052  0.00  0.00    -0.375 OA
ENDBRANCH  15  16
ENDBRANCH   5  15
BRANCH   4  21
ATOM     21  C   UNL     1      -3.027   8.528   1.482  0.00  0.00    -0.001 C 
BRANCH  21  23
ATOM     22  C   UNL     1      -3.409   6.260   2.237  0.00  0.00    -0.095 C 
ATOM     23  N   UNL     1      -2.516   7.142   1.456  0.00  0.00    +0.386 N 
ATOM     24  H   UNL     1      -1.579   7.124   1.876  0.00  0.00    -0.081 HD
BRANCH  23  25
ATOM     25  C   UNL     1      -2.426   6.662   0.061  0.00  0.00    -0.024 C 
BRANCH  25  26
ATOM     26  C   UNL     1      -1.702   5.341   0.047  0.00  0.00    +0.000 A 
ATOM     27  C   UNL     1      -2.295   4.137   0.046  0.00  0.00    +0.029 A 
ATOM     28  C   UNL     1      -1.228   3.133   0.031  0.00  0.00    -0.000 A 
ATOM     29  C   UNL     1      -1.208   1.737   0.017  0.00  0.00    +0.010 A 
ATOM     30  C   UNL     1      -0.013   1.076   0.008  0.00  0.00    +0.001 A 
ATOM     31  C   UNL     1       1.183   1.781   0.000  0.00  0.00    +0.002 A 
ATOM     32  C   UNL     1       1.187   3.158   0.007  0.00  0.00    +0.026 A 
ATOM     33  C   UNL     1      -0.019   3.852   0.022  0.00  0.00    +0.047 A 
ATOM     34  N   UNL     1      -0.342   5.191   0.033  0.00  0.00    -0.360 N 
ATOM     35  H   UNL     1       0.299   5.919   0.031  0.00  0.00    +0.166 HD
ENDBRANCH  25  26
ENDBRANCH  23  25
ENDBRANCH  21  23
ENDBRANCH   4  21
TORSDOF 9
