REMARK  Name = ZINC39431831
REMARK  9 active torsions:
REMARK  status: ('A' for Active; 'I' for Inactive)
REMARK    1  A    between atoms: C_1  and  C_2
REMARK    2  A    between atoms: C_2  and  C_3
REMARK    3  A    between atoms: C_8  and  C_12
REMARK    4  A    between atoms: C_12  and  C_14
REMARK    5  A    between atoms: C_14  and  O_15
REMARK    6  A    between atoms: O_15  and  C_16
REMARK    7  A    between atoms: C_16  and  C_18
REMARK    8  A    between atoms: C_20  and  S_25
REMARK    9  A    between atoms: S_25  and  N_28
REMARK                            x       y       z     vdW  Elec       q    Type
REMARK                         _______ _______ _______ _____ _____    ______ ____
ROOT
ATOM      1  O   UNL     1       7.387  -2.002  -3.994  0.00  0.00    -0.453 OA
ENDROOT
BRANCH   1   2
ATOM      2  C   UNL     1       8.722  -2.055  -3.819  0.00  0.00    +0.341 C 
ATOM      3  O   UNL     1       9.208  -1.729  -2.755  0.00  0.00    -0.245 OA
BRANCH   2   4
ATOM      4  C   UNL     1       9.593  -2.508  -4.921  0.00  0.00    +0.075 A 
ATOM      5  C   UNL     1       9.038  -2.878  -6.148  0.00  0.00    +0.044 A 
ATOM      6  C   UNL     1       9.858  -3.301  -7.173  0.00  0.00    +0.106 A 
ATOM      7  C   UNL     1      11.228  -3.359  -6.989  0.00  0.00    +0.029 A 
ATOM      8  C   UNL     1      11.786  -2.995  -5.777  0.00  0.00    +0.018 A 
ATOM      9  C   UNL     1      10.978  -2.564  -4.743  0.00  0.00    +0.032 A 
ATOM     10 BR   UNL     1      11.743  -2.058  -3.090  0.00  0.00    -0.049 Br
BRANCH   6  11
ATOM     11  S   UNL     1       9.159  -3.768  -8.721  0.00  0.00    +0.056 S 
ATOM     12  O   UNL     1      10.090  -4.646  -9.339  0.00  0.00    -0.153 OA
ATOM     13  O   UNL     1       7.813  -4.145  -8.462  0.00  0.00    -0.153 OA
BRANCH  11  14
ATOM     14  N   UNL     1       9.096  -2.406  -9.662  0.00  0.00    -0.204 NA
ATOM     15  H   UNL     1       9.168  -2.479 -10.626  0.00  0.00    +0.144 HD
ATOM     16  H   UNL     1       8.987  -1.536  -9.248  0.00  0.00    +0.144 HD
ENDBRANCH  11  14
ENDBRANCH   6  11
ENDBRANCH   2   4
ENDBRANCH   1   2
BRANCH   1  17
ATOM     17  C   UNL     1       6.604  -1.554  -2.885  0.00  0.00    +0.311 C 
BRANCH  17  18
ATOM     18  C   UNL     1       5.146  -1.561  -3.264  0.00  0.00    +0.199 C 
ATOM     19  O   UNL     1       4.809  -1.916  -4.375  0.00  0.00    -0.289 OA
BRANCH  18  25
ATOM     20  C   UNL     1       0.707  -0.490  -1.238  0.00  0.00    -0.024 A 
ATOM     21  C   UNL     1       0.003  -0.812  -2.344  0.00  0.00    +0.005 A 
ATOM     22  C   UNL     1       0.628  -1.268  -3.517  0.00  0.00    +0.001 A 
ATOM     23  C   UNL     1       1.968  -1.413  -3.615  0.00  0.00    +0.010 A 
ATOM     24  C   UNL     1       2.802  -1.105  -2.514  0.00  0.00    +0.007 A 
ATOM     25  C   UNL     1       4.172  -1.156  -2.327  0.00  0.00    +0.027 C 
ATOM     26  C   UNL     1       4.406  -0.688  -0.908  0.00  0.00    +0.152 C 
ATOM     27  N   UNL     1       3.082  -0.386  -0.356  0.00  0.00    -0.380 N 
ATOM     28  C   UNL     1       2.174  -0.615  -1.262  0.00  0.00    +0.046 A 
ATOM     29  H   UNL     1       2.908  -0.062   0.542  0.00  0.00    +0.160 HD
BRANCH  20  31
ATOM     30  C   UNL     1      -0.019   1.526   0.010  0.00  0.00    +0.009 C 
ATOM     31  C   UNL     1       0.002  -0.004   0.002  0.00  0.00    +0.034 C 
ENDBRANCH  20  31
ENDBRANCH  18  25
ENDBRANCH  17  18
ENDBRANCH   1  17
TORSDOF 8
