REMARK  Name = ZINC39596187
REMARK  10 active torsions:
REMARK  status: ('A' for Active; 'I' for Inactive)
REMARK    1  A    between atoms: C_1  and  C_2
REMARK    2  A    between atoms: C_2  and  C_3
REMARK    3  A    between atoms: C_3  and  C_5
REMARK    4  A    between atoms: C_3  and  C_11
REMARK    5  A    between atoms: C_15  and  C_24
REMARK    6  A    between atoms: N_26  and  C_27
REMARK    7  A    between atoms: C_27  and  C_28
REMARK    8  A    between atoms: C_28  and  C_30
REMARK    9  A    between atoms: C_28  and  O_31
REMARK   10  A    between atoms: O_31  and  C_32
REMARK                            x       y       z     vdW  Elec       q    Type
REMARK                         _______ _______ _______ _____ _____    ______ ____
ROOT
ATOM      1  C   UNL     1       1.980   0.001  -1.287  0.00  0.00    +0.223 C 
ATOM      2  O   UNL     1       2.876  -0.789  -1.497  0.00  0.00    -0.275 OA
ATOM      3  N   UNL     1       2.261   1.308  -1.113  0.00  0.00    -0.300 N 
ATOM      4  C   UNL     1       1.305   2.427  -0.945  0.00  0.00    +0.121 C 
ATOM      5  C   UNL     1       1.952   3.336   0.124  0.00  0.00    +0.100 C 
ATOM      6  C   UNL     1       3.455   3.019   0.051  0.00  0.00    -0.004 C 
ATOM      7  C   UNL     1       3.596   1.948  -1.041  0.00  0.00    +0.115 C 
ATOM      8  C   UNL     1       4.241   4.270  -0.329  0.00  0.00    -0.010 C 
ATOM      9  C   UNL     1       5.737   3.944  -0.339  0.00  0.00    -0.082 C 
ATOM     10  N   UNL     1       6.145   3.470   0.989  0.00  0.00    +0.379 N 
ATOM     11  C   UNL     1       5.453   2.216   1.308  0.00  0.00    -0.082 C 
ATOM     12  C   UNL     1       3.945   2.469   1.387  0.00  0.00    -0.010 C 
ATOM     13  H   UNL     1       7.142   3.314   0.997  0.00  0.00    -0.086 HD
ATOM     14  H   UNL     1       5.911   4.167   1.680  0.00  0.00    -0.086 HD
ENDROOT
BRANCH   5  15
ATOM     15  C   UNL     1       1.703   4.786  -0.199  0.00  0.00    +0.218 C 
ATOM     16  O   UNL     1       1.497   5.126  -1.345  0.00  0.00    -0.275 OA
ATOM     17  N   UNL     1       1.708   5.707   0.786  0.00  0.00    -0.312 N 
ATOM     18  H   UNL     1       1.873   5.435   1.702  0.00  0.00    +0.149 HD
BRANCH  17  19
ATOM     19  C   UNL     1       1.466   7.117   0.472  0.00  0.00    +0.148 C 
BRANCH  19  20
ATOM     20  C   UNL     1       1.527   7.944   1.758  0.00  0.00    +0.187 C 
ATOM     21  C   UNL     1       1.274   9.416   1.430  0.00  0.00    +0.053 C 
BRANCH  20  22
ATOM     22  O   UNL     1       0.528   7.480   2.669  0.00  0.00    -0.488 OA
BRANCH  22  23
ATOM     23  C   UNL     1       0.749   7.703   3.992  0.00  0.00    +0.121 A 
ATOM     24  C   UNL     1      -0.119   7.180   4.939  0.00  0.00    +0.048 A 
ATOM     25  C   UNL     1       0.106   7.407   6.282  0.00  0.00    +0.042 A 
ATOM     26  C   UNL     1       1.198   8.157   6.684  0.00  0.00    +0.124 A 
ATOM     27  C   UNL     1       2.066   8.681   5.741  0.00  0.00    +0.042 A 
ATOM     28  C   UNL     1       1.846   8.449   4.396  0.00  0.00    +0.048 A 
ATOM     29  F   UNL     1       1.417   8.379   7.999  0.00  0.00    -0.205 F 
ENDBRANCH  22  23
ENDBRANCH  20  22
ENDBRANCH  19  20
ENDBRANCH  17  19
ENDBRANCH   5  15
BRANCH   1  30
ATOM     30  C   UNL     1       0.553  -0.478  -1.220  0.00  0.00    +0.105 C 
BRANCH  30  31
ATOM     31  C   UNL     1      -0.023  -0.537  -2.612  0.00  0.00    -0.036 A 
ATOM     32  C   UNL     1       0.555  -1.354  -3.566  0.00  0.00    +0.004 A 
ATOM     33  C   UNL     1       0.027  -1.407  -4.842  0.00  0.00    +0.000 A 
ATOM     34  C   UNL     1      -1.079  -0.643  -5.165  0.00  0.00    +0.000 A 
ATOM     35  C   UNL     1      -1.658   0.173  -4.211  0.00  0.00    +0.000 A 
ATOM     36  C   UNL     1      -1.132   0.223  -2.933  0.00  0.00    +0.004 A 
ENDBRANCH  30  31
BRANCH  30  38
ATOM     37  C   UNL     1       0.964  -1.790   0.866  0.00  0.00    +0.005 C 
ATOM     38  C   UNL     1       0.512  -1.873  -0.593  0.00  0.00    +0.014 C 
ENDBRANCH  30  38
ENDBRANCH   1  30
TORSDOF 8
