REMARK  Name = ZINC00320688
REMARK  10 active torsions:
REMARK  status: ('A' for Active; 'I' for Inactive)
REMARK    1  A    between atoms: C_1  and  C_2
REMARK    2  A    between atoms: C_2  and  C_3
REMARK    3  A    between atoms: C_2  and  C_4
REMARK    4  A    between atoms: C_2  and  C_5
REMARK    5  A    between atoms: C_5  and  C_6
REMARK    6  A    between atoms: C_6  and  C_7
REMARK    7  A    between atoms: C_6  and  C_8
REMARK    8  A    between atoms: C_6  and  N_9
REMARK    9  A    between atoms: N_9  and  C_10
REMARK   10  A    between atoms: C_11  and  C_20
REMARK                            x       y       z     vdW  Elec       q    Type
REMARK                         _______ _______ _______ _____ _____    ______ ____
ROOT
ATOM      1  C   UNL     1       1.030   0.773   0.432  0.00  0.00    +0.133 A 
ATOM      2  C   UNL     1       0.499   1.979   0.019  0.00  0.00    +0.128 A 
ATOM      3  N   UNL     1      -0.591   2.232   0.768  0.00  0.00    -0.224 NA
ATOM      4  C   UNL     1      -0.768   1.243   1.629  0.00  0.00    +0.140 A 
ATOM      5  N   UNL     1       0.231   0.315   1.443  0.00  0.00    -0.286 N 
ATOM      6  C   UNL     1       0.278  -0.816   2.214  0.00  0.00    +0.114 A 
ATOM      7  C   UNL     1      -0.656  -1.039   3.163  0.00  0.00    +0.058 A 
ATOM      8  C   UNL     1      -1.685  -0.105   3.380  0.00  0.00    +0.025 A 
ATOM      9  C   UNL     1      -1.746   1.022   2.622  0.00  0.00    +0.048 A 
ATOM     10 CL   UNL     1      -0.581  -2.482   4.125  0.00  0.00    -0.082 Cl
ENDROOT
BRANCH   2  11
ATOM     11  C   UNL     1       1.034   2.841  -1.056  0.00  0.00    +0.068 A 
ATOM     12  C   UNL     1       1.013   4.203  -1.077  0.00  0.00    +0.029 A 
ATOM     13  C   UNL     1       1.624   4.614  -2.274  0.00  0.00    +0.019 A 
ATOM     14  C   UNL     1       1.990   3.504  -2.949  0.00  0.00    +0.083 A 
ATOM     15  N   UNL     1       1.633   2.411  -2.211  0.00  0.00    -0.359 N 
ATOM     16  H   UNL     1       1.780   1.485  -2.463  0.00  0.00    +0.165 HD
ENDBRANCH   2  11
BRANCH   1  17
ATOM     17  N   UNL     1       2.163   0.142  -0.083  0.00  0.00    -0.323 N 
ATOM     18  H   UNL     1       2.977   0.734   0.003  0.00  0.00    +0.148 HD
BRANCH  17  19
ATOM     19  C   UNL     1       2.385  -1.156   0.568  0.00  0.00    +0.028 C 
ATOM     20  C   UNL     1       2.657  -0.939   2.058  0.00  0.00    +0.031 C 
ATOM     21  C   UNL     1       1.142  -2.031   0.399  0.00  0.00    +0.031 C 
BRANCH  19  22
ATOM     22  C   UNL     1       3.589  -1.849  -0.074  0.00  0.00    +0.031 C 
BRANCH  22  24
ATOM     23  C   UNL     1       3.915  -0.103  -1.831  0.00  0.00    +0.010 C 
ATOM     24  C   UNL     1       3.590  -1.577  -1.579  0.00  0.00    -0.036 C 
ATOM     25  C   UNL     1       4.646  -2.455  -2.255  0.00  0.00    +0.010 C 
ATOM     26  C   UNL     1       2.212  -1.902  -2.158  0.00  0.00    +0.010 C 
ENDBRANCH  22  24
ENDBRANCH  19  22
ENDBRANCH  17  19
ENDBRANCH   1  17
TORSDOF 5
