REMARK  Name = ZINC05066009
REMARK  7 active torsions:
REMARK  status: ('A' for Active; 'I' for Inactive)
REMARK    1  A    between atoms: C_1  and  C_2
REMARK    2  A    between atoms: C_5  and  N_9
REMARK    3  A    between atoms: C_6  and  O_8
REMARK    4  A    between atoms: C_10  and  C_12
REMARK    5  A    between atoms: C_12  and  N_13
REMARK    6  A    between atoms: C_14  and  C_16
REMARK    7  A    between atoms: C_16  and  C_17
REMARK                            x       y       z     vdW  Elec       q    Type
REMARK                         _______ _______ _______ _____ _____    ______ ____
ROOT
ATOM      1  N   UNL     1      -0.234  -6.824  -2.583  0.00  0.00    -0.307 N 
ATOM      2  C   UNL     1      -0.329  -8.145  -2.833  0.00  0.00    +0.214 C 
ATOM      3  O   UNL     1      -0.333  -8.937  -1.915  0.00  0.00    -0.276 OA
ATOM      4  H   UNL     1      -0.231  -6.191  -3.318  0.00  0.00    +0.149 HD
ENDROOT
BRANCH   1   5
ATOM      5  C   UNL     1      -0.136  -6.345  -1.203  0.00  0.00    +0.200 C 
BRANCH   5   7
ATOM      6  N   UNL     1       0.057  -4.175  -0.031  0.00  0.00    -0.281 N 
ATOM      7  C   UNL     1      -0.042  -4.841  -1.198  0.00  0.00    +0.234 C 
ATOM      8  O   UNL     1      -0.055  -4.229  -2.246  0.00  0.00    -0.274 OA
ATOM      9  H   UNL     1       0.149  -4.665   0.801  0.00  0.00    +0.155 HD
BRANCH   6  14
ATOM     10  C   UNL     1      -0.066   1.502   0.017  0.00  0.00    +0.044 C 
ATOM     11  C   UNL     1      -0.032  -0.005   0.006  0.00  0.00    -0.047 A 
ATOM     12  C   UNL     1      -0.621  -0.701  -1.033  0.00  0.00    +0.005 A 
ATOM     13  C   UNL     1      -0.593  -2.082  -1.048  0.00  0.00    +0.027 A 
ATOM     14  C   UNL     1       0.028  -2.774  -0.018  0.00  0.00    +0.075 A 
ATOM     15  C   UNL     1       0.622  -2.072   1.028  0.00  0.00    +0.138 A 
ATOM     16  C   UNL     1       0.594  -0.687   1.032  0.00  0.00    +0.050 A 
BRANCH  15  17
ATOM     17  O   UNL     1       1.233  -2.745   2.040  0.00  0.00    -0.505 OA
ATOM     18  H   UNL     1       2.171  -2.920   1.886  0.00  0.00    +0.292 HD
ENDBRANCH  15  17
ENDBRANCH   6  14
ENDBRANCH   5   7
ENDBRANCH   1   5
BRANCH   2  19
ATOM     19  C   UNL     1      -0.429  -8.638  -4.254  0.00  0.00    +0.102 C 
BRANCH  19  20
ATOM     20  C   UNL     1      -0.525 -10.165  -4.258  0.00  0.00    -0.020 C 
ATOM     21  C   UNL     1       0.724 -10.756  -3.600  0.00  0.00    +0.011 C 
ATOM     22  C   UNL     1       0.628 -12.283  -3.604  0.00  0.00    -0.010 C 
ATOM     23  C   UNL     1       0.526 -12.784  -5.047  0.00  0.00    +0.007 C 
ATOM     24  C   UNL     1      -0.723 -12.193  -5.704  0.00  0.00    -0.010 C 
ATOM     25  C   UNL     1      -0.627 -10.666  -5.700  0.00  0.00    +0.011 C 
ATOM     26  C   UNL     1      -1.965 -12.628  -4.924  0.00  0.00    +0.007 C 
ATOM     27  C   UNL     1      -1.863 -12.128  -3.482  0.00  0.00    -0.010 C 
ATOM     28  C   UNL     1      -0.614 -12.719  -2.824  0.00  0.00    +0.007 C 
ATOM     29  C   UNL     1      -1.767 -10.601  -3.478  0.00  0.00    +0.011 C 
ENDBRANCH  19  20
ENDBRANCH   2  19
TORSDOF 6
