REMARK  Name = ZINC56769371
REMARK  5 active torsions:
REMARK  status: ('A' for Active; 'I' for Inactive)
REMARK    1  A    between atoms: C_1  and  C_2
REMARK    2  A    between atoms: C_2  and  C_4
REMARK    3  A    between atoms: C_2  and  N_12
REMARK    4  A    between atoms: C_4  and  C_5
REMARK    5  A    between atoms: C_8  and  O_11
REMARK                            x       y       z     vdW  Elec       q    Type
REMARK                         _______ _______ _______ _____ _____    ______ ____
ROOT
ATOM      1  N   UNL     1      -1.372  -0.513   0.013  0.00  0.00    -0.296 N 
ATOM      2  C   UNL     1      -2.029  -0.655   1.181  0.00  0.00    +0.303 C 
ATOM      3  O   UNL     1      -1.452  -0.450   2.231  0.00  0.00    -0.253 OA
ATOM      4  N   UNL     1      -3.325  -1.025   1.185  0.00  0.00    -0.281 N 
ATOM      5  C   UNL     1      -4.092  -1.077   2.438  0.00  0.00    +0.116 C 
ATOM      6  C   UNL     1      -5.216  -0.036   2.380  0.00  0.00    +0.072 C 
ATOM      7  C   UNL     1      -5.904  -0.129   1.039  0.00  0.00    +0.023 A 
ATOM      8  C   UNL     1      -5.368  -0.725  -0.048  0.00  0.00    -0.002 A 
ATOM      9  C   UNL     1      -6.327  -0.600  -1.124  0.00  0.00    +0.005 A 
ATOM     10  C   UNL     1      -6.319  -1.017  -2.459  0.00  0.00    +0.010 A 
ATOM     11  C   UNL     1      -7.428  -0.719  -3.210  0.00  0.00    +0.001 A 
ATOM     12  C   UNL     1      -8.513  -0.038  -2.682  0.00  0.00    +0.002 A 
ATOM     13  C   UNL     1      -8.549   0.386  -1.365  0.00  0.00    +0.026 A 
ATOM     14  C   UNL     1      -7.436   0.099  -0.579  0.00  0.00    +0.047 A 
ATOM     15  N   UNL     1      -7.145   0.365   0.728  0.00  0.00    -0.358 N 
ATOM     16  H   UNL     1      -7.729   0.834   1.345  0.00  0.00    +0.166 HD
ATOM     17  C   UNL     1      -4.014  -1.383  -0.068  0.00  0.00    +0.146 C 
ATOM     18  H   UNL     1      -1.809  -0.747  -0.821  0.00  0.00    +0.151 HD
ENDROOT
BRANCH   1  20
ATOM     19  C   UNL     1      -0.021   1.526   0.007  0.00  0.00    +0.028 C 
ATOM     20  C   UNL     1       0.002  -0.004   0.002  0.00  0.00    +0.076 C 
BRANCH  20  21
ATOM     21  C   UNL     1       0.719  -0.499  -1.256  0.00  0.00    +0.057 C 
BRANCH  21  22
ATOM     22  C   UNL     1       0.851  -1.999  -1.201  0.00  0.00    -0.045 A 
ATOM     23  C   UNL     1       1.963  -2.573  -0.613  0.00  0.00    +0.007 A 
ATOM     24  C   UNL     1       2.086  -3.948  -0.562  0.00  0.00    +0.045 A 
ATOM     25  C   UNL     1       1.092  -4.753  -1.101  0.00  0.00    +0.117 A 
ATOM     26  C   UNL     1      -0.023  -4.174  -1.690  0.00  0.00    +0.045 A 
ATOM     27  C   UNL     1      -0.143  -2.799  -1.734  0.00  0.00    +0.007 A 
BRANCH  25  28
ATOM     28  O   UNL     1       1.211  -6.106  -1.053  0.00  0.00    -0.507 OA
ATOM     29  H   UNL     1       0.830  -6.506  -0.259  0.00  0.00    +0.292 HD
ENDBRANCH  25  28
ENDBRANCH  21  22
ENDBRANCH  20  21
ENDBRANCH   1  20
TORSDOF 4
