REMARK  Name = ZINC39292710
REMARK  6 active torsions:
REMARK  status: ('A' for Active; 'I' for Inactive)
REMARK    1  A    between atoms: C_1  and  C_2
REMARK    2  A    between atoms: C_13  and  C_14
REMARK    3  A    between atoms: C_14  and  C_15
REMARK    4  A    between atoms: C_22  and  C_36
REMARK    5  A    between atoms: C_27  and  C_35
REMARK    6  A    between atoms: C_32  and  O_34
REMARK                            x       y       z     vdW  Elec       q    Type
REMARK                         _______ _______ _______ _____ _____    ______ ____
ROOT
ATOM      1  C   UNL     1      -0.000   1.546   0.414  0.00  0.00    +0.012 C 
ATOM      2  C   UNL     1       0.047  -0.008   0.403  0.00  0.00    -0.025 C 
ATOM      3  C   UNL     1       0.221  -0.436  -1.044  0.00  0.00    +0.007 C 
ATOM      4  C   UNL     1       1.601  -0.040  -1.575  0.00  0.00    +0.005 C 
ATOM      5  C   UNL     1       2.678  -0.746  -0.736  0.00  0.00    -0.003 C 
ATOM      6  C   UNL     1       2.572  -2.241  -1.002  0.00  0.00    +0.019 C 
ATOM      7  C   UNL     1       3.343  -3.079   0.007  0.00  0.00    +0.082 C 
ATOM      8  C   UNL     1       4.228  -2.113   0.785  0.00  0.00    +0.050 C 
ATOM      9  N   UNL     1       5.435  -2.469   0.569  0.00  0.00    -0.158 NA
ATOM     10  N   UNL     1       5.512  -3.571  -0.282  0.00  0.00    -0.158 NA
ATOM     11  C   UNL     1       4.345  -3.992  -0.656  0.00  0.00    +0.054 C 
ATOM     12  C   UNL     1       3.637  -0.991   1.587  0.00  0.00    +0.060 C 
ATOM     13  C   UNL     1       2.578  -0.300   0.705  0.00  0.00    -0.021 C 
ATOM     14  C   UNL     1       1.190  -0.485   1.298  0.00  0.00    +0.002 C 
ATOM     15  C   UNL     1       1.026  -1.942   1.730  0.00  0.00    +0.005 C 
ATOM     16  C   UNL     1      -0.324  -2.201   2.412  0.00  0.00    +0.010 C 
ATOM     17  C   UNL     1      -1.410  -1.882   1.410  0.00  0.00    -0.003 C 
ATOM     18  C   UNL     1      -1.278  -0.411   0.994  0.00  0.00    +0.004 C 
ATOM     19  C   UNL     1      -2.550  -0.204   0.163  0.00  0.00    +0.007 C 
ATOM     20  C   UNL     1      -3.623  -0.959   1.001  0.00  0.00    +0.032 C 
ATOM     21  C   UNL     1      -2.847  -1.892   1.967  0.00  0.00    +0.121 C 
ATOM     22  C   UNL     1      -1.375  -2.865   0.244  0.00  0.00    +0.014 C 
ATOM     23  C   UNL     1       2.982   1.187   0.770  0.00  0.00    +0.012 C 
ENDROOT
BRANCH  21  24
ATOM     24  O   UNL     1      -2.859  -1.366   3.292  0.00  0.00    -0.391 OA
ATOM     25  H   UNL     1      -3.736  -1.346   3.699  0.00  0.00    +0.210 HD
ENDBRANCH  21  24
BRANCH  11  26
ATOM     26  C   UNL     1       4.054  -5.163  -1.558  0.00  0.00    +0.088 C 
BRANCH  26  27
ATOM     27  C   UNL     1       5.351  -5.793  -1.996  0.00  0.00    -0.042 A 
ATOM     28  C   UNL     1       5.980  -5.353  -3.146  0.00  0.00    +0.004 A 
ATOM     29  C   UNL     1       7.170  -5.931  -3.548  0.00  0.00    +0.000 A 
ATOM     30  C   UNL     1       7.731  -6.950  -2.800  0.00  0.00    +0.000 A 
ATOM     31  C   UNL     1       7.102  -7.389  -1.650  0.00  0.00    +0.000 A 
ATOM     32  C   UNL     1       5.915  -6.808  -1.246  0.00  0.00    +0.004 A 
ENDBRANCH  26  27
ENDBRANCH  11  26
TORSDOF 3
