REMARK  Name = ZINC00632126
REMARK  8 active torsions:
REMARK  status: ('A' for Active; 'I' for Inactive)
REMARK    1  A    between atoms: C_1  and  C_2
REMARK    2  A    between atoms: C_5  and  C_8
REMARK    3  A    between atoms: N_15  and  C_32
REMARK    4  A    between atoms: C_16  and  S_18
REMARK    5  A    between atoms: S_18  and  C_19
REMARK    6  A    between atoms: C_19  and  C_20
REMARK    7  A    between atoms: N_22  and  C_23
REMARK    8  A    between atoms: C_32  and  C_33
REMARK                            x       y       z     vdW  Elec       q    Type
REMARK                         _______ _______ _______ _____ _____    ______ ____
ROOT
ATOM      1  C   UNL     1      12.351  -2.635   6.632  0.00  0.00    +0.004 A 
ATOM      2  C   UNL     1      12.828  -1.391   6.395  0.00  0.00    +0.056 A 
ATOM      3  S   UNL     1      11.525  -0.621   5.454  0.00  0.00    -0.076 S 
ATOM      4  C   UNL     1      10.380  -1.975   5.401  0.00  0.00    +0.117 A 
ATOM      5  C   UNL     1      11.035  -2.994   6.114  0.00  0.00    +0.080 A 
ATOM      6  C   UNL     1      10.324  -4.228   6.232  0.00  0.00    +0.264 A 
ATOM      7  O   UNL     1      10.815  -5.168   6.834  0.00  0.00    -0.267 OA
ATOM      8  N   UNL     1       9.104  -4.338   5.675  0.00  0.00    -0.283 N 
ATOM      9  C   UNL     1       8.542  -3.299   4.993  0.00  0.00    +0.173 A 
ATOM     10  N   UNL     1       9.175  -2.150   4.869  0.00  0.00    -0.216 NA
ENDROOT
BRANCH   1  15
ATOM     11  C   UNL     1      15.461  -6.444   9.628  0.00  0.00    +0.044 C 
ATOM     12  C   UNL     1      14.648  -5.447   8.844  0.00  0.00    -0.050 A 
ATOM     13  C   UNL     1      15.224  -4.766   7.787  0.00  0.00    +0.004 A 
ATOM     14  C   UNL     1      14.484  -3.853   7.065  0.00  0.00    +0.009 A 
ATOM     15  C   UNL     1      13.152  -3.616   7.403  0.00  0.00    -0.017 A 
ATOM     16  C   UNL     1      12.578  -4.302   8.473  0.00  0.00    +0.009 A 
ATOM     17  C   UNL     1      13.327  -5.217   9.184  0.00  0.00    +0.004 A 
ENDBRANCH   1  15
BRANCH   9  18
ATOM     18  S   UNL     1       6.945  -3.493   4.274  0.00  0.00    -0.078 S 
BRANCH  18  19
ATOM     19  C   UNL     1       6.728  -1.853   3.541  0.00  0.00    +0.173 C 
BRANCH  19  20
ATOM     20  C   UNL     1       5.391  -1.783   2.851  0.00  0.00    +0.227 C 
ATOM     21  O   UNL     1       4.656  -2.748   2.854  0.00  0.00    -0.275 OA
ATOM     22  N   UNL     1       5.011  -0.649   2.229  0.00  0.00    -0.285 N 
ATOM     23  H   UNL     1       5.628   0.096   2.160  0.00  0.00    +0.155 HD
BRANCH  22  24
ATOM     24  C   UNL     1       3.725  -0.547   1.683  0.00  0.00    +0.037 A 
ATOM     25  C   UNL     1       2.657  -1.191   2.295  0.00  0.00    +0.027 A 
ATOM     26  C   UNL     1       1.388  -1.090   1.758  0.00  0.00    +0.051 A 
ATOM     27  C   UNL     1       1.177  -0.347   0.608  0.00  0.00    +0.166 A 
ATOM     28  C   UNL     1       2.246   0.301  -0.008  0.00  0.00    +0.168 A 
ATOM     29  C   UNL     1       3.517   0.199   0.531  0.00  0.00    +0.072 A 
ATOM     30  O   UNL     1       1.781   0.958  -1.110  0.00  0.00    -0.453 OA
ATOM     31  C   UNL     1       0.354   1.044  -0.934  0.00  0.00    +0.466 C 
ATOM     32  O   UNL     1       0.042  -0.094  -0.110  0.00  0.00    -0.453 OA
ENDBRANCH  22  24
ENDBRANCH  19  20
ENDBRANCH  18  19
ENDBRANCH   9  18
BRANCH   8  33
ATOM     33  C   UNL     1       8.369  -5.599   5.799  0.00  0.00    +0.154 C 
BRANCH  33  34
ATOM     34  C   UNL     1       8.714  -6.498   4.639  0.00  0.00    -0.013 C 
ATOM     35  C   UNL     1       9.167  -7.707   4.859  0.00  0.00    +0.005 C 
ENDBRANCH  33  34
ENDBRANCH   8  33
TORSDOF 7
