REMARK  Name = ZINC01026344
REMARK  10 active torsions:
REMARK  status: ('A' for Active; 'I' for Inactive)
REMARK    1  A    between atoms: C_1  and  C_2
REMARK    2  A    between atoms: C_2  and  C_3
REMARK    3  A    between atoms: C_2  and  C_4
REMARK    4  A    between atoms: C_2  and  C_5
REMARK    5  A    between atoms: C_7  and  N_13
REMARK    6  A    between atoms: C_8  and  C_10
REMARK    7  A    between atoms: C_14  and  C_16
REMARK    8  A    between atoms: C_16  and  C_28
REMARK    9  A    between atoms: C_17  and  C_18
REMARK   10  A    between atoms: C_21  and  C_24
REMARK                            x       y       z     vdW  Elec       q    Type
REMARK                         _______ _______ _______ _____ _____    ______ ____
ROOT
ATOM      1  N   UNL     1      -2.443   1.097   0.046  0.00  0.00    -0.280 N 
ATOM      2  C   UNL     1      -2.523  -0.156   0.534  0.00  0.00    +0.259 C 
ATOM      3  O   UNL     1      -1.559  -0.659   1.080  0.00  0.00    -0.269 OA
ATOM      4  H   UNL     1      -3.235   1.531  -0.310  0.00  0.00    +0.155 HD
ENDROOT
BRANCH   1   7
ATOM      5  C   UNL     1       1.137   1.798   0.074  0.00  0.00    -0.002 A 
ATOM      6  C   UNL     1      -0.021   1.093   0.074  0.00  0.00    +0.035 A 
ATOM      7  C   UNL     1      -1.222   1.772   0.053  0.00  0.00    +0.053 A 
ATOM      8  C   UNL     1      -1.156   3.164   0.043  0.00  0.00    +0.095 A 
ATOM      9  S   UNL     1       0.605   3.447   0.052  0.00  0.00    -0.086 S 
BRANCH   8  10
ATOM     10  C   UNL     1      -2.213   4.108   0.025  0.00  0.00    +0.250 C 
ATOM     11  O   UNL     1      -3.369   3.727   0.022  0.00  0.00    -0.270 OA
ATOM     12  N   UNL     1      -1.937   5.427   0.012  0.00  0.00    -0.325 N 
ATOM     13  H   UNL     1      -1.016   5.730   0.015  0.00  0.00    +0.145 HD
ATOM     14  H   UNL     1      -2.660   6.074   0.000  0.00  0.00    +0.145 HD
ENDBRANCH   8  10
BRANCH   5  16
ATOM     15  C   UNL     1       2.784   0.405  -1.149  0.00  0.00    +0.016 C 
ATOM     16  C   UNL     1       2.550   1.273   0.089  0.00  0.00    -0.006 C 
ATOM     17  C   UNL     1       3.530   2.447   0.083  0.00  0.00    +0.016 C 
ATOM     18  C   UNL     1       2.768   0.432   1.349  0.00  0.00    +0.016 C 
ENDBRANCH   5  16
ENDBRANCH   1   7
BRANCH   2  19
ATOM     19  C   UNL     1      -3.777  -0.917   0.407  0.00  0.00    +0.114 C 
ATOM     20  C   UNL     1      -3.858  -2.188   0.902  0.00  0.00    +0.032 C 
BRANCH  20  21
ATOM     21  C   UNL     1      -5.081  -2.974   0.707  0.00  0.00    -0.024 A 
ATOM     22  C   UNL     1      -6.333  -2.346   0.727  0.00  0.00    +0.008 A 
ATOM     23  C   UNL     1      -7.477  -3.092   0.538  0.00  0.00    +0.013 A 
ATOM     24  C   UNL     1      -7.392  -4.459   0.340  0.00  0.00    +0.055 A 
ATOM     25  C   UNL     1      -6.159  -5.089   0.325  0.00  0.00    +0.013 A 
ATOM     26  C   UNL     1      -5.005  -4.358   0.506  0.00  0.00    +0.008 A 
BRANCH  24  27
ATOM     27  C   UNL     1      -8.648  -5.267   0.141  0.00  0.00    +0.417 C 
ATOM     28  F   UNL     1      -9.119  -5.710   1.381  0.00  0.00    -0.166 F 
ATOM     29  F   UNL     1      -9.623  -4.471  -0.470  0.00  0.00    -0.166 F 
ATOM     30  F   UNL     1      -8.370  -6.370  -0.673  0.00  0.00    -0.166 F 
ENDBRANCH  24  27
ENDBRANCH  20  21
BRANCH  19  31
ATOM     31  C   UNL     1      -4.912  -0.325  -0.236  0.00  0.00    +0.104 C 
ATOM     32  N   UNL     1      -5.811   0.144  -0.746  0.00  0.00    -0.191 NA
ENDBRANCH  19  31
ENDBRANCH   2  19
TORSDOF 7
