REMARK  Name = ZINC28055454
REMARK  3 active torsions:
REMARK  status: ('A' for Active; 'I' for Inactive)
REMARK    1  A    between atoms: C_1  and  C_2
REMARK    2  A    between atoms: C_10  and  C_18
REMARK    3  A    between atoms: C_25  and  C_28
REMARK                            x       y       z     vdW  Elec       q    Type
REMARK                         _______ _______ _______ _____ _____    ______ ____
ROOT
ATOM      1  C   UNL     1       2.490   1.033  -0.015  0.00  0.00    +0.044 C 
ATOM      2  C   UNL     1       1.180   1.779   0.000  0.00  0.00    -0.050 A 
ATOM      3  C   UNL     1      -0.013   1.076   0.008  0.00  0.00    +0.007 A 
ATOM      4  C   UNL     1      -1.223   1.746   0.017  0.00  0.00    +0.046 A 
ATOM      5  C   UNL     1      -1.242   3.128   0.031  0.00  0.00    +0.131 A 
ATOM      6  C   UNL     1      -0.036   3.841   0.023  0.00  0.00    +0.038 A 
ATOM      7  C   UNL     1       1.175   3.160   0.008  0.00  0.00    +0.016 A 
ATOM      8  C   UNL     1      -0.094   5.322   0.030  0.00  0.00    +0.050 C 
ATOM      9  C   UNL     1      -1.239   5.912   0.377  0.00  0.00    +0.026 C 
ATOM     10  C   UNL     1      -1.403   7.412   0.392  0.00  0.00    +0.174 C 
ATOM     11  N   UNL     1      -0.102   8.058   0.297  0.00  0.00    -0.201 N 
ATOM     12  C   UNL     1       1.043   7.410  -0.043  0.00  0.00    +0.240 A 
ATOM     13  N   UNL     1       2.004   8.289  -0.036  0.00  0.00    -0.092 NA
ATOM     14  N   UNL     1       1.545   9.449   0.290  0.00  0.00    -0.021 NA
ATOM     15  N   UNL     1       0.271   9.385   0.508  0.00  0.00    -0.042 NA
ATOM     16  N   UNL     1       1.048   6.053  -0.319  0.00  0.00    -0.282 N 
ATOM     17  C   UNL     1      -2.421   5.054   0.768  0.00  0.00    +0.241 C 
ATOM     18  O   UNL     1      -2.408   3.822   0.048  0.00  0.00    -0.479 OA
ATOM     19  H   UNL     1       1.902   5.546  -0.792  0.00  0.00    +0.155 HD
ENDROOT
BRANCH  10  20
ATOM     20  C   UNL     1      -2.256   7.833  -0.777  0.00  0.00    -0.019 A 
ATOM     21  C   UNL     1      -1.844   7.557  -2.067  0.00  0.00    +0.009 A 
ATOM     22  C   UNL     1      -2.628   7.938  -3.140  0.00  0.00    +0.039 A 
ATOM     23  C   UNL     1      -3.821   8.606  -2.921  0.00  0.00    +0.123 A 
ATOM     24  C   UNL     1      -4.230   8.886  -1.629  0.00  0.00    +0.039 A 
ATOM     25  C   UNL     1      -3.447   8.499  -0.558  0.00  0.00    +0.009 A 
ATOM     26  F   UNL     1      -4.587   8.983  -3.969  0.00  0.00    -0.205 F 
ENDBRANCH  10  20
BRANCH  17  27
ATOM     27  C   UNL     1      -2.359   4.766   2.246  0.00  0.00    +0.034 A 
ATOM     28  C   UNL     1      -3.034   5.359   3.261  0.00  0.00    +0.015 A 
ATOM     29  C   UNL     1      -2.816   4.925   4.555  0.00  0.00    +0.008 A 
ATOM     30  C   UNL     1      -1.933   3.920   4.771  0.00  0.00    +0.045 A 
ATOM     31  S   UNL     1      -1.381   3.549   3.114  0.00  0.00    -0.098 S 
ENDBRANCH  17  27
TORSDOF 2
