REMARK  Name = ZINC39698430
REMARK  5 active torsions:
REMARK  status: ('A' for Active; 'I' for Inactive)
REMARK    1  A    between atoms: C_1  and  O_2
REMARK    2  A    between atoms: O_2  and  C_3
REMARK    3  A    between atoms: C_6  and  N_9
REMARK    4  A    between atoms: C_10  and  C_21
REMARK    5  A    between atoms: C_22  and  C_23
REMARK                            x       y       z     vdW  Elec       q    Type
REMARK                         _______ _______ _______ _____ _____    ______ ____
ROOT
ATOM      1  N   UNL     1       2.541  -2.503   4.230  0.00  0.00    -0.245 N 
ATOM      2  C   UNL     1       2.508  -3.963   4.327  0.00  0.00    +0.190 C 
ATOM      3  N   UNL     1       2.497  -4.380   5.734  0.00  0.00    -0.322 N 
ATOM      4  C   UNL     1       3.346  -3.738   6.629  0.00  0.00    +0.041 A 
ATOM      5  C   UNL     1       3.841  -4.380   7.752  0.00  0.00    +0.024 A 
ATOM      6  C   UNL     1       4.674  -3.698   8.618  0.00  0.00    +0.002 A 
ATOM      7  C   UNL     1       5.017  -2.378   8.372  0.00  0.00    +0.001 A 
ATOM      8  C   UNL     1       4.537  -1.725   7.256  0.00  0.00    +0.015 A 
ATOM      9  C   UNL     1       3.700  -2.402   6.372  0.00  0.00    +0.058 A 
ATOM     10  C   UNL     1       3.185  -1.757   5.150  0.00  0.00    +0.254 C 
ATOM     11  O   UNL     1       3.335  -0.563   4.976  0.00  0.00    -0.270 OA
ATOM     12  H   UNL     1       1.908  -5.089   6.035  0.00  0.00    +0.148 HD
ENDROOT
BRANCH   1  16
ATOM     13  C   UNL     1       0.625  -0.620   1.042  0.00  0.00    +0.120 A 
ATOM     14  C   UNL     1       1.961  -0.977   0.935  0.00  0.00    +0.047 A 
ATOM     15  C   UNL     1       2.596  -1.601   1.990  0.00  0.00    +0.027 A 
ATOM     16  C   UNL     1       1.897  -1.870   3.160  0.00  0.00    +0.039 A 
ATOM     17  C   UNL     1       0.560  -1.512   3.267  0.00  0.00    +0.027 A 
ATOM     18  C   UNL     1      -0.072  -0.883   2.212  0.00  0.00    +0.047 A 
BRANCH  13  20
ATOM     19  C   UNL     1       0.778   0.234  -1.172  0.00  0.00    +0.277 C 
ATOM     20  O   UNL     1      -0.001  -0.006   0.002  0.00  0.00    -0.495 OA
ENDBRANCH  13  20
ENDBRANCH   1  16
BRANCH   2  21
ATOM     21  C   UNL     1       3.726  -4.535   3.650  0.00  0.00    +0.015 C 
ATOM     22  C   UNL     1       3.585  -5.373   2.612  0.00  0.00    +0.005 C 
BRANCH  22  23
ATOM     23  C   UNL     1       4.724  -5.909   1.978  0.00  0.00    -0.019 C 
ATOM     24  C   UNL     1       4.752  -6.779   0.896  0.00  0.00    +0.003 A 
ATOM     25  C   UNL     1       3.729  -7.376   0.123  0.00  0.00    +0.010 A 
ATOM     26  C   UNL     1       4.055  -8.204  -0.899  0.00  0.00    +0.001 A 
ATOM     27  C   UNL     1       5.387  -8.489  -1.216  0.00  0.00    +0.002 A 
ATOM     28  C   UNL     1       6.418  -7.955  -0.521  0.00  0.00    +0.026 A 
ATOM     29  C   UNL     1       6.158  -7.077   0.566  0.00  0.00    +0.043 A 
ATOM     30  N   UNL     1       6.967  -6.439   1.383  0.00  0.00    -0.380 N 
ATOM     31  C   UNL     1       6.173  -5.651   2.332  0.00  0.00    +0.149 C 
ATOM     32  H   UNL     1       7.936  -6.479   1.360  0.00  0.00    +0.160 HD
ENDBRANCH  22  23
ENDBRANCH   2  21
TORSDOF 4
