REMARK  Name = ZINC20693094
REMARK  8 active torsions:
REMARK  status: ('A' for Active; 'I' for Inactive)
REMARK    1  A    between atoms: C_1  and  N_2
REMARK    2  A    between atoms: N_2  and  C_3
REMARK    3  A    between atoms: N_2  and  S_9
REMARK    4  A    between atoms: S_9  and  C_12
REMARK    5  A    between atoms: C_25  and  C_28
REMARK    6  A    between atoms: C_31  and  O_36
REMARK    7  A    between atoms: C_32  and  O_34
REMARK    8  A    between atoms: O_34  and  C_35
REMARK                            x       y       z     vdW  Elec       q    Type
REMARK                         _______ _______ _______ _____ _____    ______ ____
ROOT
ATOM      1  C   UNL     1       1.498  -2.185   1.024  0.00  0.00    +0.109 A 
ATOM      2  C   UNL     1       0.623  -1.184   1.405  0.00  0.00    +0.030 A 
ATOM      3  C   UNL     1       1.049  -0.170   2.237  0.00  0.00    +0.025 A 
ATOM      4  C   UNL     1       2.360  -0.145   2.699  0.00  0.00    +0.031 A 
ATOM      5  C   UNL     1       3.243  -1.155   2.300  0.00  0.00    -0.018 A 
ATOM      6  C   UNL     1       2.806  -2.165   1.471  0.00  0.00    +0.034 A 
ATOM      7  C   UNL     1       4.636  -1.077   2.792  0.00  0.00    +0.049 C 
ATOM      8  C   UNL     1       5.485  -2.287   2.935  0.00  0.00    -0.023 C 
ATOM      9  C   UNL     1       6.326  -2.098   3.944  0.00  0.00    -0.030 C 
ATOM     10  C   UNL     1       6.074  -0.732   4.586  0.00  0.00    +0.033 C 
ATOM     11  C   UNL     1       4.600  -0.494   4.236  0.00  0.00    +0.029 C 
ATOM     12  C   UNL     1       4.146   0.947   4.081  0.00  0.00    +0.105 C 
ATOM     13  N   UNL     1       2.760   0.875   3.571  0.00  0.00    -0.336 N 
ATOM     14  H   UNL     1       2.022   1.631   3.876  0.00  0.00    +0.147 HD
ENDROOT
BRANCH  12  15
ATOM     15  C   UNL     1       4.175   1.648   5.415  0.00  0.00    -0.023 A 
ATOM     16  C   UNL     1       3.140   1.464   6.313  0.00  0.00    +0.009 A 
ATOM     17  C   UNL     1       3.162   2.106   7.537  0.00  0.00    +0.049 A 
ATOM     18  C   UNL     1       4.222   2.934   7.867  0.00  0.00    +0.158 A 
ATOM     19  C   UNL     1       5.264   3.118   6.963  0.00  0.00    +0.162 A 
ATOM     20  C   UNL     1       5.239   2.469   5.739  0.00  0.00    +0.054 A 
BRANCH  19  21
ATOM     21  O   UNL     1       6.307   3.930   7.282  0.00  0.00    -0.491 OA
ATOM     22  C   UNL     1       7.341   4.072   6.306  0.00  0.00    +0.277 C 
ENDBRANCH  19  21
BRANCH  18  23
ATOM     23  O   UNL     1       4.245   3.565   9.071  0.00  0.00    -0.503 OA
ATOM     24  H   UNL     1       5.088   4.223   9.332  0.00  0.00    +0.292 HD
ENDBRANCH  18  23
ENDBRANCH  12  15
BRANCH   1  25
ATOM     25  S   UNL     1       0.947  -3.484  -0.031  0.00  0.00    +0.074 S 
ATOM     26  O   UNL     1       1.885  -4.542   0.103  0.00  0.00    -0.150 OA
ATOM     27  O   UNL     1      -0.440  -3.657   0.228  0.00  0.00    -0.150 OA
BRANCH  25  29
ATOM     28  C   UNL     1      -0.011  -2.142  -2.176  0.00  0.00    +0.157 C 
ATOM     29  N   UNL     1       1.072  -2.936  -1.589  0.00  0.00    -0.206 N 
BRANCH  29  30
ATOM     30  C   UNL     1       2.210  -3.230  -2.344  0.00  0.00    +0.051 A 
ATOM     31  C   UNL     1       3.448  -2.731  -1.960  0.00  0.00    +0.025 A 
ATOM     32  C   UNL     1       4.572  -3.029  -2.705  0.00  0.00    +0.002 A 
ATOM     33  C   UNL     1       4.464  -3.813  -3.839  0.00  0.00    +0.000 A 
ATOM     34  C   UNL     1       3.232  -4.307  -4.227  0.00  0.00    +0.002 A 
ATOM     35  C   UNL     1       2.105  -4.018  -3.483  0.00  0.00    +0.025 A 
ENDBRANCH  29  30
ENDBRANCH  25  29
ENDBRANCH   1  25
TORSDOF 6
