REMARK  Name = ZINC27348924
REMARK  10 active torsions:
REMARK  status: ('A' for Active; 'I' for Inactive)
REMARK    1  A    between atoms: C_1  and  C_2
REMARK    2  A    between atoms: C_2  and  O_3
REMARK    3  A    between atoms: O_3  and  C_4
REMARK    4  A    between atoms: C_4  and  C_6
REMARK    5  A    between atoms: C_7  and  C_19
REMARK    6  A    between atoms: C_12  and  C_14
REMARK    7  A    between atoms: C_19  and  N_20
REMARK    8  A    between atoms: N_20  and  C_21
REMARK    9  A    between atoms: N_20  and  C_22
REMARK   10  A    between atoms: C_22  and  C_23
REMARK                            x       y       z     vdW  Elec       q    Type
REMARK                         _______ _______ _______ _____ _____    ______ ____
ROOT
ATOM      1  C   UNL     1       1.950   4.502  -1.775  0.00  0.00    +0.077 C 
ATOM      2  C   UNL     1       2.065   5.839  -1.619  0.00  0.00    +0.008 C 
ATOM      3  N   UNL     1       1.911   6.422  -0.394  0.00  0.00    -0.274 N 
ATOM      4  C   UNL     1       1.640   5.738   0.725  0.00  0.00    +0.304 C 
ATOM      5  O   UNL     1       1.521   6.345   1.771  0.00  0.00    -0.252 OA
ATOM      6  N   UNL     1       1.498   4.397   0.729  0.00  0.00    -0.288 N 
ATOM      7  C   UNL     1       1.645   3.673  -0.544  0.00  0.00    +0.150 C 
ATOM      8  H   UNL     1       2.008   7.512  -0.288  0.00  0.00    +0.156 HD
ATOM      9  H   UNL     1       1.277   3.845   1.654  0.00  0.00    +0.151 HD
ENDROOT
BRANCH   7  10
ATOM     10  C   UNL     1       0.366   2.917  -0.799  0.00  0.00    +0.015 A 
ATOM     11  C   UNL     1       0.199   1.625  -1.173  0.00  0.00    +0.013 A 
ATOM     12  C   UNL     1      -1.083   1.139  -1.350  0.00  0.00    +0.008 A 
ATOM     13  C   UNL     1      -2.135   1.970  -1.149  0.00  0.00    +0.045 A 
ATOM     14  S   UNL     1      -1.321   3.490  -0.685  0.00  0.00    -0.099 S 
ENDBRANCH   7  10
BRANCH   1  15
ATOM     15  C   UNL     1       2.108   3.897  -3.044  0.00  0.00    +0.339 C 
ATOM     16  O   UNL     1       2.232   4.590  -4.037  0.00  0.00    -0.245 OA
BRANCH  15  17
ATOM     17  O   UNL     1       2.123   2.552  -3.153  0.00  0.00    -0.462 OA
BRANCH  17  19
ATOM     18  C   UNL     1       2.277   0.481  -4.389  0.00  0.00    +0.048 C 
ATOM     19  C   UNL     1       2.286   2.010  -4.465  0.00  0.00    +0.229 C 
ENDBRANCH  17  19
ENDBRANCH  15  17
ENDBRANCH   1  15
BRANCH   2  20
ATOM     20  C   UNL     1       2.368   6.701  -2.818  0.00  0.00    -0.026 C 
BRANCH  20  21
ATOM     21  N   UNL     1       1.116   7.033  -3.511  0.00  0.00    +0.384 N 
ATOM     22  C   UNL     1       0.365   8.062  -2.780  0.00  0.00    -0.095 C 
ATOM     23  H   UNL     1       0.497   6.124  -3.545  0.00  0.00    -0.081 HD
BRANCH  21  24
ATOM     24  C   UNL     1       1.376   7.454  -4.894  0.00  0.00    -0.043 C 
BRANCH  24  25
ATOM     25  C   UNL     1       0.072   7.548  -5.644  0.00  0.00    -0.061 A 
ATOM     26  C   UNL     1      -0.632   8.738  -5.659  0.00  0.00    +0.002 A 
ATOM     27  C   UNL     1      -1.828   8.825  -6.347  0.00  0.00    +0.003 A 
ATOM     28  C   UNL     1      -2.321   7.724  -7.021  0.00  0.00    +0.038 A 
ATOM     29  C   UNL     1      -1.617   6.532  -7.006  0.00  0.00    +0.124 A 
ATOM     30  C   UNL     1      -0.417   6.447  -6.321  0.00  0.00    +0.040 A 
ATOM     31  F   UNL     1      -2.099   5.455  -7.664  0.00  0.00    -0.205 F 
ENDBRANCH  24  25
ENDBRANCH  21  24
ENDBRANCH  20  21
ENDBRANCH   2  20
TORSDOF 8
