REMARK  Name = ZINC12344192
REMARK  10 active torsions:
REMARK  status: ('A' for Active; 'I' for Inactive)
REMARK    1  A    between atoms: C_1  and  C_2
REMARK    2  A    between atoms: C_2  and  C_4
REMARK    3  A    between atoms: C_2  and  S_13
REMARK    4  A    between atoms: N_9  and  C_10
REMARK    5  A    between atoms: S_13  and  C_14
REMARK    6  A    between atoms: C_17  and  C_29
REMARK    7  A    between atoms: N_18  and  C_19
REMARK    8  A    between atoms: C_22  and  O_25
REMARK    9  A    between atoms: O_25  and  C_26
REMARK   10  A    between atoms: C_29  and  N_62
REMARK                            x       y       z     vdW  Elec       q    Type
REMARK                         _______ _______ _______ _____ _____    ______ ____
ROOT
ATOM      1  C   UNL     1      -7.451   0.680  -0.696  0.00  0.00    +0.197 A 
ATOM      2  N   UNL     1      -7.399  -0.566  -0.284  0.00  0.00    -0.122 NA
ATOM      3  N   UNL     1      -8.545  -1.127  -0.440  0.00  0.00    -0.135 NA
ATOM      4  C   UNL     1      -9.391  -0.281  -0.957  0.00  0.00    +0.122 A 
ATOM      5  N   UNL     1      -8.727   0.903  -1.134  0.00  0.00    -0.276 N 
ENDROOT
BRANCH   5   6
ATOM      6  C   UNL     1      -9.247   2.097  -1.658  0.00  0.00    +0.050 A 
ATOM      7  C   UNL     1     -10.249   2.776  -0.978  0.00  0.00    +0.030 A 
ATOM      8  C   UNL     1     -10.756   3.953  -1.491  0.00  0.00    +0.048 A 
ATOM      9  C   UNL     1     -10.273   4.452  -2.692  0.00  0.00    +0.127 A 
ATOM     10  C   UNL     1      -9.275   3.771  -3.375  0.00  0.00    +0.048 A 
ATOM     11  C   UNL     1      -8.764   2.596  -2.859  0.00  0.00    +0.030 A 
BRANCH   9  12
ATOM     12  O   UNL     1     -10.777   5.608  -3.200  0.00  0.00    -0.434 OA
BRANCH  12  13
ATOM     13  C   UNL     1     -11.802   6.256  -2.444  0.00  0.00    +0.541 C 
ATOM     14  F   UNL     1     -12.897   5.396  -2.309  0.00  0.00    -0.166 F 
ATOM     15  F   UNL     1     -11.309   6.585  -1.177  0.00  0.00    -0.166 F 
ENDBRANCH  12  13
ENDBRANCH   9  12
ENDBRANCH   5   6
BRANCH   1  16
ATOM     16  S   UNL     1      -6.129   1.845  -0.680  0.00  0.00    -0.073 S 
BRANCH  16  18
ATOM     17  C   UNL     1      -5.183   0.444   1.466  0.00  0.00    +0.029 C 
ATOM     18  C   UNL     1      -4.816   0.821   0.029  0.00  0.00    +0.137 C 
BRANCH  18  19
ATOM     19  C   UNL     1      -3.522   1.592   0.027  0.00  0.00    +0.233 C 
ATOM     20  O   UNL     1      -3.538   2.804   0.034  0.00  0.00    -0.274 OA
ATOM     21  N   UNL     1      -2.345   0.934   0.018  0.00  0.00    -0.239 N 
ATOM     22  C   UNL     1      -1.187   1.624   0.017  0.00  0.00    +0.306 C 
ATOM     23  O   UNL     1      -1.204   2.839   0.023  0.00  0.00    -0.252 OA
ATOM     24  N   UNL     1      -0.011   0.966   0.007  0.00  0.00    -0.296 N 
ATOM     25  H   UNL     1      -2.332  -0.036   0.013  0.00  0.00    +0.159 HD
ATOM     26  H   UNL     1       0.002  -0.004   0.002  0.00  0.00    +0.151 HD
BRANCH  24  27
ATOM     27  C   UNL     1       1.248   1.716  -0.001  0.00  0.00    +0.075 C 
ATOM     28  C   UNL     1       2.347   1.240  -0.952  0.00  0.00    +0.024 C 
ATOM     29  C   UNL     1       2.490   1.016   0.555  0.00  0.00    +0.024 C 
ENDBRANCH  24  27
ENDBRANCH  18  19
ENDBRANCH  16  18
ENDBRANCH   1  16
BRANCH   4  30
ATOM     30  C   UNL     1     -10.835  -0.555  -1.291  0.00  0.00    -0.001 C 
BRANCH  30  36
ATOM     31  C   UNL     1     -11.392  -1.148   0.989  0.00  0.00    -0.078 C 
ATOM     32  C   UNL     1     -12.176  -0.701   2.224  0.00  0.00    -0.019 C 
ATOM     33  C   UNL     1     -13.673  -0.708   1.903  0.00  0.00    -0.004 C 
ATOM     34  C   UNL     1     -13.934   0.210   0.706  0.00  0.00    -0.019 C 
ATOM     35  C   UNL     1     -13.100  -0.264  -0.486  0.00  0.00    -0.078 C 
ATOM     36  N   UNL     1     -11.668  -0.210  -0.121  0.00  0.00    +0.384 N 
ATOM     37  H   UNL     1     -11.438   0.743   0.184  0.00  0.00    -0.081 HD
ENDBRANCH  30  36
ENDBRANCH   4  30
TORSDOF 9
