REMARK  Name = ZINC13841704
REMARK  6 active torsions:
REMARK  status: ('A' for Active; 'I' for Inactive)
REMARK    1  A    between atoms: C_5  and  C_7
REMARK    2  A    between atoms: C_7  and  O_8
REMARK    3  A    between atoms: O_8  and  C_9
REMARK    4  A    between atoms: C_13  and  C_15
REMARK    5  A    between atoms: N_16  and  N_17
REMARK    6  A    between atoms: C_18  and  C_19
REMARK                            x       y       z     vdW  Elec       q    Type
REMARK                         _______ _______ _______ _____ _____    ______ ____
ROOT
ATOM      1  C   UNL     1       8.365   3.004  -0.051  0.00  0.00    +0.140 C 
ATOM      2  N   UNL     1       9.577   2.515  -0.072  0.00  0.00    -0.180 NA
ENDROOT
BRANCH   1   7
ATOM      3  C   UNL     1       4.825   1.756  -0.011  0.00  0.00    +0.122 A 
ATOM      4  C   UNL     1       5.027   0.382  -0.025  0.00  0.00    +0.046 A 
ATOM      5  C   UNL     1       6.309  -0.134  -0.048  0.00  0.00    +0.004 A 
ATOM      6  C   UNL     1       7.399   0.712  -0.056  0.00  0.00    +0.010 A 
ATOM      7  C   UNL     1       7.207   2.097  -0.042  0.00  0.00    -0.002 A 
ATOM      8  C   UNL     1       5.908   2.617  -0.024  0.00  0.00    +0.055 A 
BRANCH   3   9
ATOM      9  O   UNL     1       3.561   2.257   0.011  0.00  0.00    -0.487 OA
BRANCH   9  10
ATOM     10  C   UNL     1       2.489   1.312   0.018  0.00  0.00    +0.267 C 
BRANCH  10  15
ATOM     11  C   UNL     1      -0.055   4.100   0.076  0.00  0.00    +0.001 A 
ATOM     12  C   UNL     1      -1.243   3.392   0.086  0.00  0.00    +0.003 A 
ATOM     13  C   UNL     1      -1.224   2.010   0.069  0.00  0.00    +0.039 A 
ATOM     14  C   UNL     1      -0.015   1.335   0.053  0.00  0.00    +0.130 A 
ATOM     15  C   UNL     1       1.173   2.045   0.042  0.00  0.00    +0.025 A 
ATOM     16  C   UNL     1       1.152   3.427   0.054  0.00  0.00    +0.010 A 
ATOM     17  F   UNL     1       0.004  -0.016   0.041  0.00  0.00    -0.205 F 
ENDBRANCH  10  15
ENDBRANCH   9  10
ENDBRANCH   3   9
ENDBRANCH   1   7
BRANCH   2  18
ATOM     18  N   UNL     1      10.593   3.310  -0.080  0.00  0.00    -0.263 N 
ATOM     19  C   UNL     1      11.813   2.819  -0.101  0.00  0.00    +0.143 C 
ATOM     20  N   UNL     1      12.005   1.454  -0.116  0.00  0.00    -0.342 N 
ATOM     21  H   UNL     1      13.026   1.043  -0.134  0.00  0.00    +0.144 HD
ATOM     22  H   UNL     1      11.139   0.776  -0.109  0.00  0.00    +0.144 HD
ATOM     23  H   UNL     1      10.439   4.399  -0.068  0.00  0.00    +0.190 HD
BRANCH  19  24
ATOM     24  C   UNL     1      12.976   3.729  -0.110  0.00  0.00    +0.187 A 
ATOM     25  C   UNL     1      12.996   5.207  -0.209  0.00  0.00    +0.191 A 
ATOM     26  N   UNL     1      14.280   5.478  -0.167  0.00  0.00    -0.033 NA
ATOM     27  O   UNL     1      14.906   4.449  -0.075  0.00  0.00    -0.240 OA
ATOM     28  N   UNL     1      14.257   3.431  -0.038  0.00  0.00    -0.044 NA
ATOM     29  N   UNL     1      11.926   6.086  -0.316  0.00  0.00    -0.339 N 
ATOM     30  H   UNL     1      12.108   7.169  -0.381  0.00  0.00    +0.144 HD
ATOM     31  H   UNL     1      10.897   5.699  -0.337  0.00  0.00    +0.144 HD
ENDBRANCH  19  24
ENDBRANCH   2  18
TORSDOF 6
