REMARK  Name = ZINC01009154
REMARK  6 active torsions:
REMARK  status: ('A' for Active; 'I' for Inactive)
REMARK    1  A    between atoms: C_1  and  C_2
REMARK    2  A    between atoms: C_5  and  C_8
REMARK    3  A    between atoms: C_11  and  C_34
REMARK    4  A    between atoms: C_16  and  C_18
REMARK    5  A    between atoms: N_20  and  C_21
REMARK    6  A    between atoms: C_21  and  C_22
REMARK                            x       y       z     vdW  Elec       q    Type
REMARK                         _______ _______ _______ _____ _____    ______ ____
ROOT
ATOM      1  C   UNL     1      -0.013   1.086   0.008  0.00  0.00    +0.104 C 
ATOM      2  C   UNL     1      -0.733   1.598  -1.244  0.00  0.00    +0.063 C 
ATOM      3  C   UNL     1      -0.818   3.128  -1.209  0.00  0.00    +0.215 C 
ATOM      4  N   UNL     1       0.513   3.670  -0.924  0.00  0.00    -0.238 N 
ATOM      5  C   UNL     1       1.524   2.942  -0.362  0.00  0.00    +0.119 A 
ATOM      6  C   UNL     1       2.603   3.742  -0.245  0.00  0.00    +0.078 A 
ATOM      7  C   UNL     1       2.248   5.013  -0.751  0.00  0.00    +0.149 A 
ATOM      8  N   UNL     1       0.991   4.960  -1.155  0.00  0.00    -0.164 NA
ATOM      9  N   UNL     1       1.371   1.601  -0.002  0.00  0.00    -0.322 N 
ATOM     10  H   UNL     1       2.207   0.937   0.263  0.00  0.00    +0.148 HD
ENDROOT
BRANCH   1  15
ATOM     11  C   UNL     1      -2.747   2.964   4.740  0.00  0.00    +0.044 C 
ATOM     12  C   UNL     1      -2.033   2.474   3.506  0.00  0.00    -0.050 A 
ATOM     13  C   UNL     1      -2.235   1.182   3.058  0.00  0.00    +0.004 A 
ATOM     14  C   UNL     1      -1.581   0.733   1.926  0.00  0.00    +0.006 A 
ATOM     15  C   UNL     1      -0.726   1.575   1.242  0.00  0.00    -0.027 A 
ATOM     16  C   UNL     1      -0.519   2.866   1.693  0.00  0.00    +0.006 A 
ATOM     17  C   UNL     1      -1.177   3.316   2.823  0.00  0.00    +0.004 A 
ENDBRANCH   1  15
BRANCH   7  18
ATOM     18  C   UNL     1       3.130   6.197  -0.816  0.00  0.00    +0.265 C 
ATOM     19  O   UNL     1       4.274   6.126  -0.411  0.00  0.00    -0.268 OA
ATOM     20  N   UNL     1       2.666   7.356  -1.324  0.00  0.00    -0.305 N 
ATOM     21  H   UNL     1       1.630   7.420  -1.690  0.00  0.00    +0.149 HD
BRANCH  20  22
ATOM     22  C   UNL     1       3.540   8.530  -1.389  0.00  0.00    +0.157 C 
BRANCH  22  23
ATOM     23  C   UNL     1       2.785   9.685  -1.993  0.00  0.00    +0.034 A 
ATOM     24  C   UNL     1       2.143  10.636  -1.295  0.00  0.00    +0.032 A 
ATOM     25  C   UNL     1       1.551  11.556  -2.269  0.00  0.00    +0.001 A 
ATOM     26  C   UNL     1       0.781  12.716  -2.165  0.00  0.00    +0.030 A 
ATOM     27  C   UNL     1       0.373  13.364  -3.297  0.00  0.00    +0.042 A 
ATOM     28  C   UNL     1       0.719  12.877  -4.552  0.00  0.00    +0.022 A 
ATOM     29  C   UNL     1       1.478  11.735  -4.677  0.00  0.00    +0.027 A 
ATOM     30  C   UNL     1       1.903  11.059  -3.537  0.00  0.00    +0.047 A 
ATOM     31  N   UNL     1       2.658   9.925  -3.334  0.00  0.00    -0.357 N 
ATOM     32  H   UNL     1       3.130   9.248  -4.061  0.00  0.00    +0.166 HD
ATOM     33 CL   UNL     1      -0.585  14.806  -3.167  0.00  0.00    -0.084 Cl
ENDBRANCH  22  23
ENDBRANCH  20  22
ENDBRANCH   7  18
BRANCH   3  34
ATOM     34  C   UNL     1      -1.303   3.646  -2.564  0.00  0.00    +0.412 C 
ATOM     35  F   UNL     1      -0.412   3.241  -3.564  0.00  0.00    -0.168 F 
ATOM     36  F   UNL     1      -2.574   3.127  -2.834  0.00  0.00    -0.168 F 
ATOM     37  F   UNL     1      -1.366   5.043  -2.534  0.00  0.00    -0.168 F 
ENDBRANCH   3  34
TORSDOF 5
