REMARK  Name = ZINC08940235
REMARK  6 active torsions:
REMARK  status: ('A' for Active; 'I' for Inactive)
REMARK    1  A    between atoms: C_1  and  C_2
REMARK    2  A    between atoms: C_5  and  C_8
REMARK    3  A    between atoms: C_11  and  C_14
REMARK    4  A    between atoms: C_19  and  C_21
REMARK    5  A    between atoms: C_21  and  N_22
REMARK    6  A    between atoms: C_30  and  C_32
REMARK                            x       y       z     vdW  Elec       q    Type
REMARK                         _______ _______ _______ _____ _____    ______ ____
ROOT
ATOM      1  C   UNL     1       1.151   1.931   0.001  0.00  0.00    +0.069 C 
ATOM      2  N   UNL     1      -0.017   1.389   0.010  0.00  0.00    -0.181 NA
ATOM      3  N   UNL     1       0.002  -0.004   0.002  0.00  0.00    -0.181 N 
ATOM      4  C   UNL     1       1.401  -0.461  -0.014  0.00  0.00    +0.173 C 
ATOM      5  C   UNL     1       2.210   0.852  -0.015  0.00  0.00    +0.090 C 
ATOM      6  C   UNL     1      -1.083  -0.803   0.009  0.00  0.00    +0.253 C 
ATOM      7  O   UNL     1      -0.949  -2.009   0.001  0.00  0.00    -0.272 OA
ENDROOT
BRANCH   1  12
ATOM      8  C   UNL     1       2.184   7.589   0.022  0.00  0.00    +0.044 C 
ATOM      9  C   UNL     1       1.913   6.107   0.017  0.00  0.00    -0.050 A 
ATOM     10  C   UNL     1       0.609   5.645   0.028  0.00  0.00    +0.004 A 
ATOM     11  C   UNL     1       0.354   4.289   0.022  0.00  0.00    +0.010 A 
ATOM     12  C   UNL     1       1.416   3.382   0.007  0.00  0.00    -0.002 A 
ATOM     13  C   UNL     1       2.730   3.856   0.002  0.00  0.00    +0.010 A 
ATOM     14  C   UNL     1       2.970   5.214   0.002  0.00  0.00    +0.004 A 
ENDBRANCH   1  12
BRANCH   4  15
ATOM     15  C   UNL     1       1.707  -1.275   1.217  0.00  0.00    +0.128 A 
ATOM     16  C   UNL     1       2.480  -2.376   1.260  0.00  0.00    +0.046 A 
ATOM     17  C   UNL     1       2.493  -2.814   2.603  0.00  0.00    +0.041 A 
ATOM     18  C   UNL     1       1.728  -1.956   3.301  0.00  0.00    +0.195 A 
ATOM     19  O   UNL     1       1.259  -1.023   2.457  0.00  0.00    -0.466 OA
ENDBRANCH   4  15
BRANCH   6  20
ATOM     20  C   UNL     1      -2.464  -0.198   0.025  0.00  0.00    +0.215 C 
BRANCH  20  21
ATOM     21  N   UNL     1      -3.465  -1.268   0.029  0.00  0.00    -0.215 N 
ATOM     22  C   UNL     1      -3.998  -1.812  -1.084  0.00  0.00    +0.247 C 
ATOM     23  O   UNL     1      -3.750  -1.521  -2.235  0.00  0.00    -0.273 OA
ATOM     24  C   UNL     1      -4.968  -2.863  -0.596  0.00  0.00    +0.115 C 
ATOM     25  C   UNL     1      -4.551  -4.247  -1.083  0.00  0.00    +0.035 C 
ATOM     26  C   UNL     1      -4.626  -4.297  -2.611  0.00  0.00    +0.003 C 
ATOM     27  C   UNL     1      -6.056  -3.988  -3.061  0.00  0.00    +0.000 C 
ATOM     28  C   UNL     1      -6.450  -2.588  -2.586  0.00  0.00    +0.006 C 
ATOM     29  C   UNL     1      -6.383  -2.531  -1.058  0.00  0.00    +0.018 C 
ATOM     30  C   UNL     1      -6.757  -1.126  -0.583  0.00  0.00    +0.010 C 
ATOM     31  N   UNL     1      -4.873  -2.783   0.868  0.00  0.00    -0.285 N 
ATOM     32  C   UNL     1      -3.969  -1.822   1.139  0.00  0.00    +0.310 C 
ATOM     33  O   UNL     1      -3.647  -1.495   2.264  0.00  0.00    -0.252 OA
ATOM     34  H   UNL     1      -5.364  -3.317   1.512  0.00  0.00    +0.151 HD
ENDBRANCH  20  21
ENDBRANCH   6  20
TORSDOF 4
