REMARK  Name = ZINC67239782
REMARK  5 active torsions:
REMARK  status: ('A' for Active; 'I' for Inactive)
REMARK    1  A    between atoms: C_5  and  N_7
REMARK    2  A    between atoms: C_10  and  C_12
REMARK    3  A    between atoms: N_14  and  C_15
REMARK    4  A    between atoms: C_18  and  C_21
REMARK    5  A    between atoms: C_21  and  N_22
REMARK                            x       y       z     vdW  Elec       q    Type
REMARK                         _______ _______ _______ _____ _____    ______ ____
ROOT
ATOM      1  C   UNL     1       2.922  -5.220  -0.050  0.00  0.00    +0.269 C 
ATOM      2  O   UNL     1       2.497  -6.359  -0.046  0.00  0.00    -0.268 OA
ATOM      3  N   UNL     1       4.251  -4.997  -0.058  0.00  0.00    -0.280 N 
ATOM      4  H   UNL     1       4.590  -4.091  -0.129  0.00  0.00    +0.155 HD
ENDROOT
BRANCH   1   8
ATOM      5  N   UNL     1       1.236  -2.082  -0.044  0.00  0.00    -0.233 N 
ATOM      6  C   UNL     1       0.134  -2.879  -0.037  0.00  0.00    +0.049 A 
ATOM      7  C   UNL     1       0.570  -4.157  -0.037  0.00  0.00    +0.006 A 
ATOM      8  C   UNL     1       1.982  -4.082  -0.046  0.00  0.00    +0.151 A 
ATOM      9  N   UNL     1       2.300  -2.801  -0.054  0.00  0.00    -0.161 NA
ATOM     10  C   UNL     1      -0.597  -5.114  -0.028  0.00  0.00    +0.040 C 
ATOM     11  C   UNL     1      -1.809  -4.262   0.408  0.00  0.00    +0.011 C 
ATOM     12  C   UNL     1      -1.378  -2.844  -0.029  0.00  0.00    +0.056 C 
BRANCH   5  17
ATOM     13  C   UNL     1      -0.016   1.378  -0.038  0.00  0.00    +0.002 A 
ATOM     14  C   UNL     1       1.171   2.088  -0.051  0.00  0.00    +0.003 A 
ATOM     15  C   UNL     1       2.380   1.418  -0.062  0.00  0.00    +0.040 A 
ATOM     16  C   UNL     1       2.407   0.035  -0.060  0.00  0.00    +0.149 A 
ATOM     17  C   UNL     1       1.214  -0.680  -0.046  0.00  0.00    +0.101 A 
ATOM     18  C   UNL     1       0.003  -0.003  -0.035  0.00  0.00    +0.031 A 
ATOM     19  F   UNL     1       3.588  -0.619  -0.071  0.00  0.00    -0.203 F 
ENDBRANCH   5  17
ENDBRANCH   1   8
BRANCH   3  20
ATOM     20  C   UNL     1       5.141  -6.071   0.035  0.00  0.00    +0.034 A 
ATOM     21  C   UNL     1       6.335  -5.927   0.731  0.00  0.00    +0.023 A 
ATOM     22  C   UNL     1       7.212  -6.990   0.821  0.00  0.00    +0.007 A 
ATOM     23  C   UNL     1       6.903  -8.197   0.221  0.00  0.00    -0.030 A 
ATOM     24  C   UNL     1       5.715  -8.343  -0.473  0.00  0.00    +0.007 A 
ATOM     25  C   UNL     1       4.831  -7.286  -0.562  0.00  0.00    +0.023 A 
BRANCH  23  26
ATOM     26  C   UNL     1       7.862  -9.355   0.322  0.00  0.00    +0.141 C 
BRANCH  26  27
ATOM     27  N   UNL     1       7.548 -10.147   1.513  0.00  0.00    -0.295 N 
ATOM     28  C   UNL     1       8.280 -11.239   1.809  0.00  0.00    +0.297 C 
ATOM     29  O   UNL     1       9.201 -11.567   1.086  0.00  0.00    -0.253 OA
ATOM     30  N   UNL     1       7.991 -11.968   2.905  0.00  0.00    -0.313 N 
ATOM     31  H   UNL     1       6.813  -9.885   2.090  0.00  0.00    +0.151 HD
ATOM     32  H   UNL     1       7.257 -11.706   3.482  0.00  0.00    +0.146 HD
ATOM     33  H   UNL     1       8.518 -12.754   3.118  0.00  0.00    +0.146 HD
ENDBRANCH  26  27
ENDBRANCH  23  26
ENDBRANCH   3  20
TORSDOF 5
