REMARK  Name = ZINC40344684
REMARK  10 active torsions:
REMARK  status: ('A' for Active; 'I' for Inactive)
REMARK    1  A    between atoms: C_1  and  C_2
REMARK    2  A    between atoms: C_2  and  O_3
REMARK    3  A    between atoms: O_3  and  C_4
REMARK    4  A    between atoms: C_6  and  C_11
REMARK    5  A    between atoms: C_9  and  O_10
REMARK    6  A    between atoms: C_14  and  C_30
REMARK    7  A    between atoms: N_21  and  C_22
REMARK    8  A    between atoms: C_22  and  C_23
REMARK    9  A    between atoms: C_33  and  O_36
REMARK   10  A    between atoms: O_36  and  C_37
REMARK                            x       y       z     vdW  Elec       q    Type
REMARK                         _______ _______ _______ _____ _____    ______ ____
ROOT
ATOM      1  C   UNL     1       0.654  -4.954  -0.018  0.00  0.00    +0.142 C 
ATOM      2  C   UNL     1       0.915  -5.485   1.365  0.00  0.00    +0.035 A 
ATOM      3  C   UNL     1       1.217  -5.198   2.700  0.00  0.00    +0.099 A 
ATOM      4  N   UNL     1       1.283  -6.346   3.345  0.00  0.00    -0.173 NA
ATOM      5  N   UNL     1       1.052  -7.329   2.549  0.00  0.00    -0.272 N 
ATOM      6  H   UNL     1       1.049  -8.265   2.805  0.00  0.00    +0.189 HD
ATOM      7  C   UNL     1       0.813  -6.861   1.288  0.00  0.00    +0.126 A 
ATOM      8  C   UNL     1       0.496  -7.229  -0.096  0.00  0.00    +0.266 C 
ATOM      9  O   UNL     1       0.340  -8.368  -0.493  0.00  0.00    -0.268 OA
ATOM     10  N   UNL     1       0.402  -6.127  -0.865  0.00  0.00    -0.281 N 
ENDROOT
BRANCH   1  13
ATOM     11  C   UNL     1      -1.498  -1.849   0.006  0.00  0.00    +0.162 A 
ATOM     12  C   UNL     1      -0.389  -2.680  -0.003  0.00  0.00    +0.055 A 
ATOM     13  C   UNL     1      -0.553  -4.052  -0.008  0.00  0.00    -0.019 A 
ATOM     14  C   UNL     1      -1.823  -4.600  -0.005  0.00  0.00    +0.009 A 
ATOM     15  C   UNL     1      -2.934  -3.777   0.004  0.00  0.00    +0.049 A 
ATOM     16  C   UNL     1      -2.776  -2.400   0.016  0.00  0.00    +0.158 A 
BRANCH  16  17
ATOM     17  O   UNL     1      -3.868  -1.589   0.030  0.00  0.00    -0.503 OA
ATOM     18  H   UNL     1      -4.192  -1.350  -0.849  0.00  0.00    +0.292 HD
ENDBRANCH  16  17
BRANCH  11  19
ATOM     19  O   UNL     1      -1.339  -0.499   0.012  0.00  0.00    -0.489 OA
BRANCH  19  21
ATOM     20  C   UNL     1      -0.019   1.526   0.010  0.00  0.00    +0.048 C 
ATOM     21  C   UNL     1       0.002  -0.004   0.002  0.00  0.00    +0.226 C 
ENDBRANCH  19  21
ENDBRANCH  11  19
ENDBRANCH   1  13
BRANCH   3  22
ATOM     22  C   UNL     1       1.426  -3.850   3.284  0.00  0.00    +0.003 A 
ATOM     23  C   UNL     1       2.032  -2.848   2.528  0.00  0.00    +0.013 A 
ATOM     24  C   UNL     1       2.225  -1.596   3.073  0.00  0.00    +0.046 A 
ATOM     25  C   UNL     1       1.816  -1.333   4.373  0.00  0.00    +0.120 A 
ATOM     26  C   UNL     1       1.212  -2.329   5.129  0.00  0.00    +0.046 A 
ATOM     27  C   UNL     1       1.012  -3.581   4.587  0.00  0.00    +0.013 A 
BRANCH  25  28
ATOM     28  O   UNL     1       2.007  -0.098   4.908  0.00  0.00    -0.495 OA
ATOM     29  C   UNL     1       1.563   0.103   6.251  0.00  0.00    +0.277 C 
ENDBRANCH  25  28
ENDBRANCH   3  22
BRANCH  10  30
ATOM     30  C   UNL     1       0.099  -6.103  -2.298  0.00  0.00    +0.144 C 
BRANCH  30  31
ATOM     31  C   UNL     1       1.382  -6.180  -3.084  0.00  0.00    -0.030 A 
ATOM     32  C   UNL     1       2.049  -5.021  -3.434  0.00  0.00    +0.006 A 
ATOM     33  C   UNL     1       3.226  -5.091  -4.155  0.00  0.00    +0.020 A 
ATOM     34  C   UNL     1       3.737  -6.322  -4.526  0.00  0.00    +0.041 A 
ATOM     35  C   UNL     1       3.070  -7.482  -4.175  0.00  0.00    +0.020 A 
ATOM     36  C   UNL     1       1.896  -7.410  -3.449  0.00  0.00    +0.006 A 
ATOM     37 CL   UNL     1       5.215  -6.411  -5.432  0.00  0.00    -0.084 Cl
ENDBRANCH  30  31
ENDBRANCH  10  30
TORSDOF 8
