REMARK  Name = ZINC24782168
REMARK  9 active torsions:
REMARK  status: ('A' for Active; 'I' for Inactive)
REMARK    1  A    between atoms: C_1  and  C_2
REMARK    2  A    between atoms: C_3  and  C_29
REMARK    3  A    between atoms: N_4  and  C_23
REMARK    4  A    between atoms: C_5  and  N_9
REMARK    5  A    between atoms: C_6  and  C_7
REMARK    6  A    between atoms: C_10  and  C_12
REMARK    7  A    between atoms: C_12  and  N_13
REMARK    8  A    between atoms: C_16  and  C_19
REMARK    9  A    between atoms: N_21  and  C_22
REMARK                            x       y       z     vdW  Elec       q    Type
REMARK                         _______ _______ _______ _____ _____    ______ ____
ROOT
ATOM      1  N   UNL     1      -1.797  -7.987   1.601  0.00  0.00    -0.272 N 
ATOM      2  C   UNL     1      -0.870  -8.674   0.903  0.00  0.00    +0.202 C 
ATOM      3  O   UNL     1      -1.190  -9.662   0.277  0.00  0.00    -0.278 OA
ATOM      4  H   UNL     1      -1.510  -7.081   2.153  0.00  0.00    +0.156 HD
ENDROOT
BRANCH   1   9
ATOM      5  C   UNL     1      -5.937 -10.874   1.861  0.00  0.00    +0.047 C 
ATOM      6  C   UNL     1      -5.002  -9.699   1.736  0.00  0.00    -0.011 A 
ATOM      7  C   UNL     1      -5.348  -8.413   1.563  0.00  0.00    +0.022 A 
ATOM      8  N   UNL     1      -4.217  -7.644   1.500  0.00  0.00    -0.329 N 
ATOM      9  C   UNL     1      -3.113  -8.425   1.622  0.00  0.00    +0.123 A 
ATOM     10  C   UNL     1      -3.535  -9.738   1.779  0.00  0.00    +0.095 A 
ATOM     11  C   UNL     1      -6.760  -7.896   1.461  0.00  0.00    +0.064 C 
BRANCH   8  12
ATOM     12  C   UNL     1      -4.200  -6.190   1.322  0.00  0.00    +0.089 C 
ATOM     13  C   UNL     1      -3.325  -5.833   0.119  0.00  0.00    +0.025 C 
ATOM     14  C   UNL     1      -3.308  -4.314  -0.067  0.00  0.00    +0.002 C 
ATOM     15  C   UNL     1      -2.739  -3.654   1.191  0.00  0.00    +0.000 C 
ATOM     16  C   UNL     1      -3.614  -4.010   2.394  0.00  0.00    +0.002 C 
ATOM     17  C   UNL     1      -3.632  -5.529   2.579  0.00  0.00    +0.025 C 
ENDBRANCH   8  12
BRANCH  10  18
ATOM     18  C   UNL     1      -2.708 -10.895   1.947  0.00  0.00    +0.103 C 
ATOM     19  N   UNL     1      -2.052 -11.813   2.080  0.00  0.00    -0.191 NA
ENDBRANCH  10  18
ENDBRANCH   1   9
BRANCH   2  20
ATOM     20  C   UNL     1       0.565  -8.213   0.901  0.00  0.00    +0.019 C 
BRANCH  20  21
ATOM     21  N   UNL     1       1.401  -9.217   0.230  0.00  0.00    +0.385 N 
ATOM     22  C   UNL     1       2.814  -8.817   0.238  0.00  0.00    -0.077 C 
ATOM     23  C   UNL     1       3.631  -9.809  -0.592  0.00  0.00    -0.006 C 
ATOM     24  C   UNL     1       3.475 -11.213  -0.001  0.00  0.00    +0.071 C 
ATOM     25  C   UNL     1       1.991 -11.586   0.024  0.00  0.00    -0.006 C 
ATOM     26  C   UNL     1       1.221 -10.543   0.836  0.00  0.00    -0.077 C 
ATOM     27  H   UNL     1       1.077  -9.282  -0.820  0.00  0.00    -0.081 HD
BRANCH  24  28
ATOM     28  C   UNL     1       4.230 -12.204  -0.849  0.00  0.00    +0.216 C 
ATOM     29  O   UNL     1       4.833 -11.826  -1.831  0.00  0.00    -0.276 OA
ATOM     30  N   UNL     1       4.234 -13.510  -0.517  0.00  0.00    -0.318 N 
ATOM     31  C   UNL     1       4.967 -14.473  -1.342  0.00  0.00    +0.128 C 
ATOM     32  H   UNL     1       3.687 -13.853   0.374  0.00  0.00    +0.148 HD
ENDBRANCH  24  28
ENDBRANCH  20  21
ENDBRANCH   2  20
TORSDOF 6
