REMARK  Name = ZINC62242544
REMARK  10 active torsions:
REMARK  status: ('A' for Active; 'I' for Inactive)
REMARK    1  A    between atoms: C_1  and  C_2
REMARK    2  A    between atoms: C_2  and  C_3
REMARK    3  A    between atoms: C_2  and  N_14
REMARK    4  A    between atoms: N_5  and  C_6
REMARK    5  A    between atoms: C_6  and  C_12
REMARK    6  A    between atoms: N_14  and  C_15
REMARK    7  A    between atoms: C_15  and  C_16
REMARK    8  A    between atoms: C_16  and  C_22
REMARK    9  A    between atoms: C_25  and  O_28
REMARK   10  A    between atoms: O_28  and  C_29
REMARK                            x       y       z     vdW  Elec       q    Type
REMARK                         _______ _______ _______ _____ _____    ______ ____
ROOT
ATOM      1  N   UNL     1       0.505  -0.239  -1.771  0.00  0.00    +0.387 N 
ATOM      2  H   UNL     1       0.339  -1.221  -1.931  0.00  0.00    -0.085 HD
ATOM      3  H   UNL     1       0.347   0.273  -2.626  0.00  0.00    -0.085 HD
ENDROOT
BRANCH   1   5
ATOM      4  C   UNL     1      -0.245   1.762  -0.575  0.00  0.00    -0.004 C 
ATOM      5  C   UNL     1      -0.410   0.249  -0.731  0.00  0.00    +0.013 C 
BRANCH   5   6
ATOM      6  C   UNL     1      -1.831  -0.064  -1.125  0.00  0.00    +0.200 C 
ATOM      7  O   UNL     1      -2.058  -0.636  -2.170  0.00  0.00    -0.278 OA
ATOM      8  N   UNL     1      -2.849   0.293  -0.317  0.00  0.00    -0.299 N 
ATOM      9  H   UNL     1      -2.667   0.751   0.519  0.00  0.00    +0.150 HD
BRANCH   8  10
ATOM     10  C   UNL     1      -4.229  -0.011  -0.700  0.00  0.00    +0.121 C 
ATOM     11  C   UNL     1      -4.394  -1.524  -0.856  0.00  0.00    +0.041 C 
ATOM     12  C   UNL     1      -5.837  -1.841  -1.257  0.00  0.00    +0.003 C 
ATOM     13  C   UNL     1      -6.790  -1.333  -0.173  0.00  0.00    +0.000 C 
ATOM     14  C   UNL     1      -6.625   0.180  -0.018  0.00  0.00    +0.003 C 
ATOM     15  C   UNL     1      -5.183   0.497   0.383  0.00  0.00    +0.041 C 
BRANCH  10  16
ATOM     16  C   UNL     1      -4.541   0.651  -1.978  0.00  0.00    +0.088 C 
ATOM     17  N   UNL     1      -4.781   1.162  -2.964  0.00  0.00    -0.194 NA
ENDBRANCH  10  16
ENDBRANCH   8  10
ENDBRANCH   5   6
ENDBRANCH   1   5
BRANCH   1  18
ATOM     18  C   UNL     1       1.893  -0.043  -1.332  0.00  0.00    -0.070 C 
BRANCH  18  19
ATOM     19  C   UNL     1       2.845  -0.669  -2.354  0.00  0.00    -0.015 C 
ATOM     20  C   UNL     1       4.292  -0.337  -1.978  0.00  0.00    +0.038 C 
ATOM     21  C   UNL     1       4.493   1.180  -2.042  0.00  0.00    +0.160 C 
ATOM     22  O   UNL     1       4.170   1.647  -3.354  0.00  0.00    -0.380 OA
ATOM     23  C   UNL     1       2.815   1.406  -3.741  0.00  0.00    +0.160 C 
ATOM     24  C   UNL     1       2.547  -0.101  -3.746  0.00  0.00    +0.038 C 
BRANCH  19  25
ATOM     25  C   UNL     1       2.656  -2.164  -2.369  0.00  0.00    -0.043 A 
ATOM     26  C   UNL     1       1.810  -2.761  -1.453  0.00  0.00    +0.008 A 
ATOM     27  C   UNL     1       1.636  -4.132  -1.463  0.00  0.00    +0.046 A 
ATOM     28  C   UNL     1       2.309  -4.908  -2.395  0.00  0.00    +0.120 A 
ATOM     29  C   UNL     1       3.157  -4.306  -3.314  0.00  0.00    +0.046 A 
ATOM     30  C   UNL     1       3.324  -2.935  -3.302  0.00  0.00    +0.008 A 
BRANCH  28  31
ATOM     31  O   UNL     1       2.140  -6.256  -2.408  0.00  0.00    -0.495 OA
ATOM     32  C   UNL     1       2.865  -6.993  -3.394  0.00  0.00    +0.277 C 
ENDBRANCH  28  31
ENDBRANCH  19  25
ENDBRANCH  18  19
ENDBRANCH   1  18
TORSDOF 8
