REMARK  Name = ZINC39041094
REMARK  7 active torsions:
REMARK  status: ('A' for Active; 'I' for Inactive)
REMARK    1  A    between atoms: C_1  and  S_2
REMARK    2  A    between atoms: S_2  and  C_3
REMARK    3  A    between atoms: C_3  and  C_4
REMARK    4  A    between atoms: C_4  and  C_5
REMARK    5  A    between atoms: C_5  and  C_7
REMARK    6  A    between atoms: C_5  and  N_24
REMARK    7  A    between atoms: C_25  and  C_27
REMARK                            x       y       z     vdW  Elec       q    Type
REMARK                         _______ _______ _______ _____ _____    ______ ____
ROOT
ATOM      1  C   UNL     1       1.877  -3.823   3.058  0.00  0.00    +0.236 C 
ATOM      2  O   UNL     1       1.327  -4.388   3.979  0.00  0.00    -0.274 OA
ATOM      3  N   UNL     1       2.595  -4.533   2.165  0.00  0.00    -0.300 N 
ATOM      4  C   UNL     1       3.360  -3.855   1.109  0.00  0.00    +0.106 C 
ATOM      5  C   UNL     1       4.813  -4.336   1.167  0.00  0.00    +0.009 C 
ATOM      6  C   UNL     1       4.845  -5.863   1.086  0.00  0.00    -0.037 C 
ATOM      7  C   UNL     1       4.089  -6.460   2.274  0.00  0.00    +0.009 C 
ATOM      8  C   UNL     1       2.633  -6.001   2.232  0.00  0.00    +0.106 C 
ATOM      9  C   UNL     1       6.295  -6.349   1.102  0.00  0.00    +0.140 C 
ATOM     10  C   UNL     1       6.228  -7.857   0.877  0.00  0.00    +0.042 C 
ATOM     11  N   UNL     1       6.838  -8.389   1.864  0.00  0.00    -0.243 NA
ATOM     12  C   UNL     1       7.227  -7.460   2.772  0.00  0.00    +0.216 C 
ATOM     13  N   UNL     1       6.926  -6.229   2.417  0.00  0.00    -0.264 NA
ATOM     14  C   UNL     1       5.440  -8.448  -0.264  0.00  0.00    +0.034 C 
ATOM     15  C   UNL     1       4.062  -7.759  -0.228  0.00  0.00    -0.076 C 
ATOM     16  N   UNL     1       4.220  -6.304  -0.169  0.00  0.00    +0.385 N 
ATOM     17  H   UNL     1       3.312  -5.873  -0.252  0.00  0.00    -0.085 HD
ATOM     18  H   UNL     1       4.795  -6.006  -0.943  0.00  0.00    -0.085 HD
ENDROOT
BRANCH   1  19
ATOM     19  C   UNL     1       1.759  -2.328   2.911  0.00  0.00    +0.160 C 
BRANCH  19  20
ATOM     20  N   UNL     1       1.432  -1.734   4.209  0.00  0.00    -0.300 N 
ATOM     21  C   UNL     1       1.758  -0.452   4.465  0.00  0.00    +0.245 C 
ATOM     22  O   UNL     1       2.322   0.212   3.618  0.00  0.00    -0.270 OA
ATOM     23  H   UNL     1       0.981  -2.264   4.885  0.00  0.00    +0.150 HD
BRANCH  21  24
ATOM     24  C   UNL     1       1.428   0.148   5.775  0.00  0.00    +0.037 A 
ATOM     25  C   UNL     1       0.785  -0.614   6.752  0.00  0.00    +0.014 A 
ATOM     26  C   UNL     1       0.480  -0.050   7.973  0.00  0.00    +0.021 A 
ATOM     27  C   UNL     1       0.811   1.270   8.230  0.00  0.00    +0.041 A 
ATOM     28  C   UNL     1       1.449   2.031   7.265  0.00  0.00    +0.021 A 
ATOM     29  C   UNL     1       1.764   1.476   6.042  0.00  0.00    +0.014 A 
ATOM     30 CL   UNL     1       0.423   1.974   9.769  0.00  0.00    -0.084 Cl
ENDBRANCH  21  24
ENDBRANCH  19  20
BRANCH  19  31
ATOM     31  C   UNL     1       0.651  -2.001   1.907  0.00  0.00    +0.042 C 
BRANCH  31  32
ATOM     32  C   UNL     1       0.632  -0.494   1.643  0.00  0.00    +0.071 C 
BRANCH  32  34
ATOM     33  C   UNL     1      -0.572   1.694   0.251  0.00  0.00    +0.084 C 
ATOM     34  S   UNL     1      -0.681  -0.106   0.453  0.00  0.00    -0.164 S 
ENDBRANCH  32  34
ENDBRANCH  31  32
ENDBRANCH  19  31
ENDBRANCH   1  19
TORSDOF 6
