REMARK  Name = ZINC63446275
REMARK  8 active torsions:
REMARK  status: ('A' for Active; 'I' for Inactive)
REMARK    1  A    between atoms: C_1  and  O_2
REMARK    2  A    between atoms: O_2  and  C_3
REMARK    3  A    between atoms: C_7  and  C_9
REMARK    4  A    between atoms: C_13  and  S_22
REMARK    5  A    between atoms: N_15  and  C_16
REMARK    6  A    between atoms: C_16  and  C_17
REMARK    7  A    between atoms: S_22  and  C_23
REMARK    8  A    between atoms: C_23  and  C_24
REMARK                            x       y       z     vdW  Elec       q    Type
REMARK                         _______ _______ _______ _____ _____    ______ ____
ROOT
ATOM      1  C   UNL     1       1.359  -3.893  -2.423  0.00  0.00    +0.172 C 
ATOM      2  N   UNL     1       0.235  -4.539  -1.695  0.00  0.00    -0.233 NA
ATOM      3  N   UNL     1       0.225  -5.904  -2.244  0.00  0.00    -0.229 NA
ATOM      4  C   UNL     1       0.543  -5.728  -3.679  0.00  0.00    +0.200 C 
ATOM      5  N   UNL     1       1.272  -4.445  -3.795  0.00  0.00    -0.250 NA
ATOM      6  H   UNL     1       0.408  -4.550  -0.701  0.00  0.00    +0.143 HD
ATOM      7  H   UNL     1      -0.680  -6.335  -2.124  0.00  0.00    +0.143 HD
ENDROOT
BRANCH   1  12
ATOM      8  C   UNL     1       0.423  -0.379  -1.396  0.00  0.00    +0.120 A 
ATOM      9  C   UNL     1       0.860   0.353  -2.491  0.00  0.00    +0.045 A 
ATOM     10  C   UNL     1       1.455  -0.292  -3.558  0.00  0.00    +0.004 A 
ATOM     11  C   UNL     1       1.616  -1.665  -3.534  0.00  0.00    +0.007 A 
ATOM     12  C   UNL     1       1.182  -2.396  -2.445  0.00  0.00    -0.011 A 
ATOM     13  C   UNL     1       0.591  -1.756  -1.373  0.00  0.00    +0.052 A 
BRANCH   8  15
ATOM     14  C   UNL     1      -0.302   1.672  -0.437  0.00  0.00    +0.277 C 
ATOM     15  O   UNL     1      -0.163   0.253  -0.345  0.00  0.00    -0.495 OA
ENDBRANCH   8  15
ENDBRANCH   1  12
BRANCH   5  16
ATOM     16  C   UNL     1       2.610  -4.645  -4.367  0.00  0.00    +0.163 C 
BRANCH  16  17
ATOM     17  C   UNL     1       2.499  -4.793  -5.863  0.00  0.00    +0.119 A 
ATOM     18  C   UNL     1       2.559  -3.791  -6.759  0.00  0.00    +0.046 A 
ATOM     19  C   UNL     1       2.412  -4.376  -8.037  0.00  0.00    +0.041 A 
ATOM     20  C   UNL     1       2.270  -5.700  -7.846  0.00  0.00    +0.195 A 
ATOM     21  O   UNL     1       2.330  -5.947  -6.528  0.00  0.00    -0.467 OA
ENDBRANCH  16  17
ENDBRANCH   5  16
BRANCH   4  22
ATOM     22  S   UNL     1       1.593  -7.091  -4.254  0.00  0.00    -0.121 S 
BRANCH  22  23
ATOM     23  C   UNL     1       0.452  -8.493  -4.398  0.00  0.00    +0.118 C 
BRANCH  23  24
ATOM     24  C   UNL     1       1.238  -9.756  -4.758  0.00  0.00    +0.184 C 
ATOM     25  N   UNL     1       2.279 -10.005  -3.752  0.00  0.00    -0.363 N 
ATOM     26  C   UNL     1       3.428  -9.968  -4.362  0.00  0.00    +0.060 A 
ATOM     27  C   UNL     1       4.811 -10.142  -3.898  0.00  0.00    +0.027 A 
ATOM     28  C   UNL     1       5.826 -10.046  -4.781  0.00  0.00    +0.002 A 
ATOM     29  C   UNL     1       5.620  -9.785  -6.147  0.00  0.00    +0.002 A 
ATOM     30  C   UNL     1       4.393  -9.609  -6.677  0.00  0.00    +0.027 A 
ATOM     31  C   UNL     1       3.210  -9.692  -5.809  0.00  0.00    +0.060 A 
ATOM     32  N   UNL     1       1.935  -9.568  -6.037  0.00  0.00    -0.363 N 
ATOM     33  H   UNL     1       2.136 -10.168  -2.807  0.00  0.00    +0.162 HD
ATOM     34  H   UNL     1       1.520  -9.386  -6.894  0.00  0.00    +0.162 HD
ENDBRANCH  23  24
ENDBRANCH  22  23
ENDBRANCH   4  22
TORSDOF 7
