REMARK  Name = ZINC39491703
REMARK  14 active torsions:
REMARK  status: ('A' for Active; 'I' for Inactive)
REMARK    1  A    between atoms: C_1  and  C_2
REMARK    2  A    between atoms: C_2  and  C_3
REMARK    3  A    between atoms: C_2  and  C_4
REMARK    4  A    between atoms: C_4  and  N_5
REMARK    5  A    between atoms: N_5  and  C_6
REMARK    6  A    between atoms: C_6  and  C_7
REMARK    7  A    between atoms: N_9  and  C_20
REMARK    8  A    between atoms: C_13  and  C_16
REMARK    9  A    between atoms: C_16  and  O_18
REMARK   10  A    between atoms: O_18  and  C_19
REMARK   11  A    between atoms: C_20  and  C_21
REMARK   12  A    between atoms: C_21  and  C_23
REMARK   13  A    between atoms: C_21  and  S_29
REMARK   14  A    between atoms: S_29  and  C_32
REMARK                            x       y       z     vdW  Elec       q    Type
REMARK                         _______ _______ _______ _____ _____    ______ ____
ROOT
ATOM      1  C   UNL     1      -0.072  -0.244   4.874  0.00  0.00    -0.039 A 
ATOM      2  C   UNL     1       0.183   0.793   5.686  0.00  0.00    +0.088 A 
ATOM      3  N   UNL     1      -0.730   0.823   6.706  0.00  0.00    -0.344 N 
ATOM      4  C   UNL     1      -1.616  -0.219   6.574  0.00  0.00    +0.049 A 
ATOM      5  C   UNL     1      -1.247  -0.932   5.416  0.00  0.00    +0.002 A 
ATOM      6  C   UNL     1      -1.979  -2.050   5.024  0.00  0.00    +0.025 A 
ATOM      7  C   UNL     1      -3.075  -2.450   5.785  0.00  0.00    +0.060 A 
ATOM      8  C   UNL     1      -3.433  -1.730   6.933  0.00  0.00    +0.017 A 
ATOM      9  C   UNL     1      -2.713  -0.640   7.323  0.00  0.00    +0.027 A 
ENDROOT
BRANCH   7  10
ATOM     10  C   UNL     1      -3.860  -3.632   5.381  0.00  0.00    +0.339 C 
ATOM     11  O   UNL     1      -3.550  -4.256   4.386  0.00  0.00    -0.245 OA
BRANCH  10  12
ATOM     12  O   UNL     1      -4.920  -4.020   6.117  0.00  0.00    -0.464 OA
ATOM     13  C   UNL     1      -5.634  -5.173   5.667  0.00  0.00    +0.280 C 
ENDBRANCH  10  12
ENDBRANCH   7  10
BRANCH   1  14
ATOM     14  C   UNL     1       0.700  -0.626   3.637  0.00  0.00    -0.045 C 
BRANCH  14  15
ATOM     15  N   UNL     1      -0.010  -0.139   2.447  0.00  0.00    +0.382 N 
ATOM     16  H   UNL     1      -0.096   0.865   2.494  0.00  0.00    -0.085 HD
ATOM     17  H   UNL     1      -0.929  -0.554   2.411  0.00  0.00    -0.085 HD
BRANCH  15  18
ATOM     18  C   UNL     1       0.742  -0.511   1.242  0.00  0.00    -0.079 C 
BRANCH  18  20
ATOM     19  C   UNL     1      -0.019   1.526   0.010  0.00  0.00    +0.005 C 
ATOM     20  C   UNL     1       0.002  -0.004   0.002  0.00  0.00    -0.034 C 
ATOM     21  C   UNL     1       0.718  -0.497  -1.257  0.00  0.00    +0.005 C 
ENDBRANCH  18  20
ENDBRANCH  15  18
ENDBRANCH  14  15
ENDBRANCH   1  14
BRANCH   3  22
ATOM     22  C   UNL     1      -0.757   1.818   7.781  0.00  0.00    +0.153 C 
BRANCH  22  23
ATOM     23  C   UNL     1      -0.006   1.275   8.998  0.00  0.00    +0.185 C 
BRANCH  23  24
ATOM     24  C   UNL     1       0.072   2.343  10.058  0.00  0.00    -0.021 A 
ATOM     25  C   UNL     1      -1.087   2.871  10.595  0.00  0.00    +0.005 A 
ATOM     26  C   UNL     1      -1.015   3.851  11.567  0.00  0.00    +0.000 A 
ATOM     27  C   UNL     1       0.216   4.303  12.003  0.00  0.00    +0.000 A 
ATOM     28  C   UNL     1       1.376   3.775  11.467  0.00  0.00    +0.000 A 
ATOM     29  C   UNL     1       1.304   2.792  10.498  0.00  0.00    +0.005 A 
ENDBRANCH  23  24
BRANCH  23  30
ATOM     30  S   UNL     1      -0.886  -0.167   9.658  0.00  0.00    +0.005 S 
ATOM     31  O   UNL     1      -2.180   0.212  10.106  0.00  0.00    -0.169 OA
ATOM     32  O   UNL     1      -0.718  -1.282   8.792  0.00  0.00    -0.169 OA
BRANCH  30  33
ATOM     33  C   UNL     1      -0.011  -0.601  11.125  0.00  0.00    +0.089 A 
ATOM     34  C   UNL     1       1.045  -1.490  11.062  0.00  0.00    +0.027 A 
ATOM     35  C   UNL     1       1.731  -1.830  12.213  0.00  0.00    +0.002 A 
ATOM     36  C   UNL     1       1.362  -1.280  13.426  0.00  0.00    +0.000 A 
ATOM     37  C   UNL     1       0.306  -0.389  13.488  0.00  0.00    +0.002 A 
ATOM     38  C   UNL     1      -0.377  -0.046  12.337  0.00  0.00    +0.027 A 
ENDBRANCH  30  33
ENDBRANCH  23  30
ENDBRANCH  22  23
ENDBRANCH   3  22
TORSDOF 11
