REMARK  Name = ZINC23267882
REMARK  6 active torsions:
REMARK  status: ('A' for Active; 'I' for Inactive)
REMARK    1  A    between atoms: C_10  and  C_13
REMARK    2  A    between atoms: C_13  and  C_14
REMARK    3  A    between atoms: C_14  and  O_16
REMARK    4  A    between atoms: O_16  and  C_17
REMARK    5  A    between atoms: C_17  and  C_18
REMARK    6  A    between atoms: C_21  and  C_23
REMARK                            x       y       z     vdW  Elec       q    Type
REMARK                         _______ _______ _______ _____ _____    ______ ____
ROOT
ATOM      1  C   UNL     1      -3.781   4.185  -2.489  0.00  0.00    +0.312 C 
ATOM      2  O   UNL     1      -4.587   3.887  -1.639  0.00  0.00    -0.251 OA
ENDROOT
BRANCH   1   3
ATOM      3  C   UNL     1      -2.498   4.874  -2.102  0.00  0.00    +0.174 C 
BRANCH   3  13
ATOM      4  C   UNL     1       1.177   1.781   0.000  0.00  0.00    +0.002 A 
ATOM      5  C   UNL     1      -0.013   1.076   0.008  0.00  0.00    +0.004 A 
ATOM      6  C   UNL     1      -1.221   1.748   0.017  0.00  0.00    +0.047 A 
ATOM      7  C   UNL     1      -1.241   3.133   0.030  0.00  0.00    +0.143 A 
ATOM      8  C   UNL     1      -0.042   3.843   0.011  0.00  0.00    +0.076 A 
ATOM      9  C   UNL     1       1.165   3.164   0.002  0.00  0.00    +0.027 A 
ATOM     10  N   UNL     1      -0.072   5.245   0.011  0.00  0.00    -0.280 N 
ATOM     11  C   UNL     1      -1.243   5.878  -0.212  0.00  0.00    +0.259 C 
ATOM     12  O   UNL     1      -1.312   7.085  -0.113  0.00  0.00    -0.271 OA
ATOM     13  C   UNL     1      -2.465   5.077  -0.585  0.00  0.00    +0.269 C 
ATOM     14  O   UNL     1      -2.422   3.805   0.064  0.00  0.00    -0.477 OA
ATOM     15  H   UNL     1       0.851   5.815   0.190  0.00  0.00    +0.155 HD
ENDBRANCH   3  13
ENDBRANCH   1   3
BRANCH   1  16
ATOM     16  O   UNL     1      -4.029   3.903  -3.777  0.00  0.00    -0.455 OA
BRANCH  16  17
ATOM     17  C   UNL     1      -5.285   3.238  -4.077  0.00  0.00    +0.329 C 
BRANCH  17  18
ATOM     18  C   UNL     1      -5.388   3.004  -5.562  0.00  0.00    +0.255 A 
ATOM     19  N   UNL     1      -4.967   1.951  -6.205  0.00  0.00    -0.108 NA
ATOM     20  N   UNL     1      -5.220   2.083  -7.460  0.00  0.00    -0.104 NA
ATOM     21  C   UNL     1      -5.808   3.242  -7.664  0.00  0.00    +0.284 A 
ATOM     22  O   UNL     1      -5.925   3.846  -6.463  0.00  0.00    -0.414 OA
BRANCH  21  23
ATOM     23  C   UNL     1      -6.253   3.779  -8.957  0.00  0.00    +0.192 A 
ATOM     24  C   UNL     1      -6.131   3.160 -10.166  0.00  0.00    +0.056 A 
ATOM     25  C   UNL     1      -6.688   4.027 -11.123  0.00  0.00    +0.058 A 
ATOM     26  C   UNL     1      -7.120   5.123 -10.463  0.00  0.00    +0.171 A 
ATOM     27  O   UNL     1      -6.860   4.967  -9.155  0.00  0.00    -0.443 OA
ATOM     28 BR   UNL     1      -7.959   6.624 -11.249  0.00  0.00    -0.008 Br
ENDBRANCH  21  23
ENDBRANCH  17  18
ENDBRANCH  16  17
ENDBRANCH   1  16
TORSDOF 6
