REMARK  Name = ZINC36663565
REMARK  12 active torsions:
REMARK  status: ('A' for Active; 'I' for Inactive)
REMARK    1  A    between atoms: C_1  and  C_2
REMARK    2  A    between atoms: C_2  and  C_4
REMARK    3  A    between atoms: C_2  and  S_14
REMARK    4  A    between atoms: S_14  and  C_15
REMARK    5  A    between atoms: C_18  and  C_21
REMARK    6  A    between atoms: N_19  and  N_20
REMARK    7  A    between atoms: C_21  and  O_22
REMARK    8  A    between atoms: O_22  and  C_23
REMARK    9  A    between atoms: C_26  and  C_29
REMARK   10  A    between atoms: C_29  and  C_30
REMARK   11  A    between atoms: C_29  and  C_31
REMARK   12  A    between atoms: C_29  and  C_32
REMARK                            x       y       z     vdW  Elec       q    Type
REMARK                         _______ _______ _______ _____ _____    ______ ____
ROOT
ATOM      1  C   UNL     1      -2.365  -0.086  -1.524  0.00  0.00    +0.209 A 
ATOM      2  N   UNL     1      -1.736   0.604  -2.446  0.00  0.00    -0.121 NA
ATOM      3  N   UNL     1      -2.522   0.825  -3.438  0.00  0.00    -0.128 NA
ATOM      4  C   UNL     1      -3.690   0.293  -3.211  0.00  0.00    +0.189 A 
ATOM      5  N   UNL     1      -3.630  -0.312  -1.986  0.00  0.00    -0.225 N 
ENDROOT
BRANCH   5   6
ATOM      6  N   UNL     1      -4.629  -0.997  -1.354  0.00  0.00    -0.295 N 
ATOM      7  H   UNL     1      -5.184  -0.379  -0.782  0.00  0.00    +0.163 HD
ATOM      8  H   UNL     1      -5.206  -1.490  -2.019  0.00  0.00    +0.163 HD
ENDBRANCH   5   6
BRANCH   1   9
ATOM      9  S   UNL     1      -1.700  -0.627   0.016  0.00  0.00    -0.072 S 
BRANCH   9  11
ATOM     10  C   UNL     1      -0.017   1.529   0.013  0.00  0.00    +0.029 C 
ATOM     11  C   UNL     1       0.002  -0.001   0.003  0.00  0.00    +0.137 C 
BRANCH  11  12
ATOM     12  C   UNL     1       0.731  -0.502   1.223  0.00  0.00    +0.231 C 
ATOM     13  O   UNL     1       0.105  -0.890   2.187  0.00  0.00    -0.274 OA
ATOM     14  N   UNL     1       2.079  -0.519   1.244  0.00  0.00    -0.269 N 
ATOM     15  C   UNL     1       2.753  -0.881   2.409  0.00  0.00    +0.125 A 
ATOM     16  C   UNL     1       4.140  -0.795   2.457  0.00  0.00    +0.045 A 
ATOM     17  C   UNL     1       4.798  -1.158   3.618  0.00  0.00    +0.025 A 
ATOM     18  C   UNL     1       4.042  -1.597   4.698  0.00  0.00    +0.059 A 
ATOM     19  C   UNL     1       2.667  -1.657   4.580  0.00  0.00    +0.132 A 
ATOM     20  N   UNL     1       2.068  -1.299   3.461  0.00  0.00    -0.239 NA
ATOM     21 CL   UNL     1       4.817  -2.065   6.179  0.00  0.00    -0.082 Cl
ATOM     22  H   UNL     1       2.579  -0.278   0.448  0.00  0.00    +0.156 HD
ENDBRANCH  11  12
ENDBRANCH   9  11
ENDBRANCH   1   9
BRANCH   4  23
ATOM     23  C   UNL     1      -4.883   0.331  -4.131  0.00  0.00    +0.306 C 
BRANCH  23  24
ATOM     24  O   UNL     1      -4.851  -0.802  -5.000  0.00  0.00    -0.484 OA
BRANCH  24  25
ATOM     25  C   UNL     1      -5.864  -0.920  -5.899  0.00  0.00    +0.121 A 
ATOM     26  C   UNL     1      -6.864   0.040  -5.947  0.00  0.00    +0.046 A 
ATOM     27  C   UNL     1      -7.893  -0.081  -6.861  0.00  0.00    +0.008 A 
ATOM     28  C   UNL     1      -7.925  -1.158  -7.728  0.00  0.00    -0.042 A 
ATOM     29  C   UNL     1      -6.929  -2.116  -7.682  0.00  0.00    +0.008 A 
ATOM     30  C   UNL     1      -5.895  -1.996  -6.773  0.00  0.00    +0.046 A 
BRANCH  28  31
ATOM     31  C   UNL     1      -9.048  -1.288  -8.725  0.00  0.00    -0.013 C 
ATOM     32  C   UNL     1      -9.054  -0.068  -9.649  0.00  0.00    +0.015 C 
ATOM     33  C   UNL     1      -8.848  -2.557  -9.556  0.00  0.00    +0.015 C 
ATOM     34  C   UNL     1     -10.383  -1.371  -7.981  0.00  0.00    +0.015 C 
ENDBRANCH  28  31
ENDBRANCH  24  25
ENDBRANCH  23  24
ENDBRANCH   4  23
TORSDOF 8
