REMARK  Name = ZINC03841370
REMARK  6 active torsions:
REMARK  status: ('A' for Active; 'I' for Inactive)
REMARK    1  A    between atoms: C_1  and  N_2
REMARK    2  A    between atoms: C_4  and  C_11
REMARK    3  A    between atoms: C_11  and  N_60
REMARK    4  A    between atoms: C_22  and  N_27
REMARK    5  A    between atoms: N_27  and  S_28
REMARK    6  A    between atoms: S_28  and  C_31
REMARK                            x       y       z     vdW  Elec       q    Type
REMARK                         _______ _______ _______ _____ _____    ______ ____
ROOT
ATOM      1  C   UNL     1      -0.019   1.517   0.010  0.00  0.00    -0.073 C 
ATOM      2  C   UNL     1       0.002  -0.004   0.002  0.00  0.00    -0.007 C 
ATOM      3  C   UNL     1       0.838  -0.544   1.166  0.00  0.00    +0.011 C 
ATOM      4  C   UNL     1       2.242   0.059   1.046  0.00  0.00    +0.020 C 
ATOM      5  C   UNL     1       2.114   1.587   1.158  0.00  0.00    -0.069 C 
ATOM      6  C   UNL     1       2.806  -0.263  -0.320  0.00  0.00    +0.023 A 
ATOM      7  C   UNL     1       4.157  -0.339  -0.435  0.00  0.00    +0.023 A 
ATOM      8  C   UNL     1       4.755  -0.573  -1.679  0.00  0.00    +0.031 A 
ATOM      9  C   UNL     1       3.956  -0.701  -2.782  0.00  0.00    +0.112 A 
ATOM     10  C   UNL     1       2.559  -0.613  -2.627  0.00  0.00    +0.274 A 
ATOM     11  O   UNL     1       1.837  -0.668  -3.610  0.00  0.00    -0.266 OA
ATOM     12  N   UNL     1       2.008  -0.468  -1.397  0.00  0.00    -0.310 N 
ATOM     13  C   UNL     1       0.542  -0.557  -1.306  0.00  0.00    +0.127 C 
ATOM     14  N   UNL     1       1.356   2.056  -0.024  0.00  0.00    +0.383 N 
ATOM     15  H   UNL     1       1.824   1.721  -0.875  0.00  0.00    -0.081 HD
ENDROOT
BRANCH   9  16
ATOM     16  N   UNL     1       4.519  -0.914  -4.047  0.00  0.00    -0.211 N 
ATOM     17  H   UNL     1       3.945  -1.003  -4.824  0.00  0.00    +0.174 HD
BRANCH  16  18
ATOM     18  S   UNL     1       6.163  -1.015  -4.215  0.00  0.00    +0.079 S 
ATOM     19  O   UNL     1       6.417  -1.258  -5.591  0.00  0.00    -0.149 OA
ATOM     20  O   UNL     1       6.711   0.100  -3.525  0.00  0.00    -0.149 OA
BRANCH  18  21
ATOM     21  C   UNL     1       6.689  -2.454  -3.344  0.00  0.00    +0.146 A 
ATOM     22  C   UNL     1       6.819  -3.725  -3.796  0.00  0.00    +0.036 A 
ATOM     23  C   UNL     1       7.254  -4.705  -2.923  0.00  0.00    +0.010 A 
ATOM     24  C   UNL     1       7.538  -4.366  -1.642  0.00  0.00    +0.047 A 
ATOM     25  S   UNL     1       7.195  -2.614  -1.639  0.00  0.00    -0.077 S 
ENDBRANCH  18  21
ENDBRANCH  16  18
ENDBRANCH   9  16
BRANCH  14  26
ATOM     26  C   UNL     1       1.318   3.532  -0.048  0.00  0.00    -0.041 C 
BRANCH  26  30
ATOM     27  C   UNL     1       5.335   5.522   2.226  0.00  0.00    +0.149 C 
ATOM     28  N   UNL     1       4.490   4.943   1.178  0.00  0.00    -0.349 N 
ATOM     29  C   UNL     1       3.189   4.554   1.343  0.00  0.00    +0.088 A 
ATOM     30  C   UNL     1       2.708   4.065   0.189  0.00  0.00    -0.039 A 
ATOM     31  C   UNL     1       3.791   4.143  -0.794  0.00  0.00    +0.001 A 
ATOM     32  C   UNL     1       4.888   4.708  -0.119  0.00  0.00    +0.049 A 
ATOM     33  C   UNL     1       6.080   4.911  -0.806  0.00  0.00    +0.026 A 
ATOM     34  C   UNL     1       6.171   4.563  -2.136  0.00  0.00    +0.002 A 
ATOM     35  C   UNL     1       5.083   4.011  -2.799  0.00  0.00    +0.001 A 
ATOM     36  C   UNL     1       3.903   3.803  -2.143  0.00  0.00    +0.010 A 
ENDBRANCH  26  30
ENDBRANCH  14  26
TORSDOF 5
