REMARK  Name = ZINC25982471
REMARK  8 active torsions:
REMARK  status: ('A' for Active; 'I' for Inactive)
REMARK    1  A    between atoms: C_1  and  C_2
REMARK    2  A    between atoms: C_10  and  S_11
REMARK    3  A    between atoms: S_11  and  N_14
REMARK    4  A    between atoms: N_14  and  C_15
REMARK    5  A    between atoms: N_19  and  C_22
REMARK    6  A    between atoms: C_22  and  C_23
REMARK    7  A    between atoms: C_23  and  N_24
REMARK    8  A    between atoms: N_24  and  C_25
REMARK                            x       y       z     vdW  Elec       q    Type
REMARK                         _______ _______ _______ _____ _____    ______ ____
ROOT
ATOM      1  C   UNL     1       5.391   5.172  -1.324  0.00  0.00    +0.164 C 
ATOM      2  C   UNL     1       6.770   5.842  -1.523  0.00  0.00    +0.049 C 
ATOM      3  C   UNL     1       7.718   4.814  -0.867  0.00  0.00    +0.110 C 
ATOM      4  N   UNL     1       7.018   3.526  -0.953  0.00  0.00    -0.299 N 
ATOM      5  C   UNL     1       5.709   3.698  -1.203  0.00  0.00    +0.234 C 
ATOM      6  O   UNL     1       4.900   2.801  -1.315  0.00  0.00    -0.274 OA
ENDROOT
BRANCH   1   7
ATOM      7  N   UNL     1       4.755   5.662  -0.099  0.00  0.00    -0.178 NA
ATOM      8  H   UNL     1       5.339   5.741   0.830  0.00  0.00    +0.149 HD
BRANCH   7   9
ATOM      9  S   UNL     1       3.112   5.861  -0.041  0.00  0.00    +0.066 S 
ATOM     10  O   UNL     1       2.809   6.361   1.254  0.00  0.00    -0.153 OA
ATOM     11  O   UNL     1       2.540   4.663  -0.549  0.00  0.00    -0.153 OA
BRANCH   9  21
ATOM     12  C   UNL     1       0.333   7.362  -0.513  0.00  0.00    +0.047 C 
ATOM     13  C   UNL     1       1.521   7.749  -1.356  0.00  0.00    -0.009 A 
ATOM     14  C   UNL     1       1.397   8.789  -2.367  0.00  0.00    -0.006 A 
ATOM     15  C   UNL     1       0.260   9.555  -2.715  0.00  0.00    +0.011 A 
ATOM     16  C   UNL     1       0.327  10.495  -3.696  0.00  0.00    +0.020 A 
ATOM     17  C   UNL     1       1.507  10.737  -4.389  0.00  0.00    +0.042 A 
ATOM     18  C   UNL     1       2.640  10.009  -4.079  0.00  0.00    +0.035 A 
ATOM     19  C   UNL     1       2.583   9.055  -3.086  0.00  0.00    +0.023 A 
ATOM     20  S   UNL     1       3.758   7.926  -2.384  0.00  0.00    -0.068 S 
ATOM     21  C   UNL     1       2.702   7.138  -1.183  0.00  0.00    +0.146 A 
ATOM     22 CL   UNL     1       1.557  11.944  -5.635  0.00  0.00    -0.084 Cl
ENDBRANCH   9  21
ENDBRANCH   7   9
ENDBRANCH   1   7
BRANCH   4  23
ATOM     23  C   UNL     1       7.664   2.222  -0.786  0.00  0.00    +0.126 C 
BRANCH  23  24
ATOM     24  C   UNL     1       7.625   1.817   0.689  0.00  0.00    +0.120 C 
BRANCH  24  25
ATOM     25  N   UNL     1       8.271   0.513   0.855  0.00  0.00    -0.342 N 
ATOM     26  H   UNL     1       8.688  -0.009  -0.019  0.00  0.00    +0.146 HD
BRANCH  25  27
ATOM     27  C   UNL     1       8.356  -0.065   2.118  0.00  0.00    +0.030 A 
ATOM     28  C   UNL     1       7.838   0.584   3.238  0.00  0.00    +0.040 A 
ATOM     29  C   UNL     1       7.939  -0.026   4.471  0.00  0.00    +0.084 A 
ATOM     30  N   UNL     1       8.524  -1.201   4.599  0.00  0.00    -0.367 N 
ATOM     31  C   UNL     1       9.032  -1.845   3.564  0.00  0.00    +0.084 A 
ATOM     32  C   UNL     1       8.967  -1.306   2.297  0.00  0.00    +0.040 A 
ATOM     33  H   UNL     1       8.601  -1.673   5.590  0.00  0.00    +0.165 HD
ENDBRANCH  25  27
ENDBRANCH  24  25
ENDBRANCH  23  24
ENDBRANCH   4  23
TORSDOF 7
