REMARK  Name = ZINC21230591
REMARK  9 active torsions:
REMARK  status: ('A' for Active; 'I' for Inactive)
REMARK    1  A    between atoms: C_1  and  C_2
REMARK    2  A    between atoms: C_2  and  C_3
REMARK    3  A    between atoms: C_2  and  C_4
REMARK    4  A    between atoms: C_4  and  C_6
REMARK    5  A    between atoms: C_4  and  S_12
REMARK    6  A    between atoms: S_12  and  C_13
REMARK    7  A    between atoms: C_18  and  C_20
REMARK    8  A    between atoms: N_28  and  C_29
REMARK    9  A    between atoms: C_29  and  C_30
REMARK                            x       y       z     vdW  Elec       q    Type
REMARK                         _______ _______ _______ _____ _____    ______ ____
ROOT
ATOM      1  C   UNL     1      -5.080   0.734   0.569  0.00  0.00    +0.174 A 
ATOM      2  N   UNL     1      -4.856  -0.506   0.181  0.00  0.00    -0.216 NA
ATOM      3  C   UNL     1      -5.846  -1.384   0.102  0.00  0.00    +0.117 A 
ATOM      4  C   UNL     1      -7.179  -1.042   0.412  0.00  0.00    +0.073 A 
ATOM      5  C   UNL     1      -8.120  -2.078   0.276  0.00  0.00    +0.031 A 
ATOM      6  C   UNL     1      -7.717  -3.308  -0.132  0.00  0.00    +0.022 A 
ATOM      7  S   UNL     1      -5.960  -3.096  -0.356  0.00  0.00    -0.068 S 
ATOM      8  C   UNL     1      -7.391   0.314   0.824  0.00  0.00    +0.263 A 
ATOM      9  O   UNL     1      -8.509   0.704   1.113  0.00  0.00    -0.267 OA
ATOM     10  N   UNL     1      -6.340   1.151   0.888  0.00  0.00    -0.283 N 
ENDROOT
BRANCH   6  11
ATOM     11  C   UNL     1      -8.533  -4.523  -0.338  0.00  0.00    -0.011 A 
ATOM     12  C   UNL     1      -9.908  -4.493  -0.100  0.00  0.00    +0.009 A 
ATOM     13  C   UNL     1     -10.664  -5.630  -0.301  0.00  0.00    +0.001 A 
ATOM     14  C   UNL     1     -10.060  -6.800  -0.724  0.00  0.00    +0.000 A 
ATOM     15  C   UNL     1      -8.697  -6.838  -0.955  0.00  0.00    +0.001 A 
ATOM     16  C   UNL     1      -7.930  -5.708  -0.765  0.00  0.00    +0.009 A 
ENDBRANCH   6  11
BRANCH   1  17
ATOM     17  S   UNL     1      -3.737   1.870   0.668  0.00  0.00    -0.075 S 
BRANCH  17  18
ATOM     18  C   UNL     1      -2.398   0.829   0.035  0.00  0.00    +0.143 C 
BRANCH  18  19
ATOM     19  C   UNL     1      -2.103  -0.268   1.025  0.00  0.00    +0.234 C 
ATOM     20  O   UNL     1      -2.449  -0.150   2.181  0.00  0.00    -0.274 OA
ATOM     21  N   UNL     1      -1.454  -1.379   0.626  0.00  0.00    -0.239 N 
ATOM     22  C   UNL     1      -1.185  -2.358   1.513  0.00  0.00    +0.303 C 
ATOM     23  O   UNL     1      -1.532  -2.240   2.672  0.00  0.00    -0.253 OA
ATOM     24  N   UNL     1      -0.532  -3.467   1.115  0.00  0.00    -0.313 N 
ATOM     25  H   UNL     1      -1.144  -1.488  -0.423  0.00  0.00    +0.159 HD
ATOM     26  H   UNL     1      -0.312  -4.266   1.839  0.00  0.00    +0.146 HD
ATOM     27  H   UNL     1      -0.217  -3.574   0.066  0.00  0.00    +0.146 HD
ENDBRANCH  18  19
BRANCH  18  29
ATOM     28  C   UNL     1      -0.009   0.799  -0.696  0.00  0.00    +0.009 C 
ATOM     29  C   UNL     1      -1.144   1.681  -0.171  0.00  0.00    +0.005 C 
ATOM     30  C   UNL     1      -1.440   2.788  -1.185  0.00  0.00    +0.009 C 
ENDBRANCH  18  29
ENDBRANCH  17  18
ENDBRANCH   1  17
BRANCH  10  31
ATOM     31  C   UNL     1      -6.552   2.538   1.308  0.00  0.00    +0.154 C 
BRANCH  31  32
ATOM     32  C   UNL     1      -6.842   3.391   0.100  0.00  0.00    -0.013 C 
ATOM     33  C   UNL     1      -7.932   4.116   0.057  0.00  0.00    +0.005 C 
ENDBRANCH  31  32
ENDBRANCH  10  31
TORSDOF 7
