REMARK  Name = ZINC34730417
REMARK  6 active torsions:
REMARK  status: ('A' for Active; 'I' for Inactive)
REMARK    1  A    between atoms: C_1  and  C_2
REMARK    2  A    between atoms: C_5  and  N_9
REMARK    3  A    between atoms: C_6  and  N_8
REMARK    4  A    between atoms: N_13  and  C_16
REMARK    5  A    between atoms: C_16  and  C_17
REMARK    6  A    between atoms: C_22  and  C_23
REMARK                            x       y       z     vdW  Elec       q    Type
REMARK                         _______ _______ _______ _____ _____    ______ ____
ROOT
ATOM      1  N   UNL     1      -0.032  -4.281  -0.050  0.00  0.00    -0.254 N 
ATOM      2  C   UNL     1      -1.277  -5.051  -0.035  0.00  0.00    +0.117 C 
ATOM      3  C   UNL     1      -1.044  -6.396  -0.732  0.00  0.00    +0.038 C 
ATOM      4  C   UNL     1       0.129  -7.105  -0.047  0.00  0.00    +0.111 C 
ATOM      5  N   UNL     1       1.297  -6.223  -0.061  0.00  0.00    -0.281 N 
ATOM      6  C   UNL     1       1.164  -4.888  -0.062  0.00  0.00    +0.309 C 
ATOM      7  O   UNL     1       2.167  -4.202  -0.069  0.00  0.00    -0.252 OA
ENDROOT
BRANCH   1  12
ATOM      8  C   UNL     1      -0.273   1.394  -0.088  0.00  0.00    +0.044 C 
ATOM      9  C   UNL     1      -0.209  -0.112  -0.075  0.00  0.00    -0.049 A 
ATOM     10  C   UNL     1      -0.195  -0.812  -1.267  0.00  0.00    +0.005 A 
ATOM     11  C   UNL     1      -0.136  -2.193  -1.261  0.00  0.00    +0.025 A 
ATOM     12  C   UNL     1      -0.091  -2.880  -0.058  0.00  0.00    +0.058 A 
ATOM     13  C   UNL     1      -0.105  -2.174   1.144  0.00  0.00    +0.047 A 
ATOM     14  C   UNL     1      -0.159  -0.788   1.129  0.00  0.00    +0.028 A 
BRANCH  13  15
ATOM     15  N   UNL     1      -0.061  -2.862   2.362  0.00  0.00    -0.357 N 
ATOM     16  H   UNL     1      -0.020  -3.831   2.371  0.00  0.00    +0.142 HD
ATOM     17  H   UNL     1      -0.071  -2.369   3.198  0.00  0.00    +0.142 HD
ENDBRANCH  13  15
ENDBRANCH   1  12
BRANCH   5  18
ATOM     18  C   UNL     1       2.639  -6.810  -0.080  0.00  0.00    +0.144 C 
BRANCH  18  19
ATOM     19  C   UNL     1       3.041  -7.098  -1.504  0.00  0.00    -0.027 A 
ATOM     20  C   UNL     1       2.232  -6.687  -2.547  0.00  0.00    +0.005 A 
ATOM     21  C   UNL     1       2.600  -6.950  -3.853  0.00  0.00    +0.000 A 
ATOM     22  C   UNL     1       3.778  -7.625  -4.116  0.00  0.00    +0.000 A 
ATOM     23  C   UNL     1       4.587  -8.035  -3.073  0.00  0.00    +0.003 A 
ATOM     24  C   UNL     1       4.221  -7.768  -1.767  0.00  0.00    -0.046 A 
ATOM     25  C   UNL     1       5.106  -8.210  -0.630  0.00  0.00    +0.044 C 
ENDBRANCH  18  19
ENDBRANCH   5  18
TORSDOF 4
