REMARK  Name = ZINC15636992
REMARK  8 active torsions:
REMARK  status: ('A' for Active; 'I' for Inactive)
REMARK    1  A    between atoms: C_1  and  C_2
REMARK    2  A    between atoms: C_2  and  C_3
REMARK    3  A    between atoms: N_8  and  S_9
REMARK    4  A    between atoms: S_9  and  C_12
REMARK    5  A    between atoms: C_15  and  N_18
REMARK    6  A    between atoms: N_18  and  C_19
REMARK    7  A    between atoms: C_19  and  N_21
REMARK    8  A    between atoms: C_22  and  C_24
REMARK                            x       y       z     vdW  Elec       q    Type
REMARK                         _______ _______ _______ _____ _____    ______ ____
ROOT
ATOM      1  C   UNL     1      -2.685   8.127   1.994  0.00  0.00    +0.109 A 
ATOM      2  C   UNL     1      -2.650   7.896   3.357  0.00  0.00    +0.030 A 
ATOM      3  C   UNL     1      -3.827   7.777   4.069  0.00  0.00    +0.025 A 
ATOM      4  C   UNL     1      -5.047   7.880   3.413  0.00  0.00    +0.033 A 
ATOM      5  C   UNL     1      -5.079   8.107   2.044  0.00  0.00    +0.025 A 
ATOM      6  C   UNL     1      -3.898   8.230   1.338  0.00  0.00    +0.030 A 
ENDROOT
BRANCH   1   7
ATOM      7  S   UNL     1      -1.181   8.284   1.089  0.00  0.00    +0.074 S 
ATOM      8  O   UNL     1      -1.480   7.948  -0.258  0.00  0.00    -0.150 OA
ATOM      9  O   UNL     1      -0.183   7.606   1.840  0.00  0.00    -0.150 OA
BRANCH   7  15
ATOM     10  C   UNL     1       0.226  12.026   4.379  0.00  0.00    +0.103 A 
ATOM     11  N   UNL     1      -0.082  10.751   4.510  0.00  0.00    -0.145 NA
ATOM     12  N   UNL     1      -0.401  10.032   3.525  0.00  0.00    -0.125 NA
ATOM     13  C   UNL     1      -0.446  10.516   2.291  0.00  0.00    +0.201 A 
ATOM     14  S   UNL     1       0.024  12.214   2.610  0.00  0.00    -0.034 S 
ATOM     15  N   UNL     1      -0.770   9.889   1.097  0.00  0.00    -0.192 N 
ATOM     16  H   UNL     1      -0.756  10.390   0.267  0.00  0.00    +0.176 HD
BRANCH  10  18
ATOM     17  C   UNL     1       2.148  13.027   5.584  0.00  0.00    +0.011 C 
ATOM     18  C   UNL     1       0.626  13.038   5.421  0.00  0.00    +0.061 C 
ENDBRANCH  10  18
ENDBRANCH   7  15
ENDBRANCH   1   7
BRANCH   4  19
ATOM     19  N   UNL     1      -6.241   7.755   4.131  0.00  0.00    -0.297 N 
ATOM     20  H   UNL     1      -6.332   8.179   4.999  0.00  0.00    +0.154 HD
BRANCH  19  21
ATOM     21  C   UNL     1      -7.265   7.046   3.617  0.00  0.00    +0.141 C 
ATOM     22  S   UNL     1      -7.058   6.181   2.155  0.00  0.00    -0.018 S 
BRANCH  21  23
ATOM     23  N   UNL     1      -8.452   7.018   4.255  0.00  0.00    -0.267 N 
ATOM     24  C   UNL     1      -9.477   6.308   3.741  0.00  0.00    +0.225 C 
ATOM     25  O   UNL     1      -9.330   5.696   2.705  0.00  0.00    -0.275 OA
ATOM     26  H   UNL     1      -8.569   7.508   5.084  0.00  0.00    +0.157 HD
BRANCH  24  27
ATOM     27  C   UNL     1     -10.804   6.277   4.454  0.00  0.00    +0.048 C 
ATOM     28  C   UNL     1     -10.616   5.693   5.855  0.00  0.00    +0.019 C 
ATOM     29  C   UNL     1     -11.964   5.661   6.579  0.00  0.00    -0.009 C 
ATOM     30  C   UNL     1     -12.945   4.791   5.791  0.00  0.00    +0.007 C 
ATOM     31  C   UNL     1     -13.133   5.375   4.390  0.00  0.00    -0.009 C 
ATOM     32  C   UNL     1     -11.786   5.407   3.666  0.00  0.00    +0.019 C 
ATOM     33  C   UNL     1     -13.687   6.797   4.500  0.00  0.00    +0.007 C 
ATOM     34  C   UNL     1     -12.705   7.667   5.288  0.00  0.00    -0.009 C 
ATOM     35  C   UNL     1     -12.518   7.083   6.689  0.00  0.00    +0.007 C 
ATOM     36  C   UNL     1     -11.358   7.699   4.564  0.00  0.00    +0.019 C 
ENDBRANCH  24  27
ENDBRANCH  21  23
ENDBRANCH  19  21
ENDBRANCH   4  19
TORSDOF 7
