REMARK  Name = ZINC14472997
REMARK  7 active torsions:
REMARK  status: ('A' for Active; 'I' for Inactive)
REMARK    1  A    between atoms: C_1  and  C_2
REMARK    2  A    between atoms: C_2  and  C_3
REMARK    3  A    between atoms: C_3  and  N_4
REMARK    4  A    between atoms: N_4  and  S_5
REMARK    5  A    between atoms: S_5  and  C_8
REMARK    6  A    between atoms: C_21  and  C_24
REMARK    7  A    between atoms: C_26  and  N_31
REMARK                            x       y       z     vdW  Elec       q    Type
REMARK                         _______ _______ _______ _____ _____    ______ ____
ROOT
ATOM      1  C   UNL     1       1.120   1.721  -0.096  0.00  0.00    +0.106 A 
ATOM      2  C   UNL     1      -0.075   1.027  -0.154  0.00  0.00    +0.030 A 
ATOM      3  C   UNL     1      -1.269   1.719  -0.137  0.00  0.00    +0.025 A 
ATOM      4  C   UNL     1      -1.267   3.106  -0.053  0.00  0.00    +0.031 A 
ATOM      5  C   UNL     1      -0.072   3.805   0.005  0.00  0.00    -0.018 A 
ATOM      6  C   UNL     1       1.122   3.098  -0.017  0.00  0.00    +0.034 A 
ATOM      7  C   UNL     1      -0.021   5.298   0.091  0.00  0.00    +0.049 C 
ATOM      8  C   UNL     1       0.381   5.912  -1.228  0.00  0.00    -0.023 C 
ATOM      9  C   UNL     1      -0.265   7.036  -1.421  0.00  0.00    -0.030 C 
ATOM     10  C   UNL     1      -1.184   7.328  -0.251  0.00  0.00    +0.033 C 
ATOM     11  C   UNL     1      -1.392   5.930   0.402  0.00  0.00    +0.029 C 
ATOM     12  C   UNL     1      -2.488   5.215  -0.393  0.00  0.00    +0.106 C 
ATOM     13  N   UNL     1      -2.486   3.793  -0.035  0.00  0.00    -0.336 N 
ATOM     14  H   UNL     1      -3.308   3.341   0.209  0.00  0.00    +0.147 HD
ENDROOT
BRANCH  12  15
ATOM     15  C   UNL     1      -3.829   5.817  -0.059  0.00  0.00    -0.007 A 
ATOM     16  C   UNL     1      -3.972   6.600   1.072  0.00  0.00    +0.039 A 
ATOM     17  C   UNL     1      -5.200   7.156   1.376  0.00  0.00    +0.127 A 
ATOM     18  C   UNL     1      -6.288   6.922   0.555  0.00  0.00    +0.034 A 
ATOM     19  C   UNL     1      -6.147   6.136  -0.572  0.00  0.00    +0.022 A 
ATOM     20  C   UNL     1      -4.917   5.583  -0.880  0.00  0.00    +0.046 A 
ATOM     21 CL   UNL     1      -4.739   4.595  -2.296  0.00  0.00    -0.083 Cl
BRANCH  17  22
ATOM     22  N   UNL     1      -5.352   7.999   2.583  0.00  0.00    +0.056 N 
ATOM     23  O   UNL     1      -6.435   8.485   2.854  0.00  0.00    -0.126 OA
ATOM     24  O   UNL     1      -4.394   8.205   3.306  0.00  0.00    -0.126 OA
ENDBRANCH  17  22
ENDBRANCH  12  15
BRANCH   1  25
ATOM     25  S   UNL     1       2.647   0.842  -0.124  0.00  0.00    +0.058 S 
ATOM     26  O   UNL     1       3.612   1.684   0.491  0.00  0.00    -0.153 OA
ATOM     27  O   UNL     1       2.369  -0.470   0.348  0.00  0.00    -0.153 OA
BRANCH  25  28
ATOM     28  N   UNL     1       3.094   0.689  -1.711  0.00  0.00    -0.190 NA
ATOM     29  H   UNL     1       3.138  -0.190  -2.120  0.00  0.00    +0.148 HD
BRANCH  28  30
ATOM     30  C   UNL     1       3.425   1.880  -2.497  0.00  0.00    +0.105 C 
BRANCH  30  32
ATOM     31  C   UNL     1       4.495   2.705  -4.598  0.00  0.00    +0.005 C 
ATOM     32  C   UNL     1       4.150   1.461  -3.777  0.00  0.00    +0.013 C 
ENDBRANCH  30  32
ENDBRANCH  28  30
ENDBRANCH  25  28
ENDBRANCH   1  25
TORSDOF 6
