REMARK  Name = ZINC28800365
REMARK  5 active torsions:
REMARK  status: ('A' for Active; 'I' for Inactive)
REMARK    1  A    between atoms: C_1  and  C_2
REMARK    2  A    between atoms: C_8  and  C_10
REMARK    3  A    between atoms: C_10  and  C_12
REMARK    4  A    between atoms: C_10  and  N_13
REMARK    5  A    between atoms: N_13  and  C_14
REMARK                            x       y       z     vdW  Elec       q    Type
REMARK                         _______ _______ _______ _____ _____    ______ ____
ROOT
ATOM      1  N   UNL     1      -5.055  -3.989   0.003  0.00  0.00    -0.333 N 
ATOM      2  H   UNL     1      -5.311  -3.126   0.365  0.00  0.00    +0.147 HD
ENDROOT
BRANCH   1   3
ATOM      3  C   UNL     1      -6.026  -4.847  -0.507  0.00  0.00    +0.036 A 
ATOM      4  C   UNL     1      -5.677  -6.083  -1.020  0.00  0.00    +0.024 A 
ATOM      5  C   UNL     1      -6.626  -6.964  -1.537  0.00  0.00    +0.006 A 
ATOM      6  C   UNL     1      -7.947  -6.627  -1.552  0.00  0.00    -0.039 A 
ATOM      7  C   UNL     1      -8.316  -5.388  -1.040  0.00  0.00    -0.010 A 
ATOM      8  C   UNL     1      -7.387  -4.477  -0.506  0.00  0.00    +0.003 A 
ATOM      9  C   UNL     1      -7.874  -3.258  -0.010  0.00  0.00    +0.010 A 
ATOM     10  C   UNL     1      -9.216  -3.014  -0.063  0.00  0.00    +0.001 A 
ATOM     11  C   UNL     1     -10.121  -3.935  -0.594  0.00  0.00    +0.004 A 
ATOM     12  C   UNL     1      -9.681  -5.123  -1.092  0.00  0.00    -0.039 A 
ATOM     13  C   UNL     1     -10.350  -6.323  -1.718  0.00  0.00    +0.040 C 
ATOM     14  C   UNL     1      -9.206  -7.315  -2.021  0.00  0.00    +0.040 C 
ENDBRANCH   1   3
BRANCH   1  15
ATOM     15  C   UNL     1      -3.646  -4.389  -0.006  0.00  0.00    +0.154 C 
ATOM     16  C   UNL     1      -3.346  -5.229   1.237  0.00  0.00    +0.038 C 
BRANCH  15  24
ATOM     17  C   UNL     1      -0.018   1.503   0.010  0.00  0.00    +0.089 C 
ATOM     18  C   UNL     1       0.002  -0.004   0.002  0.00  0.00    +0.136 A 
ATOM     19  C   UNL     1      -1.076  -0.808   0.003  0.00  0.00    +0.091 A 
ATOM     20  C   UNL     1      -0.625  -2.147  -0.007  0.00  0.00    +0.168 A 
ATOM     21  N   UNL     1       0.683  -2.130  -0.013  0.00  0.00    -0.063 NA
ATOM     22  O   UNL     1       1.100  -0.776  -0.013  0.00  0.00    -0.358 OA
ATOM     23  N   UNL     1      -1.432  -3.285  -0.010  0.00  0.00    -0.266 N 
ATOM     24  C   UNL     1      -2.774  -3.159  -0.003  0.00  0.00    +0.238 C 
ATOM     25  O   UNL     1      -3.280  -2.057   0.006  0.00  0.00    -0.273 OA
ATOM     26  H   UNL     1      -1.027  -4.166  -0.017  0.00  0.00    +0.156 HD
ENDBRANCH  15  24
ENDBRANCH   1  15
TORSDOF 3
