REMARK  Name = ZINC38686442
REMARK  10 active torsions:
REMARK  status: ('A' for Active; 'I' for Inactive)
REMARK    1  A    between atoms: C_1  and  C_2
REMARK    2  A    between atoms: C_6  and  C_8
REMARK    3  A    between atoms: C_8  and  O_10
REMARK    4  A    between atoms: O_10  and  C_11
REMARK    5  A    between atoms: C_18  and  N_39
REMARK    6  A    between atoms: C_19  and  C_37
REMARK    7  A    between atoms: C_20  and  C_22
REMARK    8  A    between atoms: C_25  and  O_28
REMARK    9  A    between atoms: O_28  and  C_29
REMARK   10  A    between atoms: C_29  and  C_30
REMARK                            x       y       z     vdW  Elec       q    Type
REMARK                         _______ _______ _______ _____ _____    ______ ____
ROOT
ATOM      1  C   UNL     1       0.117  -4.926   3.586  0.00  0.00    +0.135 A 
ATOM      2  C   UNL     1       0.071  -4.294   4.821  0.00  0.00    +0.047 A 
ATOM      3  C   UNL     1       0.120  -5.041   5.981  0.00  0.00    +0.012 A 
ATOM      4  C   UNL     1       0.215  -6.420   5.919  0.00  0.00    +0.008 A 
ATOM      5  C   UNL     1       0.261  -7.057   4.689  0.00  0.00    +0.138 A 
ATOM      6  C   UNL     1       0.206  -6.307   3.521  0.00  0.00    +0.093 A 
ATOM      7  O   UNL     1       0.354  -8.407   4.608  0.00  0.00    -0.441 OA
ATOM      8  C   UNL     1       0.022  -9.167   5.665  0.00  0.00    +0.199 C 
ATOM      9  C   UNL     1      -0.038  -8.662   6.920  0.00  0.00    +0.098 C 
ATOM     10  C   UNL     1       0.268  -7.216   7.196  0.00  0.00    +0.098 C 
ENDROOT
BRANCH  10  11
ATOM     11  C   UNL     1       1.645  -7.104   7.798  0.00  0.00    -0.034 A 
ATOM     12  C   UNL     1       2.748  -7.532   7.082  0.00  0.00    +0.008 A 
ATOM     13  C   UNL     1       4.011  -7.431   7.632  0.00  0.00    +0.046 A 
ATOM     14  C   UNL     1       4.173  -6.898   8.902  0.00  0.00    +0.121 A 
ATOM     15  C   UNL     1       3.065  -6.468   9.618  0.00  0.00    +0.046 A 
ATOM     16  C   UNL     1       1.804  -6.567   9.062  0.00  0.00    +0.008 A 
BRANCH  14  17
ATOM     17  O   UNL     1       5.415  -6.797   9.446  0.00  0.00    -0.487 OA
BRANCH  17  18
ATOM     18  C   UNL     1       5.505  -6.239  10.758  0.00  0.00    +0.264 C 
BRANCH  18  19
ATOM     19  C   UNL     1       6.948  -6.207  11.192  0.00  0.00    -0.010 A 
ATOM     20  C   UNL     1       7.493  -7.289  11.859  0.00  0.00    +0.010 A 
ATOM     21  C   UNL     1       8.816  -7.261  12.257  0.00  0.00    +0.039 A 
ATOM     22  C   UNL     1       9.596  -6.150  11.987  0.00  0.00    +0.123 A 
ATOM     23  C   UNL     1       9.050  -5.067  11.318  0.00  0.00    +0.039 A 
ATOM     24  C   UNL     1       7.728  -5.099  10.917  0.00  0.00    +0.010 A 
ATOM     25  F   UNL     1      10.890  -6.122  12.376  0.00  0.00    -0.205 F 
ENDBRANCH  18  19
ENDBRANCH  17  18
ENDBRANCH  14  17
ENDBRANCH  10  11
BRANCH   8  26
ATOM     26  N   UNL     1      -0.267 -10.494   5.466  0.00  0.00    -0.328 N 
ATOM     27  H   UNL     1      -0.228 -10.870   4.573  0.00  0.00    +0.145 HD
ATOM     28  H   UNL     1      -0.508 -11.055   6.219  0.00  0.00    +0.145 HD
ENDBRANCH   8  26
BRANCH   9  29
ATOM     29  C   UNL     1      -0.400  -9.522   8.005  0.00  0.00    +0.101 C 
ATOM     30  N   UNL     1      -0.688 -10.205   8.867  0.00  0.00    -0.191 NA
ENDBRANCH   9  29
BRANCH   1  31
ATOM     31  O   UNL     1       0.068  -4.192   2.443  0.00  0.00    -0.422 OA
BRANCH  31  32
ATOM     32  C   UNL     1       1.188  -3.550   2.057  0.00  0.00    +0.344 C 
ATOM     33  O   UNL     1       2.172  -3.563   2.768  0.00  0.00    -0.245 OA
BRANCH  32  39
ATOM     34  C   UNL     1       3.646  -0.770  -1.279  0.00  0.00    +0.044 C 
ATOM     35  C   UNL     1       2.397  -1.491  -0.841  0.00  0.00    -0.050 A 
ATOM     36  C   UNL     1       1.273  -1.478  -1.649  0.00  0.00    +0.003 A 
ATOM     37  C   UNL     1       0.122  -2.138  -1.256  0.00  0.00    +0.001 A 
ATOM     38  C   UNL     1       0.088  -2.813  -0.053  0.00  0.00    +0.015 A 
ATOM     39  C   UNL     1       1.218  -2.830   0.767  0.00  0.00    +0.060 A 
ATOM     40  C   UNL     1       2.378  -2.167   0.361  0.00  0.00    +0.018 A 
ENDBRANCH  32  39
ENDBRANCH  31  32
ENDBRANCH   1  31
TORSDOF 9
