REMARK  Name = ZINC22615333
REMARK  6 active torsions:
REMARK  status: ('A' for Active; 'I' for Inactive)
REMARK    1  A    between atoms: N_12  and  C_16
REMARK    2  A    between atoms: C_16  and  C_17
REMARK    3  A    between atoms: N_19  and  C_20
REMARK    4  A    between atoms: C_25  and  O_26
REMARK    5  A    between atoms: O_26  and  C_27
REMARK    6  A    between atoms: C_27  and  C_28
REMARK                            x       y       z     vdW  Elec       q    Type
REMARK                         _______ _______ _______ _____ _____    ______ ____
ROOT
ATOM      1  C   UNL     1      -1.802  -2.023  -2.521  0.00  0.00    +0.214 C 
ENDROOT
BRANCH   1  13
ATOM      2  C   UNL     1       3.882  -0.683   1.646  0.00  0.00    +0.000 A 
ATOM      3  C   UNL     1       3.019  -1.763   1.643  0.00  0.00    +0.000 A 
ATOM      4  C   UNL     1       1.747  -1.627   1.123  0.00  0.00    +0.006 A 
ATOM      5  C   UNL     1       1.330  -0.413   0.603  0.00  0.00    -0.012 A 
ATOM      6  C   UNL     1       2.196   0.667   0.604  0.00  0.00    -0.042 A 
ATOM      7  C   UNL     1       3.471   0.528   1.127  0.00  0.00    +0.004 A 
ATOM      8  C   UNL     1       1.517   1.870  -0.017  0.00  0.00    +0.038 C 
ATOM      9  C   UNL     1       0.009   1.534  -0.008  0.00  0.00    +0.045 C 
ATOM     10  C   UNL     1       0.019  -0.000  -0.010  0.00  0.00    +0.138 C 
ATOM     11  C   UNL     1      -0.138  -0.545  -1.406  0.00  0.00    +0.251 C 
ATOM     12  O   UNL     1       0.588  -0.351  -2.358  0.00  0.00    -0.272 OA
ATOM     13  N   UNL     1      -1.260  -1.296  -1.370  0.00  0.00    -0.215 N 
ATOM     14  C   UNL     1      -1.816  -1.292  -0.151  0.00  0.00    +0.310 C 
ATOM     15  O   UNL     1      -2.833  -1.896   0.130  0.00  0.00    -0.252 OA
ATOM     16  N   UNL     1      -1.121  -0.544   0.729  0.00  0.00    -0.281 N 
ATOM     17  H   UNL     1      -1.253  -0.300   1.793  0.00  0.00    +0.152 HD
ENDBRANCH   1  13
BRANCH   1  18
ATOM     18  C   UNL     1      -1.215  -3.411  -2.559  0.00  0.00    +0.235 C 
ATOM     19  O   UNL     1      -0.422  -3.758  -1.710  0.00  0.00    -0.274 OA
ATOM     20  N   UNL     1      -1.571  -4.266  -3.538  0.00  0.00    -0.281 N 
ATOM     21  H   UNL     1      -2.356  -3.985  -4.255  0.00  0.00    +0.155 HD
BRANCH  20  22
ATOM     22  C   UNL     1      -0.940  -5.513  -3.643  0.00  0.00    +0.077 A 
ATOM     23  C   UNL     1       0.337  -5.692  -3.131  0.00  0.00    +0.047 A 
ATOM     24  C   UNL     1       0.955  -6.924  -3.232  0.00  0.00    +0.043 A 
ATOM     25  C   UNL     1       0.307  -7.978  -3.851  0.00  0.00    +0.024 A 
ATOM     26  C   UNL     1      -0.963  -7.805  -4.368  0.00  0.00    +0.049 A 
ATOM     27  C   UNL     1      -1.591  -6.574  -4.267  0.00  0.00    +0.142 A 
ATOM     28 CL   UNL     1       2.551  -7.148  -2.586  0.00  0.00    -0.083 Cl
BRANCH  27  29
ATOM     29  O   UNL     1      -2.841  -6.403  -4.775  0.00  0.00    -0.481 OA
BRANCH  29  30
ATOM     30  C   UNL     1      -3.448  -7.536  -5.401  0.00  0.00    +0.342 C 
BRANCH  30  31
ATOM     31  C   UNL     1      -4.840  -7.153  -5.907  0.00  0.00    +0.424 C 
ATOM     32  F   UNL     1      -4.729  -6.112  -6.835  0.00  0.00    -0.167 F 
ATOM     33  F   UNL     1      -5.434  -8.262  -6.520  0.00  0.00    -0.167 F 
ATOM     34  F   UNL     1      -5.630  -6.737  -4.830  0.00  0.00    -0.167 F 
ENDBRANCH  30  31
ENDBRANCH  29  30
ENDBRANCH  27  29
ENDBRANCH  20  22
ENDBRANCH   1  18
TORSDOF 6
