REMARK  Name = ZINC54641446
REMARK  13 active torsions:
REMARK  status: ('A' for Active; 'I' for Inactive)
REMARK    1  A    between atoms: C_1  and  C_2
REMARK    2  A    between atoms: C_4  and  C_39
REMARK    3  A    between atoms: C_5  and  C_9
REMARK    4  A    between atoms: C_7  and  C_8
REMARK    5  A    between atoms: C_9  and  O_10
REMARK    6  A    between atoms: O_10  and  C_11
REMARK    7  A    between atoms: C_14  and  C_19
REMARK    8  A    between atoms: C_16  and  O_17
REMARK    9  A    between atoms: O_17  and  C_18
REMARK   10  A    between atoms: C_21  and  C_30
REMARK   11  A    between atoms: C_22  and  C_29
REMARK   12  A    between atoms: C_30  and  O_32
REMARK   13  A    between atoms: O_32  and  C_33
REMARK                            x       y       z     vdW  Elec       q    Type
REMARK                         _______ _______ _______ _____ _____    ______ ____
ROOT
ATOM      1  C   UNL     1       0.056 -10.408   2.059  0.00  0.00    +0.181 C 
ATOM      2  C   UNL     1       1.317 -11.045   1.537  0.00  0.00    +0.082 C 
ATOM      3  C   UNL     1       1.375 -11.707   0.371  0.00  0.00    +0.020 C 
ATOM      4  N   UNL     1       0.277 -11.865  -0.438  0.00  0.00    -0.286 N 
ATOM      5  C   UNL     1      -0.962 -11.546   0.099  0.00  0.00    +0.240 A 
ATOM      6  N   UNL     1      -1.081 -10.868   1.271  0.00  0.00    -0.201 N 
ATOM      7  N   UNL     1      -2.451 -10.740   1.492  0.00  0.00    -0.042 NA
ATOM      8  N   UNL     1      -3.040 -11.313   0.492  0.00  0.00    -0.021 NA
ATOM      9  N   UNL     1      -2.167 -11.787  -0.332  0.00  0.00    -0.092 NA
ATOM     10  C   UNL     1       2.691 -12.296  -0.067  0.00  0.00    +0.061 C 
ATOM     11  H   UNL     1       0.363 -12.187  -1.349  0.00  0.00    +0.155 HD
ENDROOT
BRANCH   1  15
ATOM     12  C   UNL     1       0.376  -6.155   1.752  0.00  0.00    +0.162 A 
ATOM     13  C   UNL     1       0.460  -6.943   0.615  0.00  0.00    +0.050 A 
ATOM     14  C   UNL     1       0.356  -8.318   0.718  0.00  0.00    +0.010 A 
ATOM     15  C   UNL     1       0.169  -8.909   1.953  0.00  0.00    -0.015 A 
ATOM     16  C   UNL     1       0.084  -8.129   3.091  0.00  0.00    +0.055 A 
ATOM     17  C   UNL     1       0.193  -6.751   2.996  0.00  0.00    +0.162 A 
BRANCH  17  18
ATOM     18  O   UNL     1       0.116  -5.982   4.115  0.00  0.00    -0.491 OA
ATOM     19  C   UNL     1      -0.073  -6.662   5.357  0.00  0.00    +0.277 C 
ENDBRANCH  17  18
BRANCH  12  20
ATOM     20  O   UNL     1       0.478  -4.802   1.652  0.00  0.00    -0.484 OA
BRANCH  20  21
ATOM     21  C   UNL     1       0.665  -4.260   0.343  0.00  0.00    +0.265 C 
BRANCH  21  26
ATOM     22  C   UNL     1       1.010   1.498   0.674  0.00  0.00    +0.044 C 
ATOM     23  C   UNL     1       0.920  -0.003   0.588  0.00  0.00    -0.047 A 
ATOM     24  C   UNL     1       1.020  -0.632  -0.639  0.00  0.00    +0.007 A 
ATOM     25  C   UNL     1       0.938  -2.010  -0.718  0.00  0.00    -0.044 A 
ATOM     26  C   UNL     1       0.756  -2.759   0.430  0.00  0.00    -0.007 A 
ATOM     27  C   UNL     1       0.656  -2.130   1.656  0.00  0.00    +0.010 A 
ATOM     28  C   UNL     1       0.743  -0.752   1.736  0.00  0.00    -0.047 A 
ATOM     29  C   UNL     1       0.640  -0.067   3.074  0.00  0.00    +0.044 C 
ATOM     30  C   UNL     1       1.046  -2.696  -2.056  0.00  0.00    +0.044 C 
ENDBRANCH  21  26
ENDBRANCH  20  21
ENDBRANCH  12  20
ENDBRANCH   1  15
BRANCH   2  31
ATOM     31  C   UNL     1       2.494 -10.941   2.311  0.00  0.00    +0.339 C 
ATOM     32  O   UNL     1       2.674 -11.695   3.249  0.00  0.00    -0.245 OA
BRANCH  31  33
ATOM     33  O   UNL     1       3.419 -10.006   2.010  0.00  0.00    -0.458 OA
BRANCH  33  34
ATOM     34  C   UNL     1       4.585  -9.957   2.835  0.00  0.00    +0.177 C 
ATOM     35  C   UNL     1       4.341  -9.005   4.007  0.00  0.00    +0.044 C 
ATOM     36  C   UNL     1       5.589  -8.953   4.891  0.00  0.00    +0.004 C 
ATOM     37  C   UNL     1       6.777  -8.453   4.066  0.00  0.00    +0.000 C 
ATOM     38  C   UNL     1       7.021  -9.405   2.893  0.00  0.00    +0.004 C 
ATOM     39  C   UNL     1       5.773  -9.457   2.010  0.00  0.00    +0.044 C 
ENDBRANCH  33  34
ENDBRANCH  31  33
ENDBRANCH   2  31
TORSDOF 8
