REMARK  Name = ZINC37940586
REMARK  3 active torsions:
REMARK  status: ('A' for Active; 'I' for Inactive)
REMARK    1  A    between atoms: C_2  and  C_12
REMARK    2  A    between atoms: C_12  and  C_14
REMARK    3  A    between atoms: C_12  and  N_16
REMARK                            x       y       z     vdW  Elec       q    Type
REMARK                         _______ _______ _______ _____ _____    ______ ____
ROOT
ATOM      1  C   UNL     1       1.145   3.599   0.010  0.00  0.00    +0.191 C 
ENDROOT
BRANCH   1   3
ATOM      2  C   UNL     1       2.238   1.348   0.009  0.00  0.00    +0.055 A 
ATOM      3  C   UNL     1       1.084   2.098  -0.114  0.00  0.00    -0.011 A 
ATOM      4  C   UNL     1      -0.127   1.475  -0.350  0.00  0.00    +0.030 A 
ATOM      5  C   UNL     1      -0.188   0.097  -0.463  0.00  0.00    +0.087 A 
ATOM      6  C   UNL     1       0.968  -0.661  -0.339  0.00  0.00    +0.180 A 
ATOM      7  C   UNL     1       2.185  -0.034  -0.104  0.00  0.00    +0.164 A 
ATOM      8  O   UNL     1       3.331  -0.758   0.013  0.00  0.00    -0.485 OA
ATOM      9  C   UNL     1       3.183  -2.160   0.265  0.00  0.00    +0.270 C 
ATOM     10  C   UNL     1       2.120  -2.711  -0.693  0.00  0.00    +0.270 C 
ATOM     11  O   UNL     1       0.892  -2.016  -0.448  0.00  0.00    -0.483 OA
ATOM     12 CL   UNL     1      -1.710  -0.683  -0.759  0.00  0.00    -0.080 Cl
ENDBRANCH   1   3
BRANCH   1  13
ATOM     13  N   UNL     1       2.264   4.111  -0.792  0.00  0.00    -0.286 NA
ATOM     14  C   UNL     1       2.451   5.566  -0.576  0.00  0.00    +0.084 C 
ATOM     15  C   UNL     1       3.881   5.918  -0.901  0.00  0.00    -0.004 C 
ATOM     16  C   UNL     1       4.063   6.361  -2.361  0.00  0.00    -0.081 C 
ATOM     17  N   UNL     1       3.292   5.528  -3.311  0.00  0.00    +0.380 N 
ATOM     18  C   UNL     1       3.354   4.122  -2.980  0.00  0.00    -0.067 C 
ATOM     19  C   UNL     1       2.116   3.763  -2.138  0.00  0.00    +0.067 C 
ATOM     20  H   UNL     1       2.328   5.824  -3.299  0.00  0.00    -0.086 HD
ATOM     21  H   UNL     1       3.663   5.662  -4.240  0.00  0.00    -0.086 HD
ENDBRANCH   1  13
BRANCH   1  22
ATOM     22  C   UNL     1       1.345   3.966   1.421  0.00  0.00    +0.086 C 
ATOM     23  N   UNL     1       1.499   4.250   2.511  0.00  0.00    -0.195 NA
ENDBRANCH   1  22
TORSDOF 3
