REMARK  Name = ZINC39665178
REMARK  8 active torsions:
REMARK  status: ('A' for Active; 'I' for Inactive)
REMARK    1  A    between atoms: C_1  and  C_2
REMARK    2  A    between atoms: C_2  and  C_4
REMARK    3  A    between atoms: C_2  and  O_28
REMARK    4  A    between atoms: C_4  and  N_5
REMARK    5  A    between atoms: C_6  and  C_8
REMARK    6  A    between atoms: C_19  and  C_21
REMARK    7  A    between atoms: C_21  and  C_27
REMARK    8  A    between atoms: O_28  and  C_29
REMARK                            x       y       z     vdW  Elec       q    Type
REMARK                         _______ _______ _______ _____ _____    ______ ____
ROOT
ATOM      1  C   UNL     1       0.092  -4.456  -2.684  0.00  0.00    +0.100 C 
ATOM      2  C   UNL     1      -1.362  -4.831  -3.048  0.00  0.00    +0.121 C 
ATOM      3  N   UNL     1      -1.310  -5.176  -4.489  0.00  0.00    -0.300 N 
ATOM      4  C   UNL     1      -0.035  -5.917  -4.644  0.00  0.00    +0.115 C 
ATOM      5  C   UNL     1       0.960  -5.173  -3.732  0.00  0.00    -0.004 C 
ATOM      6  C   UNL     1       1.759  -4.157  -4.542  0.00  0.00    -0.010 C 
ATOM      7  C   UNL     1       2.656  -4.897  -5.538  0.00  0.00    -0.082 C 
ATOM      8  N   UNL     1       3.562  -5.794  -4.811  0.00  0.00    +0.379 N 
ATOM      9  C   UNL     1       2.788  -6.825  -4.108  0.00  0.00    -0.082 C 
ATOM     10  C   UNL     1       1.897  -6.167  -3.052  0.00  0.00    -0.010 C 
ATOM     11  C   UNL     1      -2.216  -4.882  -5.442  0.00  0.00    +0.222 C 
ATOM     12  O   UNL     1      -3.178  -4.194  -5.172  0.00  0.00    -0.275 OA
ATOM     13  H   UNL     1       4.192  -6.235  -5.463  0.00  0.00    -0.086 HD
ATOM     14  H   UNL     1       4.095  -5.261  -4.140  0.00  0.00    -0.086 HD
ENDROOT
BRANCH  11  15
ATOM     15  C   UNL     1      -2.034  -5.407  -6.842  0.00  0.00    +0.044 C 
ATOM     16  C   UNL     1      -0.821  -4.735  -7.486  0.00  0.00    +0.016 C 
ATOM     17  C   UNL     1      -1.042  -3.221  -7.535  0.00  0.00    +0.001 C 
ATOM     18  C   UNL     1      -2.293  -2.915  -8.361  0.00  0.00    +0.000 C 
ATOM     19  C   UNL     1      -3.507  -3.588  -7.716  0.00  0.00    +0.001 C 
ATOM     20  C   UNL     1      -3.285  -5.101  -7.668  0.00  0.00    +0.016 C 
ATOM     21  C   UNL     1      -1.813  -6.921  -6.794  0.00  0.00    +0.021 C 
ENDBRANCH  11  15
BRANCH   1  23
ATOM     22  N   UNL     1       1.306  -2.377  -2.115  0.00  0.00    -0.312 N 
ATOM     23  C   UNL     1       0.287  -2.964  -2.773  0.00  0.00    +0.218 C 
ATOM     24  O   UNL     1      -0.472  -2.292  -3.438  0.00  0.00    -0.275 OA
ATOM     25  H   UNL     1       1.913  -2.915  -1.583  0.00  0.00    +0.149 HD
BRANCH  22  26
ATOM     26  C   UNL     1       1.496  -0.927  -2.202  0.00  0.00    +0.148 C 
BRANCH  26  28
ATOM     27  C   UNL     1       2.838   1.004  -1.357  0.00  0.00    +0.053 C 
ATOM     28  C   UNL     1       2.713  -0.521  -1.368  0.00  0.00    +0.187 C 
BRANCH  28  29
ATOM     29  O   UNL     1       3.892  -1.092  -1.938  0.00  0.00    -0.488 OA
BRANCH  29  30
ATOM     30  C   UNL     1       4.954  -1.270  -1.109  0.00  0.00    +0.121 A 
ATOM     31  C   UNL     1       4.833  -0.993   0.245  0.00  0.00    +0.045 A 
ATOM     32  C   UNL     1       5.914  -1.175   1.086  0.00  0.00    +0.004 A 
ATOM     33  C   UNL     1       7.116  -1.632   0.579  0.00  0.00    +0.000 A 
ATOM     34  C   UNL     1       7.240  -1.908  -0.770  0.00  0.00    +0.004 A 
ATOM     35  C   UNL     1       6.160  -1.734  -1.614  0.00  0.00    +0.045 A 
ENDBRANCH  29  30
ENDBRANCH  28  29
ENDBRANCH  26  28
ENDBRANCH  22  26
ENDBRANCH   1  23
TORSDOF 6
