REMARK  Name = ZINC39982916
REMARK  9 active torsions:
REMARK  status: ('A' for Active; 'I' for Inactive)
REMARK    1  A    between atoms: C_1  and  C_2
REMARK    2  A    between atoms: C_3  and  O_23
REMARK    3  A    between atoms: C_6  and  C_9
REMARK    4  A    between atoms: C_7  and  O_8
REMARK    5  A    between atoms: C_11  and  C_16
REMARK    6  A    between atoms: C_12  and  C_15
REMARK    7  A    between atoms: C_20  and  C_22
REMARK    8  A    between atoms: O_23  and  C_24
REMARK    9  A    between atoms: C_24  and  C_25
REMARK                            x       y       z     vdW  Elec       q    Type
REMARK                         _______ _______ _______ _____ _____    ______ ____
ROOT
ATOM      1  C   UNL     1      -1.337   1.555   0.994  0.00  0.00    +0.051 C 
ATOM      2  C   UNL     1      -0.917   0.128   0.747  0.00  0.00    +0.033 A 
ATOM      3  C   UNL     1      -0.883  -0.372  -0.545  0.00  0.00    +0.127 A 
ATOM      4  C   UNL     1      -0.497  -1.685  -0.770  0.00  0.00    +0.046 A 
ATOM      5  C   UNL     1      -0.146  -2.495   0.294  0.00  0.00    +0.013 A 
ATOM      6  C   UNL     1      -0.179  -1.999   1.583  0.00  0.00    +0.022 A 
ATOM      7  C   UNL     1      -0.559  -0.684   1.812  0.00  0.00    +0.129 A 
ENDROOT
BRANCH   6   8
ATOM      8  C   UNL     1       0.203  -2.885   2.740  0.00  0.00    +0.162 C 
ATOM      9  C   UNL     1       1.702  -2.835   2.983  0.00  0.00    +0.006 C 
ATOM     10  C   UNL     1       2.101  -4.093   2.786  0.00  0.00    +0.062 C 
ATOM     11  N   UNL     1       1.054  -4.884   2.461  0.00  0.00    -0.183 NA
ATOM     12  N   UNL     1      -0.036  -4.301   2.414  0.00  0.00    -0.297 N 
ATOM     13  C   UNL     1       3.526  -4.568   2.909  0.00  0.00    +0.067 C 
ATOM     14  H   UNL     1      -0.893  -4.702   2.201  0.00  0.00    +0.183 HD
BRANCH   9  15
ATOM     15  C   UNL     1       2.542  -1.642   3.358  0.00  0.00    +0.146 C 
ATOM     16  C   UNL     1       2.640  -0.683   2.140  0.00  0.00    +0.107 C 
ATOM     17  S   UNL     1       4.380  -0.123   2.383  0.00  0.00    -0.108 S 
ATOM     18  C   UNL     1       4.932  -1.478   3.407  0.00  0.00    +0.066 C 
ATOM     19  N   UNL     1       3.858  -2.096   3.769  0.00  0.00    -0.273 NA
ATOM     20  C   UNL     1       6.352  -1.826   3.771  0.00  0.00    +0.073 C 
ENDBRANCH   9  15
ENDBRANCH   6   8
BRANCH   7  21
ATOM     21  O   UNL     1      -0.585  -0.195   3.079  0.00  0.00    -0.506 OA
ATOM     22  H   UNL     1      -1.432  -0.314   3.530  0.00  0.00    +0.292 HD
ENDBRANCH   7  21
BRANCH   3  23
ATOM     23  O   UNL     1      -1.229   0.423  -1.592  0.00  0.00    -0.487 OA
BRANCH  23  24
ATOM     24  C   UNL     1      -1.171  -0.158  -2.896  0.00  0.00    +0.264 C 
BRANCH  24  25
ATOM     25  C   UNL     1      -1.586   0.865  -3.921  0.00  0.00    -0.010 A 
ATOM     26  C   UNL     1      -2.916   0.984  -4.279  0.00  0.00    +0.010 A 
ATOM     27  C   UNL     1      -3.298   1.923  -5.220  0.00  0.00    +0.039 A 
ATOM     28  C   UNL     1      -2.348   2.744  -5.802  0.00  0.00    +0.123 A 
ATOM     29  C   UNL     1      -1.016   2.624  -5.442  0.00  0.00    +0.039 A 
ATOM     30  C   UNL     1      -0.637   1.688  -4.498  0.00  0.00    +0.010 A 
ATOM     31  F   UNL     1      -2.719   3.661  -6.722  0.00  0.00    -0.205 F 
ENDBRANCH  24  25
ENDBRANCH  23  24
ENDBRANCH   3  23
TORSDOF 6
