REMARK  Name = ZINC57316252
REMARK  6 active torsions:
REMARK  status: ('A' for Active; 'I' for Inactive)
REMARK    1  A    between atoms: C_6  and  C_7
REMARK    2  A    between atoms: C_10  and  C_12
REMARK    3  A    between atoms: C_12  and  N_13
REMARK    4  A    between atoms: N_13  and  C_14
REMARK    5  A    between atoms: C_14  and  N_16
REMARK    6  A    between atoms: C_17  and  C_19
REMARK                            x       y       z     vdW  Elec       q    Type
REMARK                         _______ _______ _______ _____ _____    ______ ____
ROOT
ATOM      1  N   UNL     1      -5.383  -0.985   1.423  0.00  0.00    -0.319 N 
ATOM      2  H   UNL     1      -4.752  -1.062   2.156  0.00  0.00    +0.148 HD
ENDROOT
BRANCH   1   3
ATOM      3  C   UNL     1      -6.697  -0.826   1.680  0.00  0.00    +0.137 C 
ATOM      4  S   UNL     1      -7.811  -0.690   0.387  0.00  0.00    -0.018 S 
BRANCH   3   5
ATOM      5  N   UNL     1      -7.133  -0.774   2.954  0.00  0.00    -0.264 N 
ATOM      6  C   UNL     1      -8.447  -0.615   3.210  0.00  0.00    +0.251 C 
ATOM      7  O   UNL     1      -9.238  -0.518   2.293  0.00  0.00    -0.270 OA
ATOM      8  H   UNL     1      -6.502  -0.851   3.686  0.00  0.00    +0.157 HD
BRANCH   6   9
ATOM      9  C   UNL     1      -8.925  -0.558   4.606  0.00  0.00    +0.057 A 
ATOM     10  C   UNL     1      -8.018  -0.662   5.663  0.00  0.00    +0.034 A 
ATOM     11  C   UNL     1      -8.472  -0.608   6.966  0.00  0.00    +0.042 A 
ATOM     12  C   UNL     1      -9.824  -0.451   7.226  0.00  0.00    +0.021 A 
ATOM     13  C   UNL     1     -10.727  -0.347   6.184  0.00  0.00    +0.022 A 
ATOM     14  C   UNL     1     -10.286  -0.393   4.876  0.00  0.00    +0.053 A 
ATOM     15 CL   UNL     1     -11.421  -0.254   3.570  0.00  0.00    -0.083 Cl
ATOM     16 CL   UNL     1      -7.347  -0.738   8.281  0.00  0.00    -0.084 Cl
ENDBRANCH   6   9
ENDBRANCH   3   5
ENDBRANCH   1   3
BRANCH   1  17
ATOM     17  C   UNL     1      -4.909  -1.042   0.039  0.00  0.00    +0.177 C 
BRANCH  17  21
ATOM     18  C   UNL     1      -1.266  -0.763   0.011  0.00  0.00    +0.135 A 
ATOM     19  C   UNL     1      -1.385  -2.118   0.010  0.00  0.00    +0.050 A 
ATOM     20  C   UNL     1      -2.765  -2.404   0.021  0.00  0.00    +0.047 A 
ATOM     21  C   UNL     1      -3.413  -1.223   0.027  0.00  0.00    +0.123 A 
ATOM     22  O   UNL     1      -2.504  -0.234   0.026  0.00  0.00    -0.458 OA
BRANCH  18  28
ATOM     23  C   UNL     1      -0.017   1.392   0.010  0.00  0.00    +0.012 A 
ATOM     24  C   UNL     1       1.170   2.095   0.002  0.00  0.00    +0.016 A 
ATOM     25  C   UNL     1       2.378   1.419  -0.013  0.00  0.00    +0.018 A 
ATOM     26  C   UNL     1       2.404   0.035  -0.021  0.00  0.00    +0.016 A 
ATOM     27  C   UNL     1       1.224  -0.680  -0.013  0.00  0.00    +0.012 A 
ATOM     28  C   UNL     1       0.002  -0.004   0.002  0.00  0.00    +0.017 A 
ATOM     29 BR   UNL     1       4.000   2.390  -0.025  0.00  0.00    -0.050 Br
ENDBRANCH  18  28
ENDBRANCH  17  21
ENDBRANCH   1  17
TORSDOF 6
