REMARK  Name = ZINC16022099
REMARK  8 active torsions:
REMARK  status: ('A' for Active; 'I' for Inactive)
REMARK    1  A    between atoms: C_1  and  C_2
REMARK    2  A    between atoms: C_2  and  C_3
REMARK    3  A    between atoms: C_3  and  C_5
REMARK    4  A    between atoms: C_3  and  N_6
REMARK    5  A    between atoms: C_11  and  C_29
REMARK    6  A    between atoms: C_29  and  C_30
REMARK    7  A    between atoms: C_30  and  C_31
REMARK    8  A    between atoms: C_30  and  C_32
REMARK                            x       y       z     vdW  Elec       q    Type
REMARK                         _______ _______ _______ _____ _____    ______ ____
ROOT
ATOM      1  N   UNL     1      -1.934  -0.102  -1.173  0.00  0.00    -0.239 N 
ATOM      2  C   UNL     1      -1.560  -0.550  -2.377  0.00  0.00    +0.227 C 
ATOM      3  O   UNL     1      -0.710  -1.391  -2.579  0.00  0.00    -0.275 OA
ATOM      4  C   UNL     1      -2.362   0.155  -3.447  0.00  0.00    +0.107 C 
ATOM      5  C   UNL     1      -1.427   1.085  -4.250  0.00  0.00    +0.068 C 
ATOM      6  N   UNL     1      -2.167   2.370  -4.357  0.00  0.00    -0.295 NA
ATOM      7  C   UNL     1      -2.821   2.521  -3.044  0.00  0.00    +0.136 C 
ATOM      8  C   UNL     1      -3.288   1.103  -2.634  0.00  0.00    +0.122 C 
ATOM      9  C   UNL     1      -2.899   0.824  -1.200  0.00  0.00    +0.228 C 
ATOM     10  O   UNL     1      -3.385   1.358  -0.226  0.00  0.00    -0.275 OA
ATOM     11  C   UNL     1      -3.977   3.478  -3.112  0.00  0.00    +0.005 A 
ATOM     12  C   UNL     1      -5.145   3.504  -3.841  0.00  0.00    +0.027 A 
ATOM     13  C   UNL     1      -6.039   4.549  -3.680  0.00  0.00    +0.041 A 
ATOM     14  C   UNL     1      -5.755   5.566  -2.786  0.00  0.00    +0.022 A 
ATOM     15  C   UNL     1      -4.587   5.543  -2.054  0.00  0.00    +0.025 A 
ATOM     16  C   UNL     1      -3.682   4.496  -2.209  0.00  0.00    +0.039 A 
ATOM     17  N   UNL     1      -2.452   4.253  -1.593  0.00  0.00    -0.283 N 
ATOM     18  C   UNL     1      -1.881   3.113  -2.029  0.00  0.00    +0.243 C 
ATOM     19  O   UNL     1      -0.817   2.654  -1.673  0.00  0.00    -0.273 OA
ATOM     20 CL   UNL     1      -7.512   4.583  -4.599  0.00  0.00    -0.084 Cl
ATOM     21  H   UNL     1      -1.537   3.136  -4.538  0.00  0.00    +0.123 HD
ATOM     22  H   UNL     1      -2.055   4.837  -0.928  0.00  0.00    +0.155 HD
ENDROOT
BRANCH   1  23
ATOM     23  C   UNL     1      -1.339  -0.591   0.074  0.00  0.00    +0.081 C 
ATOM     24  C   UNL     1      -0.710   0.580   0.832  0.00  0.00    +0.028 C 
BRANCH  23  26
ATOM     25  C   UNL     1      -2.959  -2.486   0.240  0.00  0.00    +0.006 C 
ATOM     26  C   UNL     1      -2.425  -1.234   0.939  0.00  0.00    +0.019 C 
ENDBRANCH  23  26
ENDBRANCH   1  23
BRANCH   5  27
ATOM     27  C   UNL     1      -1.163   0.502  -5.640  0.00  0.00    +0.022 C 
BRANCH  27  28
ATOM     28  C   UNL     1      -0.139   1.372  -6.372  0.00  0.00    -0.016 C 
ATOM     29  C   UNL     1       1.204   1.302  -5.642  0.00  0.00    +0.007 C 
ATOM     30  C   UNL     1       0.032   0.863  -7.804  0.00  0.00    +0.007 C 
ENDBRANCH  27  28
ENDBRANCH   5  27
TORSDOF 4
