REMARK  Name = ZINC39710363
REMARK  11 active torsions:
REMARK  status: ('A' for Active; 'I' for Inactive)
REMARK    1  A    between atoms: C_1  and  C_2
REMARK    2  A    between atoms: C_9  and  C_14
REMARK    3  A    between atoms: C_14  and  C_16
REMARK    4  A    between atoms: C_14  and  N_27
REMARK    5  A    between atoms: N_21  and  C_22
REMARK    6  A    between atoms: N_27  and  C_28
REMARK    7  A    between atoms: N_27  and  C_37
REMARK    8  A    between atoms: C_28  and  C_29
REMARK    9  A    between atoms: C_32  and  O_35
REMARK   10  A    between atoms: O_35  and  C_36
REMARK   11  A    between atoms: C_37  and  C_38
REMARK                            x       y       z     vdW  Elec       q    Type
REMARK                         _______ _______ _______ _____ _____    ______ ____
ROOT
ATOM      1  C   UNL     1       1.074  -4.816   2.862  0.00  0.00    -0.009 C 
ENDROOT
BRANCH   1  10
ATOM      2  C   UNL     1      -3.612  -7.306  -1.919  0.00  0.00    +0.044 C 
ATOM      3  C   UNL     1      -3.229  -6.763  -0.566  0.00  0.00    -0.050 A 
ATOM      4  C   UNL     1      -4.051  -7.022   0.531  0.00  0.00    +0.005 A 
ATOM      5  C   UNL     1      -3.771  -6.566   1.780  0.00  0.00    +0.024 A 
ATOM      6  C   UNL     1      -2.615  -5.801   2.019  0.00  0.00    +0.040 A 
ATOM      7  N   UNL     1      -2.350  -5.360   3.249  0.00  0.00    -0.285 N 
ATOM      8  C   UNL     1      -1.283  -4.636   3.542  0.00  0.00    +0.223 C 
ATOM      9  O   UNL     1      -1.094  -4.262   4.684  0.00  0.00    -0.275 OA
ATOM     10  C   UNL     1      -0.298  -4.276   2.452  0.00  0.00    +0.088 C 
ATOM     11  C   UNL     1      -0.595  -4.775   1.052  0.00  0.00    -0.006 C 
ATOM     12  C   UNL     1      -1.728  -5.513   0.878  0.00  0.00    -0.007 A 
ATOM     13  C   UNL     1      -2.087  -6.038  -0.439  0.00  0.00    +0.012 A 
ATOM     14  H   UNL     1      -2.969  -5.580   3.962  0.00  0.00    +0.155 HD
ENDBRANCH   1  10
BRANCH   1  15
ATOM     15  C   UNL     1       2.085  -4.537   1.748  0.00  0.00    +0.205 C 
ATOM     16  N   UNL     1       3.426  -4.983   2.149  0.00  0.00    -0.152 NA
ATOM     17  N   UNL     1       4.182  -4.009   2.165  0.00  0.00    -0.070 NA
ATOM     18  N   UNL     1       3.544  -2.822   1.807  0.00  0.00    -0.179 N 
ATOM     19  N   UNL     1       2.225  -3.082   1.530  0.00  0.00    -0.185 NA
ATOM     20  H   UNL     1       3.966  -1.950   1.760  0.00  0.00    +0.191 HD
BRANCH  19  21
ATOM     21  C   UNL     1       1.894  -2.723   0.145  0.00  0.00    +0.080 C 
ATOM     22  C   UNL     1       2.942  -3.316  -0.820  0.00  0.00    +0.021 C 
ATOM     23  C   UNL     1       3.114  -2.229  -1.910  0.00  0.00    +0.002 C 
ATOM     24  C   UNL     1       3.030  -0.913  -1.097  0.00  0.00    +0.002 C 
ATOM     25  C   UNL     1       1.950  -1.195  -0.031  0.00  0.00    +0.021 C 
ENDBRANCH  19  21
ENDBRANCH   1  15
BRANCH   1  26
ATOM     26  N   UNL     1       0.982  -6.264   3.089  0.00  0.00    +0.389 N 
ATOM     27  H   UNL     1       0.133  -6.472   3.593  0.00  0.00    -0.081 HD
BRANCH  26  28
ATOM     28  C   UNL     1       0.968  -6.962   1.797  0.00  0.00    -0.042 C 
BRANCH  28  29
ATOM     29  C   UNL     1       0.774  -8.439   2.026  0.00  0.00    -0.064 A 
ATOM     30  C   UNL     1       1.873  -9.260   2.203  0.00  0.00    +0.005 A 
ATOM     31  C   UNL     1       1.697 -10.614   2.412  0.00  0.00    +0.046 A 
ATOM     32  C   UNL     1       0.418 -11.150   2.446  0.00  0.00    +0.120 A 
ATOM     33  C   UNL     1      -0.682 -10.324   2.268  0.00  0.00    +0.046 A 
ATOM     34  C   UNL     1      -0.502  -8.970   2.064  0.00  0.00    +0.005 A 
BRANCH  32  35
ATOM     35  O   UNL     1       0.243 -12.482   2.651  0.00  0.00    -0.495 OA
ATOM     36  C   UNL     1      -1.102 -12.964   2.674  0.00  0.00    +0.277 C 
ENDBRANCH  32  35
ENDBRANCH  28  29
ENDBRANCH  26  28
BRANCH  26  37
ATOM     37  C   UNL     1       2.140  -6.711   3.875  0.00  0.00    -0.046 C 
BRANCH  37  38
ATOM     38  C   UNL     1       2.074  -6.096   5.275  0.00  0.00    +0.102 C 
ATOM     39  C   UNL     1       3.296  -6.547   6.103  0.00  0.00    +0.032 C 
ATOM     40  C   UNL     1       2.676  -6.778   7.507  0.00  0.00    +0.030 C 
ATOM     41  C   UNL     1       1.268  -7.299   7.125  0.00  0.00    +0.160 C 
ATOM     42  O   UNL     1       0.897  -6.555   5.951  0.00  0.00    -0.378 OA
ENDBRANCH  37  38
ENDBRANCH  26  37
ENDBRANCH   1  26
TORSDOF 9
