REMARK  Name = ZINC40342104
REMARK  7 active torsions:
REMARK  status: ('A' for Active; 'I' for Inactive)
REMARK    1  A    between atoms: C_1  and  C_2
REMARK    2  A    between atoms: C_2  and  C_3
REMARK    3  A    between atoms: C_2  and  C_4
REMARK    4  A    between atoms: C_4  and  N_5
REMARK    5  A    between atoms: C_6  and  C_23
REMARK    6  A    between atoms: C_9  and  C_16
REMARK    7  A    between atoms: C_26  and  O_29
REMARK                            x       y       z     vdW  Elec       q    Type
REMARK                         _______ _______ _______ _____ _____    ______ ____
ROOT
ATOM      1  N   UNL     1       0.140  -0.069   2.222  0.00  0.00    -0.285 N 
ATOM      2  C   UNL     1       0.001   1.252   2.847  0.00  0.00    +0.141 C 
ATOM      3  C   UNL     1      -1.082   1.112   3.881  0.00  0.00    +0.035 A 
ATOM      4  C   UNL     1      -1.849   1.727   4.877  0.00  0.00    +0.099 A 
ATOM      5  N   UNL     1      -2.668   0.816   5.363  0.00  0.00    -0.173 NA
ATOM      6  N   UNL     1      -2.495  -0.313   4.773  0.00  0.00    -0.272 N 
ATOM      7  H   UNL     1      -2.989  -1.125   4.969  0.00  0.00    +0.189 HD
ATOM      8  C   UNL     1      -1.513  -0.199   3.830  0.00  0.00    +0.126 A 
ATOM      9  C   UNL     1      -0.747  -0.902   2.796  0.00  0.00    +0.265 C 
ATOM     10  O   UNL     1      -0.891  -2.074   2.500  0.00  0.00    -0.268 OA
ENDROOT
BRANCH   4  11
ATOM     11  C   UNL     1      -1.756   3.145   5.307  0.00  0.00    +0.003 A 
ATOM     12  C   UNL     1      -0.524   3.794   5.315  0.00  0.00    +0.011 A 
ATOM     13  C   UNL     1      -0.443   5.112   5.715  0.00  0.00    +0.020 A 
ATOM     14  C   UNL     1      -1.584   5.790   6.109  0.00  0.00    +0.041 A 
ATOM     15  C   UNL     1      -2.811   5.149   6.103  0.00  0.00    +0.020 A 
ATOM     16  C   UNL     1      -2.903   3.833   5.699  0.00  0.00    +0.011 A 
ATOM     17 CL   UNL     1      -1.476   7.448   6.612  0.00  0.00    -0.084 Cl
ENDBRANCH   4  11
BRANCH   2  18
ATOM     18  C   UNL     1      -0.395   2.276   1.815  0.00  0.00    -0.022 A 
ATOM     19  C   UNL     1      -1.365   1.972   0.878  0.00  0.00    +0.009 A 
ATOM     20  C   UNL     1      -1.729   2.908  -0.070  0.00  0.00    +0.046 A 
ATOM     21  C   UNL     1      -1.121   4.155  -0.081  0.00  0.00    +0.117 A 
ATOM     22  C   UNL     1      -0.148   4.458   0.860  0.00  0.00    +0.046 A 
ATOM     23  C   UNL     1       0.209   3.520   1.810  0.00  0.00    +0.009 A 
BRANCH  21  24
ATOM     24  O   UNL     1      -1.478   5.078  -1.013  0.00  0.00    -0.507 OA
ATOM     25  H   UNL     1      -2.204   5.654  -0.738  0.00  0.00    +0.292 HD
ENDBRANCH  21  24
ENDBRANCH   2  18
BRANCH   1  26
ATOM     26  C   UNL     1       1.078  -0.418   1.152  0.00  0.00    +0.112 C 
BRANCH  26  28
ATOM     27  C   UNL     1       2.307  -2.034   2.609  0.00  0.00    +0.009 C 
ATOM     28  C   UNL     1       2.438  -0.767   1.760  0.00  0.00    +0.000 C 
ATOM     29  C   UNL     1       3.451  -1.006   0.640  0.00  0.00    +0.009 C 
ENDBRANCH  26  28
ENDBRANCH   1  26
TORSDOF 5
