REMARK  Name = ZINC35483166
REMARK  16 active torsions:
REMARK  status: ('A' for Active; 'I' for Inactive)
REMARK    1  A    between atoms: C_1  and  C_2
REMARK    2  A    between atoms: C_2  and  C_3
REMARK    3  A    between atoms: C_3  and  C_4
REMARK    4  A    between atoms: C_4  and  C_5
REMARK    5  A    between atoms: C_5  and  O_6
REMARK    6  A    between atoms: O_6  and  C_7
REMARK    7  A    between atoms: C_10  and  C_15
REMARK    8  A    between atoms: C_12  and  O_13
REMARK    9  A    between atoms: O_13  and  C_14
REMARK   10  A    between atoms: N_30  and  C_31
REMARK   11  A    between atoms: C_31  and  C_32
REMARK   12  A    between atoms: C_32  and  N_33
REMARK   13  A    between atoms: N_33  and  C_34
REMARK   14  A    between atoms: N_33  and  C_36
REMARK   15  A    between atoms: C_34  and  C_35
REMARK   16  A    between atoms: C_36  and  C_37
REMARK                            x       y       z     vdW  Elec       q    Type
REMARK                         _______ _______ _______ _____ _____    ______ ____
ROOT
ATOM      1  C   UNL     1       3.727  -5.769  -6.278  0.00  0.00    +0.145 C 
ATOM      2  C   UNL     1       2.701  -5.415  -7.304  0.00  0.00    +0.072 A 
ATOM      3  C   UNL     1       1.318  -5.868  -7.485  0.00  0.00    +0.199 A 
ATOM      4  O   UNL     1       0.719  -6.530  -6.656  0.00  0.00    -0.287 OA
ATOM      5  C   UNL     1       0.717  -5.442  -8.774  0.00  0.00    +0.064 A 
ATOM      6  C   UNL     1      -0.514  -5.955  -9.183  0.00  0.00    +0.015 A 
ATOM      7  C   UNL     1      -1.052  -5.557 -10.375  0.00  0.00    +0.001 A 
ATOM      8  C   UNL     1      -0.377  -4.647 -11.177  0.00  0.00    +0.004 A 
ATOM      9  C   UNL     1       0.838  -4.129 -10.788  0.00  0.00    +0.047 A 
ATOM     10  C   UNL     1       1.407  -4.517  -9.575  0.00  0.00    +0.139 A 
ATOM     11  O   UNL     1       2.596  -3.989  -9.208  0.00  0.00    -0.450 OA
ATOM     12  C   UNL     1       3.266  -4.516  -8.164  0.00  0.00    +0.199 A 
ATOM     13  C   UNL     1       4.653  -4.271  -7.731  0.00  0.00    +0.283 C 
ATOM     14  O   UNL     1       5.433  -3.522  -8.285  0.00  0.00    -0.267 OA
ATOM     15  N   UNL     1       4.931  -4.999  -6.629  0.00  0.00    -0.285 N 
ENDROOT
BRANCH   1  19
ATOM     16  C   UNL     1       2.356  -4.662  -2.381  0.00  0.00    +0.162 A 
ATOM     17  C   UNL     1       2.850  -3.698  -3.245  0.00  0.00    +0.050 A 
ATOM     18  C   UNL     1       3.293  -4.059  -4.504  0.00  0.00    +0.009 A 
ATOM     19  C   UNL     1       3.243  -5.381  -4.904  0.00  0.00    -0.019 A 
ATOM     20  C   UNL     1       2.751  -6.348  -4.048  0.00  0.00    +0.055 A 
ATOM     21  C   UNL     1       2.311  -5.994  -2.782  0.00  0.00    +0.162 A 
BRANCH  21  22
ATOM     22  O   UNL     1       1.832  -6.945  -1.936  0.00  0.00    -0.491 OA
ATOM     23  C   UNL     1       1.816  -8.291  -2.415  0.00  0.00    +0.277 C 
ENDBRANCH  21  22
BRANCH  16  24
ATOM     24  O   UNL     1       1.920  -4.309  -1.143  0.00  0.00    -0.488 OA
BRANCH  24  25
ATOM     25  C   UNL     1       1.995  -2.923  -0.799  0.00  0.00    +0.229 C 
BRANCH  25  26
ATOM     26  C   UNL     1       1.465  -2.720   0.622  0.00  0.00    +0.041 C 
BRANCH  26  27
ATOM     27  C   UNL     1       1.546  -1.238   0.989  0.00  0.00    +0.003 C 
BRANCH  27  29
ATOM     28  C   UNL     1       1.096   0.448   2.777  0.00  0.00    +0.004 C 
ATOM     29  C   UNL     1       1.015  -1.035   2.410  0.00  0.00    -0.003 C 
ENDBRANCH  27  29
ENDBRANCH  26  27
ENDBRANCH  25  26
ENDBRANCH  24  25
ENDBRANCH  16  24
ENDBRANCH   1  19
BRANCH  15  30
ATOM     30  C   UNL     1       6.207  -5.020  -5.908  0.00  0.00    +0.090 C 
BRANCH  30  31
ATOM     31  C   UNL     1       7.103  -6.115  -6.489  0.00  0.00    -0.060 C 
BRANCH  31  32
ATOM     32  N   UNL     1       8.382  -6.135  -5.766  0.00  0.00    +0.380 N 
ATOM     33  H   UNL     1       8.799  -5.217  -5.794  0.00  0.00    -0.082 HD
BRANCH  32  34
ATOM     34  C   UNL     1       8.149  -6.525  -4.370  0.00  0.00    -0.082 C 
ATOM     35  C   UNL     1       9.455  -6.409  -3.582  0.00  0.00    -0.017 C 
ENDBRANCH  32  34
BRANCH  32  36
ATOM     36  C   UNL     1       9.287  -7.103  -6.400  0.00  0.00    -0.082 C 
ATOM     37  C   UNL     1       9.644  -6.622  -7.808  0.00  0.00    -0.017 C 
ENDBRANCH  32  36
ENDBRANCH  31  32
ENDBRANCH  30  31
ENDBRANCH  15  30
TORSDOF 12
