REMARK  Name = ZINC59019489
REMARK  8 active torsions:
REMARK  status: ('A' for Active; 'I' for Inactive)
REMARK    1  A    between atoms: C_1  and  C_2
REMARK    2  A    between atoms: C_5  and  C_8
REMARK    3  A    between atoms: N_9  and  N_10
REMARK    4  A    between atoms: C_13  and  S_16
REMARK    5  A    between atoms: S_16  and  C_17
REMARK    6  A    between atoms: C_17  and  C_18
REMARK    7  A    between atoms: N_20  and  C_21
REMARK    8  A    between atoms: C_26  and  C_27
REMARK                            x       y       z     vdW  Elec       q    Type
REMARK                         _______ _______ _______ _____ _____    ______ ____
ROOT
ATOM      1  N   UNL     1       0.149  -6.304   1.091  0.00  0.00    -0.205 N 
ATOM      2  C   UNL     1       0.156  -7.002   2.285  0.00  0.00    +0.232 A 
ATOM      3  N   UNL     1       0.139  -6.474   3.490  0.00  0.00    -0.186 NA
ATOM      4  C   UNL     1       0.154  -7.446   4.408  0.00  0.00    +0.211 A 
ATOM      5  N   UNL     1       0.181  -8.607   3.799  0.00  0.00    -0.144 NA
ATOM      6  N   UNL     1       0.177  -8.345   2.419  0.00  0.00    -0.245 N 
ATOM      7  H   UNL     1       0.159  -6.785   0.248  0.00  0.00    +0.177 HD
ATOM      8  H   UNL     1       0.189  -9.000   1.704  0.00  0.00    +0.192 HD
ENDROOT
BRANCH   1  10
ATOM      9  C   UNL     1       0.119  -4.249  -0.022  0.00  0.00    +0.138 C 
ATOM     10  N   UNL     1       0.127  -4.904   1.098  0.00  0.00    -0.188 NA
BRANCH   9  15
ATOM     11  C   UNL     1       0.029   1.502   0.008  0.00  0.00    +0.044 C 
ATOM     12  C   UNL     1       0.052  -0.005   0.000  0.00  0.00    -0.050 A 
ATOM     13  C   UNL     1       0.067  -0.687  -1.204  0.00  0.00    +0.004 A 
ATOM     14  C   UNL     1       0.089  -2.066  -1.219  0.00  0.00    +0.010 A 
ATOM     15  C   UNL     1       0.096  -2.774  -0.015  0.00  0.00    -0.005 A 
ATOM     16  C   UNL     1       0.082  -2.079   1.197  0.00  0.00    +0.010 A 
ATOM     17  C   UNL     1       0.065  -0.700   1.197  0.00  0.00    +0.004 A 
ENDBRANCH   9  15
ENDBRANCH   1  10
BRANCH   4  18
ATOM     18  S   UNL     1       0.139  -7.206   6.154  0.00  0.00    -0.075 S 
BRANCH  18  19
ATOM     19  C   UNL     1       0.170  -8.890   6.828  0.00  0.00    +0.173 C 
BRANCH  19  20
ATOM     20  C   UNL     1       0.160  -8.828   8.334  0.00  0.00    +0.227 C 
ATOM     21  O   UNL     1       0.136  -7.754   8.897  0.00  0.00    -0.275 OA
ATOM     22  N   UNL     1       0.180  -9.967   9.055  0.00  0.00    -0.285 N 
ATOM     23  H   UNL     1       0.119 -10.825   8.608  0.00  0.00    +0.155 HD
BRANCH  22  24
ATOM     24  C   UNL     1       0.287  -9.910  10.449  0.00  0.00    +0.036 A 
ATOM     25  C   UNL     1       0.875  -8.808  11.057  0.00  0.00    +0.024 A 
ATOM     26  C   UNL     1       0.980  -8.755  12.433  0.00  0.00    +0.017 A 
ATOM     27  C   UNL     1       0.500  -9.798  13.206  0.00  0.00    +0.018 A 
ATOM     28  C   UNL     1      -0.085 -10.896  12.603  0.00  0.00    +0.020 A 
ATOM     29  C   UNL     1      -0.198 -10.953  11.227  0.00  0.00    -0.028 A 
ATOM     30  C   UNL     1      -0.842 -12.147  10.572  0.00  0.00    +0.046 C 
ATOM     31 BR   UNL     1       0.647  -9.722  15.090  0.00  0.00    -0.050 Br
ENDBRANCH  22  24
ENDBRANCH  19  20
ENDBRANCH  18  19
ENDBRANCH   4  18
TORSDOF 6
