REMARK  Name = ZINC64025229
REMARK  5 active torsions:
REMARK  status: ('A' for Active; 'I' for Inactive)
REMARK    1  A    between atoms: C_11  and  C_14
REMARK    2  A    between atoms: C_14  and  C_16
REMARK    3  A    between atoms: C_16  and  C_17
REMARK    4  A    between atoms: C_17  and  C_18
REMARK    5  A    between atoms: N_20  and  C_21
REMARK                            x       y       z     vdW  Elec       q    Type
REMARK                         _______ _______ _______ _____ _____    ______ ____
ROOT
ATOM      1  C   UNL     1       8.185  -2.759  -0.096  0.00  0.00    +0.089 C 
ENDROOT
BRANCH   1   2
ATOM      2  C   UNL     1       7.244  -1.582  -0.089  0.00  0.00    +0.164 C 
ATOM      3  O   UNL     1       7.686  -0.453  -0.097  0.00  0.00    -0.292 OA
BRANCH   2  14
ATOM      4  C   UNL     1      -0.017   1.381  -0.022  0.00  0.00    +0.000 A 
ATOM      5  C   UNL     1       1.171   2.090  -0.035  0.00  0.00    +0.001 A 
ATOM      6  C   UNL     1       2.379   1.424  -0.046  0.00  0.00    +0.009 A 
ATOM      7  C   UNL     1       2.405   0.028  -0.043  0.00  0.00    -0.014 A 
ATOM      8  C   UNL     1       1.205  -0.677  -0.029  0.00  0.00    -0.035 A 
ATOM      9  C   UNL     1       0.002  -0.003  -0.019  0.00  0.00    +0.004 A 
ATOM     10  C   UNL     1       1.541  -2.148  -0.030  0.00  0.00    +0.071 C 
ATOM     11  C   UNL     1       3.049  -2.232  -0.045  0.00  0.00    -0.035 A 
ATOM     12  C   UNL     1       3.541  -0.928  -0.053  0.00  0.00    -0.013 A 
ATOM     13  C   UNL     1       4.917  -0.713  -0.067  0.00  0.00    +0.020 A 
ATOM     14  C   UNL     1       5.789  -1.803  -0.074  0.00  0.00    +0.018 A 
ATOM     15  C   UNL     1       5.278  -3.105  -0.066  0.00  0.00    +0.011 A 
ATOM     16  C   UNL     1       3.913  -3.309  -0.051  0.00  0.00    +0.005 A 
ENDBRANCH   2  14
ENDBRANCH   1   2
BRANCH   1  17
ATOM     17  C   UNL     1       9.630  -2.257  -0.113  0.00  0.00    +0.104 C 
BRANCH  17  18
ATOM     18  C   UNL     1      10.571  -3.435  -0.120  0.00  0.00    +0.218 C 
ATOM     19  O   UNL     1      10.129  -4.564  -0.112  0.00  0.00    -0.275 OA
ATOM     20  N   UNL     1      11.903  -3.233  -0.134  0.00  0.00    -0.285 N 
ATOM     21  H   UNL     1      12.257  -2.332  -0.208  0.00  0.00    +0.155 HD
BRANCH  20  22
ATOM     22  C   UNL     1      12.778  -4.323  -0.043  0.00  0.00    +0.036 A 
ATOM     23  C   UNL     1      13.977  -4.195   0.648  0.00  0.00    +0.027 A 
ATOM     24  C   UNL     1      14.843  -5.266   0.742  0.00  0.00    +0.050 A 
ATOM     25  C   UNL     1      14.518  -6.475   0.145  0.00  0.00    +0.157 A 
ATOM     26  C   UNL     1      13.315  -6.605  -0.548  0.00  0.00    +0.089 A 
ATOM     27  C   UNL     1      12.444  -5.531  -0.637  0.00  0.00    +0.052 A 
ATOM     28  N   UNL     1      13.271  -7.914  -1.028  0.00  0.00    -0.288 N 
ATOM     29  H   UNL     1      12.557  -8.309  -1.552  0.00  0.00    +0.172 HD
ATOM     30  C   UNL     1      14.404  -8.528  -0.633  0.00  0.00    +0.419 A 
ATOM     31  O   UNL     1      14.698  -9.683  -0.877  0.00  0.00    -0.223 OA
ATOM     32  O   UNL     1      15.156  -7.669   0.072  0.00  0.00    -0.408 OA
ENDBRANCH  20  22
ENDBRANCH  17  18
ENDBRANCH   1  17
TORSDOF 5
