REMARK  Name = ZINC35447610
REMARK  11 active torsions:
REMARK  status: ('A' for Active; 'I' for Inactive)
REMARK    1  A    between atoms: C_1  and  C_2
REMARK    2  A    between atoms: C_5  and  C_40
REMARK    3  A    between atoms: N_8  and  S_10
REMARK    4  A    between atoms: S_10  and  C_13
REMARK    5  A    between atoms: C_17  and  C_19
REMARK    6  A    between atoms: C_20  and  C_30
REMARK    7  A    between atoms: N_22  and  C_24
REMARK    8  A    between atoms: C_31  and  C_32
REMARK    9  A    between atoms: C_31  and  C_34
REMARK   10  A    between atoms: N_36  and  C_37
REMARK   11  A    between atoms: C_37  and  C_38
REMARK                            x       y       z     vdW  Elec       q    Type
REMARK                         _______ _______ _______ _____ _____    ______ ____
ROOT
ATOM      1  C   UNL     1      -0.257   5.369   3.888  0.00  0.00    +0.100 A 
ATOM      2  C   UNL     1       0.048   6.782   4.153  0.00  0.00    +0.022 A 
ATOM      3  C   UNL     1      -0.910   7.224   5.053  0.00  0.00    +0.123 A 
ATOM      4  N   UNL     1      -1.728   6.191   5.320  0.00  0.00    -0.239 N 
ATOM      5  N   UNL     1      -1.320   5.066   4.598  0.00  0.00    -0.166 NA
ENDROOT
BRANCH   1  10
ATOM      6  C   UNL     1       1.319   2.268   2.466  0.00  0.00    +0.106 A 
ATOM      7  C   UNL     1       1.885   2.761   1.304  0.00  0.00    +0.028 A 
ATOM      8  C   UNL     1       1.757   4.100   0.980  0.00  0.00    +0.003 A 
ATOM      9  C   UNL     1       1.062   4.951   1.815  0.00  0.00    +0.010 A 
ATOM     10  C   UNL     1       0.490   4.460   2.987  0.00  0.00    +0.005 A 
ATOM     11  C   UNL     1       0.618   3.108   3.306  0.00  0.00    +0.038 A 
BRANCH   6  12
ATOM     12  S   UNL     1       1.488   0.561   2.870  0.00  0.00    +0.061 S 
ATOM     13  O   UNL     1       1.329   0.460   4.279  0.00  0.00    -0.153 OA
ATOM     14  O   UNL     1       2.652   0.098   2.200  0.00  0.00    -0.153 OA
BRANCH  12  20
ATOM     15  C   UNL     1      -2.054   1.636   1.907  0.00  0.00    +0.009 C 
ATOM     16  C   UNL     1      -2.209   0.125   2.091  0.00  0.00    +0.002 C 
ATOM     17  C   UNL     1      -2.193  -0.561   0.723  0.00  0.00    +0.009 C 
ATOM     18  C   UNL     1      -0.881  -0.238   0.004  0.00  0.00    +0.002 C 
ATOM     19  C   UNL     1       0.294  -0.775   0.828  0.00  0.00    +0.112 C 
ATOM     20  N   UNL     1       0.203  -0.232   2.191  0.00  0.00    -0.176 NA
ATOM     21  C   UNL     1      -1.050  -0.408   2.939  0.00  0.00    +0.112 C 
ATOM     22  C   UNL     1      -0.880  -0.896  -1.377  0.00  0.00    +0.009 C 
ENDBRANCH  12  20
ENDBRANCH   6  12
ENDBRANCH   1  10
BRANCH   4  23
ATOM     23  C   UNL     1      -2.826   6.237   6.188  0.00  0.00    +0.065 A 
ATOM     24  C   UNL     1      -3.144   7.418   6.846  0.00  0.00    +0.028 A 
ATOM     25  C   UNL     1      -4.228   7.460   7.701  0.00  0.00    +0.002 A 
ATOM     26  C   UNL     1      -4.996   6.327   7.903  0.00  0.00    +0.000 A 
ATOM     27  C   UNL     1      -4.681   5.150   7.249  0.00  0.00    +0.002 A 
ATOM     28  C   UNL     1      -3.603   5.103   6.388  0.00  0.00    +0.028 A 
ENDBRANCH   4  23
BRANCH   2  29
ATOM     29  C   UNL     1       1.142   7.565   3.583  0.00  0.00    +0.035 C 
ATOM     30  C   UNL     1       0.903   8.835   3.100  0.00  0.00    +0.114 C 
BRANCH  30  31
ATOM     31  C   UNL     1      -0.478   9.303   2.912  0.00  0.00    +0.255 C 
ATOM     32  O   UNL     1      -1.407   8.531   3.061  0.00  0.00    -0.269 OA
ATOM     33  N   UNL     1      -0.715  10.585   2.574  0.00  0.00    -0.307 N 
ATOM     34  H   UNL     1       0.025  11.201   2.455  0.00  0.00    +0.149 HD
BRANCH  33  35
ATOM     35  C   UNL     1      -2.092  11.051   2.386  0.00  0.00    +0.131 C 
BRANCH  35  36
ATOM     36  C   UNL     1      -2.082  12.512   2.016  0.00  0.00    -0.016 C 
ATOM     37  C   UNL     1      -2.682  12.915   0.924  0.00  0.00    +0.005 C 
ENDBRANCH  35  36
ENDBRANCH  33  35
ENDBRANCH  30  31
BRANCH  30  38
ATOM     38  C   UNL     1       2.001   9.699   2.783  0.00  0.00    +0.104 C 
ATOM     39  N   UNL     1       2.871  10.384   2.531  0.00  0.00    -0.191 NA
ENDBRANCH  30  38
ENDBRANCH   2  29
TORSDOF 9
