REMARK  Name = ZINC08963246
REMARK  8 active torsions:
REMARK  status: ('A' for Active; 'I' for Inactive)
REMARK    1  A    between atoms: C_1  and  C_2
REMARK    2  A    between atoms: C_3  and  C_11
REMARK    3  A    between atoms: C_7  and  N_8
REMARK    4  A    between atoms: N_13  and  C_14
REMARK    5  A    between atoms: C_14  and  C_15
REMARK    6  A    between atoms: C_15  and  C_17
REMARK    7  A    between atoms: C_15  and  N_58
REMARK    8  A    between atoms: N_25  and  C_26
REMARK                            x       y       z     vdW  Elec       q    Type
REMARK                         _______ _______ _______ _____ _____    ______ ____
ROOT
ATOM      1  C   UNL     1      -4.320   6.441  -0.876  0.00  0.00    -0.020 C 
ENDROOT
BRANCH   1   2
ATOM      2  C   UNL     1      -3.473   5.343  -0.285  0.00  0.00    -0.059 A 
ATOM      3  C   UNL     1      -3.478   5.124   1.081  0.00  0.00    +0.004 A 
ATOM      4  C   UNL     1      -2.707   4.119   1.626  0.00  0.00    +0.023 A 
ATOM      5  C   UNL     1      -1.917   3.317   0.804  0.00  0.00    +0.033 A 
ATOM      6  C   UNL     1      -1.915   3.549  -0.566  0.00  0.00    -0.025 A 
ATOM      7  C   UNL     1      -2.690   4.554  -1.107  0.00  0.00    +0.007 A 
ATOM      8  C   UNL     1      -0.974   2.549  -1.208  0.00  0.00    +0.056 C 
ATOM      9  C   UNL     1      -0.153   2.030  -0.005  0.00  0.00    +0.109 C 
ATOM     10  N   UNL     1      -1.068   2.250   1.136  0.00  0.00    -0.332 N 
ATOM     11  C   UNL     1      -0.317   2.531   2.367  0.00  0.00    +0.129 C 
ENDBRANCH   1   2
BRANCH   1  16
ATOM     12  C   UNL     1      -2.881   8.141   0.108  0.00  0.00    -0.078 C 
ATOM     13  C   UNL     1      -3.086   9.603   0.580  0.00  0.00    -0.020 C 
ATOM     14  C   UNL     1      -4.350  10.042  -0.194  0.00  0.00    -0.020 C 
ATOM     15  C   UNL     1      -5.069   8.732  -0.566  0.00  0.00    -0.078 C 
ATOM     16  N   UNL     1      -4.263   7.649   0.001  0.00  0.00    +0.385 N 
ATOM     17  H   UNL     1      -4.618   7.405   0.933  0.00  0.00    -0.081 HD
ENDBRANCH   1  16
BRANCH   1  18
ATOM     18  C   UNL     1      -5.767   5.960  -0.998  0.00  0.00    +0.094 C 
BRANCH  18  21
ATOM     19  C   UNL     1      -7.032   4.346  -2.313  0.00  0.00    +0.244 C 
ATOM     20  O   UNL     1      -8.052   4.787  -1.821  0.00  0.00    -0.270 OA
ATOM     21  N   UNL     1      -5.837   4.864  -1.968  0.00  0.00    -0.313 N 
ATOM     22  H   UNL     1      -5.023   4.512  -2.361  0.00  0.00    +0.149 HD
BRANCH  19  25
ATOM     23  C   UNL     1      -9.569   3.054  -2.832  0.00  0.00    +0.047 C 
ATOM     24  C   UNL     1      -8.321   2.609  -3.550  0.00  0.00    -0.008 A 
ATOM     25  C   UNL     1      -7.103   3.240  -3.292  0.00  0.00    +0.042 A 
ATOM     26  C   UNL     1      -5.951   2.818  -3.957  0.00  0.00    +0.013 A 
ATOM     27  C   UNL     1      -6.024   1.785  -4.869  0.00  0.00    +0.003 A 
ATOM     28  C   UNL     1      -7.235   1.168  -5.124  0.00  0.00    +0.033 A 
ATOM     29  C   UNL     1      -8.381   1.581  -4.468  0.00  0.00    +0.130 A 
BRANCH  29  30
ATOM     30  N   UNL     1      -9.673   0.915  -4.747  0.00  0.00    +0.057 N 
ATOM     31  O   UNL     1      -9.707  -0.075  -5.456  0.00  0.00    -0.126 OA
ATOM     32  O   UNL     1     -10.702   1.356  -4.268  0.00  0.00    -0.126 OA
ENDBRANCH  29  30
ENDBRANCH  19  25
ENDBRANCH  18  21
ENDBRANCH   1  18
TORSDOF 6
