REMARK  Name = ZINC12149414
REMARK  10 active torsions:
REMARK  status: ('A' for Active; 'I' for Inactive)
REMARK    1  A    between atoms: C_1  and  C_2
REMARK    2  A    between atoms: C_2  and  C_3
REMARK    3  A    between atoms: C_3  and  C_22
REMARK    4  A    between atoms: N_6  and  C_10
REMARK    5  A    between atoms: C_10  and  C_11
REMARK    6  A    between atoms: C_27  and  C_28
REMARK    7  A    between atoms: C_27  and  N_69
REMARK    8  A    between atoms: C_31  and  O_35
REMARK    9  A    between atoms: C_33  and  O_34
REMARK   10  A    between atoms: O_35  and  C_36
REMARK                            x       y       z     vdW  Elec       q    Type
REMARK                         _______ _______ _______ _____ _____    ______ ____
ROOT
ATOM      1  C   UNL     1      -4.483   4.949  -5.225  0.00  0.00    +0.115 C 
ATOM      2  C   UNL     1      -3.679   6.226  -5.367  0.00  0.00    +0.247 C 
ATOM      3  O   UNL     1      -2.475   6.345  -5.290  0.00  0.00    -0.273 OA
ATOM      4  N   UNL     1      -4.580   7.201  -5.596  0.00  0.00    -0.221 N 
ATOM      5  C   UNL     1      -5.830   6.723  -5.617  0.00  0.00    +0.309 C 
ATOM      6  O   UNL     1      -6.813   7.411  -5.806  0.00  0.00    -0.252 OA
ATOM      7  N   UNL     1      -5.875   5.395  -5.407  0.00  0.00    -0.285 N 
ATOM      8  H   UNL     1      -6.670   4.839  -5.380  0.00  0.00    +0.151 HD
ENDROOT
BRANCH   1   9
ATOM      9  C   UNL     1      -4.290   4.343  -3.834  0.00  0.00    +0.018 C 
ATOM     10  C   UNL     1      -4.513   5.421  -2.770  0.00  0.00    -0.013 C 
ATOM     11  C   UNL     1      -4.258   4.824  -1.384  0.00  0.00    -0.078 C 
ATOM     12  C   UNL     1      -2.658   3.248  -2.293  0.00  0.00    -0.078 C 
ATOM     13  C   UNL     1      -2.864   3.798  -3.707  0.00  0.00    -0.013 C 
ATOM     14  N   UNL     1      -2.863   4.341  -1.319  0.00  0.00    +0.382 N 
ATOM     15  H   UNL     1      -2.231   5.116  -1.550  0.00  0.00    -0.081 HD
BRANCH  14  16
ATOM     16  C   UNL     1      -2.558   3.863   0.046  0.00  0.00    -0.039 C 
BRANCH  16  17
ATOM     17  C   UNL     1      -1.241   3.131   0.030  0.00  0.00    -0.022 A 
ATOM     18  C   UNL     1      -1.219   1.750   0.017  0.00  0.00    +0.009 A 
ATOM     19  C   UNL     1      -0.013   1.076   0.008  0.00  0.00    +0.046 A 
ATOM     20  C   UNL     1       1.180   1.786   0.000  0.00  0.00    +0.124 A 
ATOM     21  C   UNL     1       1.161   3.171   0.007  0.00  0.00    +0.091 A 
ATOM     22  C   UNL     1      -0.051   3.845   0.022  0.00  0.00    +0.122 A 
BRANCH  22  23
ATOM     23  O   UNL     1      -0.073   5.204   0.029  0.00  0.00    -0.506 OA
ATOM     24  H   UNL     1      -0.088   5.602  -0.853  0.00  0.00    +0.292 HD
ENDBRANCH  22  23
BRANCH  20  25
ATOM     25  O   UNL     1       2.366   1.122  -0.015  0.00  0.00    -0.495 OA
ATOM     26  C   UNL     1       2.311  -0.306  -0.022  0.00  0.00    +0.277 C 
ENDBRANCH  20  25
ENDBRANCH  16  17
ENDBRANCH  14  16
ENDBRANCH   1   9
BRANCH   1  28
ATOM     27  C   UNL     1      -4.297   4.571  -7.688  0.00  0.00    +0.006 C 
ATOM     28  C   UNL     1      -4.095   3.941  -6.309  0.00  0.00    +0.032 C 
ENDBRANCH   1  28
BRANCH   4  29
ATOM     29  C   UNL     1      -4.235   8.611  -5.796  0.00  0.00    +0.166 C 
BRANCH  29  30
ATOM     30  C   UNL     1      -4.227   9.331  -4.446  0.00  0.00    +0.229 C 
ATOM     31  C   UNL     1      -3.896  10.815  -4.653  0.00  0.00    +0.275 C 
ATOM     32  O   UNL     1      -3.910  11.460  -3.375  0.00  0.00    -0.485 OA
ATOM     33  C   UNL     1      -4.964  11.181  -2.561  0.00  0.00    +0.162 A 
ATOM     34  C   UNL     1      -5.234  12.015  -1.486  0.00  0.00    +0.049 A 
ATOM     35  C   UNL     1      -6.297  11.740  -0.646  0.00  0.00    +0.004 A 
ATOM     36  C   UNL     1      -7.093  10.634  -0.874  0.00  0.00    +0.004 A 
ATOM     37  C   UNL     1      -6.831   9.800  -1.944  0.00  0.00    +0.049 A 
ATOM     38  C   UNL     1      -5.767  10.070  -2.792  0.00  0.00    +0.163 A 
ATOM     39  O   UNL     1      -5.522   9.241  -3.843  0.00  0.00    -0.480 OA
ENDBRANCH  29  30
ENDBRANCH   4  29
TORSDOF 8
