REMARK  Name = ZINC21221348
REMARK  9 active torsions:
REMARK  status: ('A' for Active; 'I' for Inactive)
REMARK    1  A    between atoms: C_1  and  O_2
REMARK    2  A    between atoms: O_2  and  C_3
REMARK    3  A    between atoms: C_5  and  C_13
REMARK    4  A    between atoms: C_7  and  O_11
REMARK    5  A    between atoms: C_8  and  O_9
REMARK    6  A    between atoms: O_9  and  C_10
REMARK    7  A    between atoms: O_11  and  C_12
REMARK    8  A    between atoms: C_18  and  C_28
REMARK    9  A    between atoms: C_32  and  O_34
REMARK                            x       y       z     vdW  Elec       q    Type
REMARK                         _______ _______ _______ _____ _____    ______ ____
ROOT
ATOM      1  C   UNL     1       1.748  -0.436   0.985  0.00  0.00    +0.032 C 
ATOM      2  C   UNL     1       0.503  -0.133   0.154  0.00  0.00    +0.059 C 
ATOM      3  C   UNL     1       0.282   1.369   0.080  0.00  0.00    +0.017 C 
ATOM      4  C   UNL     1       1.329   2.210   0.079  0.00  0.00    +0.036 C 
ATOM      5  C   UNL     1       1.256   3.716  -0.013  0.00  0.00    +0.136 C 
ATOM      6  N   UNL     1      -0.073   4.263   0.161  0.00  0.00    -0.331 N 
ATOM      7  C   UNL     1      -1.089   3.990  -0.754  0.00  0.00    +0.049 A 
ATOM      8  C   UNL     1      -1.649   4.990  -1.533  0.00  0.00    +0.025 A 
ATOM      9  C   UNL     1      -2.623   4.664  -2.460  0.00  0.00    +0.002 A 
ATOM     10  C   UNL     1      -3.035   3.352  -2.611  0.00  0.00    +0.002 A 
ATOM     11  C   UNL     1      -2.489   2.353  -1.823  0.00  0.00    +0.025 A 
ATOM     12  C   UNL     1      -1.529   2.682  -0.881  0.00  0.00    +0.052 A 
ATOM     13  N   UNL     1      -1.019   1.748   0.012  0.00  0.00    -0.316 N 
ATOM     14  C   UNL     1       2.648   1.707   0.171  0.00  0.00    +0.163 C 
ATOM     15  O   UNL     1       3.577   2.490   0.144  0.00  0.00    -0.292 OA
ATOM     16  C   UNL     1       2.941   0.243   0.301  0.00  0.00    +0.088 C 
ATOM     17  H   UNL     1      -0.295   4.905   1.026  0.00  0.00    +0.147 HD
ATOM     18  H   UNL     1      -1.757   1.307   0.699  0.00  0.00    +0.152 HD
ENDROOT
BRANCH   1  21
ATOM     19  C   UNL     1       2.185  -3.942   2.325  0.00  0.00    +0.165 A 
ATOM     20  C   UNL     1       1.979  -2.572   2.266  0.00  0.00    +0.053 A 
ATOM     21  C   UNL     1       1.973  -1.925   1.044  0.00  0.00    -0.036 A 
ATOM     22  C   UNL     1       2.167  -2.640  -0.122  0.00  0.00    +0.053 A 
ATOM     23  C   UNL     1       2.380  -4.009  -0.071  0.00  0.00    +0.165 A 
ATOM     24  C   UNL     1       2.386  -4.664   1.155  0.00  0.00    +0.204 A 
BRANCH  19  26
ATOM     25  C   UNL     1       1.977  -3.773   4.688  0.00  0.00    +0.277 C 
ATOM     26  O   UNL     1       2.190  -4.579   3.527  0.00  0.00    -0.491 OA
ENDBRANCH  19  26
BRANCH  24  27
ATOM     27  O   UNL     1       2.589  -6.009   1.209  0.00  0.00    -0.488 OA
ATOM     28  C   UNL     1       1.431  -6.843   1.138  0.00  0.00    +0.277 C 
ENDBRANCH  24  27
BRANCH  23  29
ATOM     29  O   UNL     1       2.576  -4.711  -1.219  0.00  0.00    -0.491 OA
ATOM     30  C   UNL     1       2.557  -3.973  -2.442  0.00  0.00    +0.277 C 
ENDBRANCH  23  29
ENDBRANCH   1  21
BRANCH   5  31
ATOM     31  C   UNL     1       1.774   4.138  -1.363  0.00  0.00    -0.019 A 
ATOM     32  C   UNL     1       2.914   4.916  -1.454  0.00  0.00    +0.006 A 
ATOM     33  C   UNL     1       3.392   5.305  -2.692  0.00  0.00    +0.004 A 
ATOM     34  C   UNL     1       2.731   4.917  -3.841  0.00  0.00    +0.045 A 
ATOM     35  C   UNL     1       1.588   4.137  -3.753  0.00  0.00    +0.117 A 
ATOM     36  C   UNL     1       1.113   3.743  -2.510  0.00  0.00    +0.051 A 
BRANCH  35  37
ATOM     37  O   UNL     1       0.936   3.754  -4.883  0.00  0.00    -0.507 OA
ATOM     38  H   UNL     1       0.030   3.135  -4.812  0.00  0.00    +0.292 HD
ENDBRANCH  35  37
ENDBRANCH   5  31
TORSDOF 6
