REMARK  Name = ZINC39677226
REMARK  6 active torsions:
REMARK  status: ('A' for Active; 'I' for Inactive)
REMARK    1  A    between atoms: C_1  and  C_2
REMARK    2  A    between atoms: C_6  and  C_9
REMARK    3  A    between atoms: C_13  and  C_22
REMARK    4  A    between atoms: N_24  and  C_25
REMARK    5  A    between atoms: C_25  and  C_26
REMARK    6  A    between atoms: C_27  and  C_31
REMARK                            x       y       z     vdW  Elec       q    Type
REMARK                         _______ _______ _______ _____ _____    ______ ____
ROOT
ATOM      1  C   UNL     1       0.088  -2.899   2.605  0.00  0.00    +0.251 C 
ATOM      2  O   UNL     1       1.131  -3.254   3.118  0.00  0.00    -0.270 OA
ATOM      3  N   UNL     1      -1.089  -3.271   3.146  0.00  0.00    -0.296 N 
ATOM      4  C   UNL     1      -2.453  -2.946   2.666  0.00  0.00    +0.121 C 
ATOM      5  C   UNL     1      -3.264  -4.243   2.884  0.00  0.00    +0.100 C 
ATOM      6  C   UNL     1      -2.511  -4.994   3.995  0.00  0.00    -0.004 C 
ATOM      7  C   UNL     1      -1.312  -4.104   4.353  0.00  0.00    +0.115 C 
ATOM      8  C   UNL     1      -2.022  -6.345   3.482  0.00  0.00    -0.010 C 
ATOM      9  C   UNL     1      -1.328  -7.097   4.621  0.00  0.00    -0.082 C 
ATOM     10  N   UNL     1      -2.269  -7.284   5.733  0.00  0.00    +0.379 N 
ATOM     11  C   UNL     1      -2.662  -5.980   6.280  0.00  0.00    -0.082 C 
ATOM     12  C   UNL     1      -3.413  -5.181   5.211  0.00  0.00    -0.010 C 
ATOM     13  H   UNL     1      -3.088  -7.768   5.399  0.00  0.00    -0.086 HD
ATOM     14  H   UNL     1      -1.828  -7.832   6.456  0.00  0.00    -0.086 HD
ENDROOT
BRANCH   1  20
ATOM     15  C   UNL     1       0.152   1.614   0.469  0.00  0.00    +0.047 C 
ATOM     16  C   UNL     1       0.140   0.112   0.356  0.00  0.00    -0.014 A 
ATOM     17  C   UNL     1       0.150  -0.486  -0.891  0.00  0.00    +0.007 A 
ATOM     18  C   UNL     1       0.139  -1.865  -1.005  0.00  0.00    +0.021 A 
ATOM     19  C   UNL     1       0.119  -2.656   0.126  0.00  0.00    +0.056 A 
ATOM     20  C   UNL     1       0.110  -2.061   1.391  0.00  0.00    +0.091 A 
ATOM     21  C   UNL     1       0.126  -0.666   1.499  0.00  0.00    +0.140 A 
ATOM     22  F   UNL     1       0.122  -0.081   2.717  0.00  0.00    -0.204 F 
ATOM     23 CL   UNL     1       0.104  -4.386  -0.021  0.00  0.00    -0.083 Cl
ENDBRANCH   1  20
BRANCH   5  24
ATOM     24  C   UNL     1      -4.667  -3.917   3.325  0.00  0.00    +0.218 C 
ATOM     25  O   UNL     1      -4.881  -2.917   3.977  0.00  0.00    -0.275 OA
ATOM     26  N   UNL     1      -5.685  -4.737   2.994  0.00  0.00    -0.310 N 
ATOM     27  H   UNL     1      -5.514  -5.536   2.473  0.00  0.00    +0.149 HD
BRANCH  26  28
ATOM     28  C   UNL     1      -7.049  -4.420   3.423  0.00  0.00    +0.147 C 
BRANCH  28  29
ATOM     29  C   UNL     1      -7.992  -5.486   2.928  0.00  0.00    +0.010 A 
ATOM     30  C   UNL     1      -8.378  -6.634   3.537  0.00  0.00    -0.039 A 
ATOM     31  C   UNL     1      -9.264  -7.473   2.887  0.00  0.00    +0.011 A 
ATOM     32  C   UNL     1      -9.720  -7.122   1.659  0.00  0.00    +0.046 A 
ATOM     33  S   UNL     1      -8.896  -5.562   1.390  0.00  0.00    -0.100 S 
ATOM     34  C   UNL     1      -7.850  -6.990   4.902  0.00  0.00    +0.044 C 
ENDBRANCH  28  29
ENDBRANCH  26  28
ENDBRANCH   5  24
TORSDOF 4
