REMARK  Name = ZINC00626297
REMARK  14 active torsions:
REMARK  status: ('A' for Active; 'I' for Inactive)
REMARK    1  A    between atoms: C_1  and  C_2
REMARK    2  A    between atoms: C_2  and  C_35
REMARK    3  A    between atoms: C_3  and  C_7
REMARK    4  A    between atoms: C_4  and  C_5
REMARK    5  A    between atoms: C_4  and  C_6
REMARK    6  A    between atoms: N_9  and  C_10
REMARK    7  A    between atoms: C_13  and  S_16
REMARK    8  A    between atoms: S_16  and  C_19
REMARK    9  A    between atoms: C_22  and  N_25
REMARK   10  A    between atoms: C_26  and  C_28
REMARK   11  A    between atoms: C_29  and  C_33
REMARK   12  A    between atoms: C_29  and  C_34
REMARK   13  A    between atoms: C_30  and  C_31
REMARK   14  A    between atoms: C_30  and  C_32
REMARK                            x       y       z     vdW  Elec       q    Type
REMARK                         _______ _______ _______ _____ _____    ______ ____
ROOT
ATOM      1  S   UNL     1       9.632  -7.287  -7.607  0.00  0.00    +0.025 S 
ATOM      2  O   UNL     1      10.812  -7.854  -8.160  0.00  0.00    -0.164 OA
ATOM      3  O   UNL     1       8.648  -8.070  -6.947  0.00  0.00    -0.164 OA
ENDROOT
BRANCH   1   7
ATOM      4  C   UNL     1      10.977  -4.134  -4.646  0.00  0.00    +0.034 A 
ATOM      5  C   UNL     1       9.726  -4.723  -4.516  0.00  0.00    +0.025 A 
ATOM      6  C   UNL     1       9.319  -5.684  -5.420  0.00  0.00    +0.029 A 
ATOM      7  C   UNL     1      10.155  -6.060  -6.455  0.00  0.00    +0.094 A 
ATOM      8  C   UNL     1      11.402  -5.476  -6.588  0.00  0.00    +0.029 A 
ATOM      9  C   UNL     1      11.812  -4.510  -5.690  0.00  0.00    +0.025 A 
BRANCH   4  12
ATOM     10  C   UNL     1      10.998  -3.233  -2.444  0.00  0.00    +0.221 C 
ATOM     11  O   UNL     1      10.342  -4.179  -2.063  0.00  0.00    -0.275 OA
ATOM     12  N   UNL     1      11.392  -3.160  -3.731  0.00  0.00    -0.285 N 
ATOM     13  H   UNL     1      11.963  -2.433  -4.023  0.00  0.00    +0.155 HD
BRANCH  10  16
ATOM     14  C   UNL     1      11.827   0.437  -1.424  0.00  0.00    +0.012 C 
ATOM     15  C   UNL     1      10.899  -0.720  -1.801  0.00  0.00    -0.017 C 
ATOM     16  C   UNL     1      11.373  -2.138  -1.479  0.00  0.00    +0.088 C 
ATOM     17  C   UNL     1      10.247  -1.503  -0.660  0.00  0.00    -0.017 C 
ATOM     18  C   UNL     1       8.828  -2.027  -0.884  0.00  0.00    +0.012 C 
ATOM     19  C   UNL     1      10.572  -1.069   0.771  0.00  0.00    +0.012 C 
ATOM     20  C   UNL     1      10.082  -0.520  -3.079  0.00  0.00    +0.012 C 
ENDBRANCH  10  16
ENDBRANCH   4  12
ENDBRANCH   1   7
BRANCH   1  21
ATOM     21  C   UNL     1       8.812  -6.450  -8.922  0.00  0.00    +0.094 A 
ATOM     22  C   UNL     1       7.449  -6.221  -8.851  0.00  0.00    +0.029 A 
ATOM     23  C   UNL     1       6.803  -5.566  -9.881  0.00  0.00    +0.025 A 
ATOM     24  C   UNL     1       7.522  -5.137 -10.988  0.00  0.00    +0.034 A 
ATOM     25  C   UNL     1       8.890  -5.367 -11.056  0.00  0.00    +0.025 A 
ATOM     26  C   UNL     1       9.531  -6.018 -10.021  0.00  0.00    +0.029 A 
BRANCH  24  27
ATOM     27  N   UNL     1       6.870  -4.473 -12.033  0.00  0.00    -0.285 N 
ATOM     28  C   UNL     1       5.818  -3.672 -11.771  0.00  0.00    +0.221 C 
ATOM     29  O   UNL     1       5.483  -3.468 -10.623  0.00  0.00    -0.275 OA
ATOM     30  H   UNL     1       7.175  -4.589 -12.947  0.00  0.00    +0.155 HD
BRANCH  28  31
ATOM     31  C   UNL     1       5.058  -3.031 -12.903  0.00  0.00    +0.088 C 
ATOM     32  C   UNL     1       3.539  -3.208 -12.924  0.00  0.00    -0.017 C 
ATOM     33  C   UNL     1       4.410  -3.958 -13.934  0.00  0.00    -0.017 C 
ATOM     34  C   UNL     1       4.375  -3.483 -15.387  0.00  0.00    +0.012 C 
ATOM     35  C   UNL     1       4.584  -5.465 -13.735  0.00  0.00    +0.012 C 
ATOM     36  C   UNL     1       2.907  -4.023 -11.794  0.00  0.00    +0.012 C 
ATOM     37  C   UNL     1       2.698  -2.041 -13.446  0.00  0.00    +0.012 C 
ENDBRANCH  28  31
ENDBRANCH  24  27
ENDBRANCH   1  21
TORSDOF 6
