REMARK  Name = ZINC39595600
REMARK  8 active torsions:
REMARK  status: ('A' for Active; 'I' for Inactive)
REMARK    1  A    between atoms: C_1  and  C_2
REMARK    2  A    between atoms: C_2  and  C_4
REMARK    3  A    between atoms: C_2  and  O_31
REMARK    4  A    between atoms: C_4  and  N_5
REMARK    5  A    between atoms: C_6  and  C_8
REMARK    6  A    between atoms: C_19  and  C_21
REMARK    7  A    between atoms: C_26  and  C_27
REMARK    8  A    between atoms: O_31  and  C_32
REMARK                            x       y       z     vdW  Elec       q    Type
REMARK                         _______ _______ _______ _____ _____    ______ ____
ROOT
ATOM      1  C   UNL     1       1.750  -3.672  -1.907  0.00  0.00    +0.100 C 
ATOM      2  C   UNL     1       0.418  -4.366  -1.540  0.00  0.00    +0.121 C 
ATOM      3  N   UNL     1      -0.084  -4.915  -2.822  0.00  0.00    -0.296 N 
ATOM      4  C   UNL     1       1.130  -5.419  -3.507  0.00  0.00    +0.115 C 
ATOM      5  C   UNL     1       2.216  -4.369  -3.196  0.00  0.00    -0.004 C 
ATOM      6  C   UNL     1       3.562  -5.051  -2.972  0.00  0.00    -0.010 C 
ATOM      7  C   UNL     1       4.032  -5.687  -4.283  0.00  0.00    -0.082 C 
ATOM      8  N   UNL     1       4.152  -4.651  -5.316  0.00  0.00    +0.379 N 
ATOM      9  C   UNL     1       2.835  -4.065  -5.592  0.00  0.00    -0.082 C 
ATOM     10  C   UNL     1       2.314  -3.360  -4.336  0.00  0.00    -0.010 C 
ATOM     11  C   UNL     1      -1.356  -4.948  -3.264  0.00  0.00    +0.247 C 
ATOM     12  O   UNL     1      -1.623  -5.514  -4.306  0.00  0.00    -0.270 OA
ATOM     13  H   UNL     1       4.779  -3.929  -4.995  0.00  0.00    -0.086 HD
ATOM     14  H   UNL     1       4.519  -5.062  -6.161  0.00  0.00    -0.086 HD
ENDROOT
BRANCH  11  15
ATOM     15  C   UNL     1      -2.428  -4.297  -2.482  0.00  0.00    +0.049 A 
ATOM     16  C   UNL     1      -2.517  -4.506  -1.104  0.00  0.00    +0.013 A 
ATOM     17  C   UNL     1      -3.520  -3.895  -0.380  0.00  0.00    +0.001 A 
ATOM     18  C   UNL     1      -4.436  -3.076  -1.016  0.00  0.00    +0.001 A 
ATOM     19  C   UNL     1      -4.353  -2.864  -2.381  0.00  0.00    +0.013 A 
ATOM     20  C   UNL     1      -3.352  -3.465  -3.116  0.00  0.00    +0.067 A 
BRANCH  20  21
ATOM     21  C   UNL     1      -3.260  -3.228  -4.601  0.00  0.00    +0.418 C 
ATOM     22  F   UNL     1      -4.287  -2.367  -5.001  0.00  0.00    -0.166 F 
ATOM     23  F   UNL     1      -2.022  -2.652  -4.906  0.00  0.00    -0.166 F 
ATOM     24  F   UNL     1      -3.385  -4.447  -5.276  0.00  0.00    -0.166 F 
ENDBRANCH  20  21
ENDBRANCH  11  15
BRANCH   1  26
ATOM     25  N   UNL     1       2.547  -1.334  -2.030  0.00  0.00    -0.312 N 
ATOM     26  C   UNL     1       1.525  -2.203  -2.156  0.00  0.00    +0.218 C 
ATOM     27  O   UNL     1       0.424  -1.803  -2.471  0.00  0.00    -0.275 OA
ATOM     28  H   UNL     1       3.427  -1.654  -1.778  0.00  0.00    +0.149 HD
BRANCH  25  29
ATOM     29  C   UNL     1       2.328   0.094  -2.272  0.00  0.00    +0.148 C 
BRANCH  29  31
ATOM     30  C   UNL     1       3.412   2.345  -2.316  0.00  0.00    +0.053 C 
ATOM     31  C   UNL     1       3.640   0.854  -2.063  0.00  0.00    +0.187 C 
BRANCH  31  32
ATOM     32  O   UNL     1       4.092   0.662  -0.721  0.00  0.00    -0.488 OA
BRANCH  32  33
ATOM     33  C   UNL     1       5.431   0.750  -0.502  0.00  0.00    +0.121 A 
ATOM     34  C   UNL     1       5.946   0.492   0.760  0.00  0.00    +0.048 A 
ATOM     35  C   UNL     1       7.307   0.582   0.981  0.00  0.00    +0.042 A 
ATOM     36  C   UNL     1       8.156   0.929  -0.056  0.00  0.00    +0.124 A 
ATOM     37  C   UNL     1       7.643   1.187  -1.316  0.00  0.00    +0.042 A 
ATOM     38  C   UNL     1       6.283   1.091  -1.541  0.00  0.00    +0.048 A 
ATOM     39  F   UNL     1       9.486   1.016   0.161  0.00  0.00    -0.205 F 
ENDBRANCH  32  33
ENDBRANCH  31  32
ENDBRANCH  29  31
ENDBRANCH  25  29
ENDBRANCH   1  26
TORSDOF 7
