REMARK  Name = ZINC05740603
REMARK  5 active torsions:
REMARK  status: ('A' for Active; 'I' for Inactive)
REMARK    1  A    between atoms: C_1  and  C_2
REMARK    2  A    between atoms: N_7  and  C_8
REMARK    3  A    between atoms: C_8  and  C_10
REMARK    4  A    between atoms: C_8  and  C_19
REMARK    5  A    between atoms: C_28  and  O_29
REMARK                            x       y       z     vdW  Elec       q    Type
REMARK                         _______ _______ _______ _____ _____    ______ ____
ROOT
ATOM      1  C   UNL     1      -2.336  -0.404   0.101  0.00  0.00    +0.136 C 
ENDROOT
BRANCH   1   8
ATOM      2  C   UNL     1      -4.345   5.038   2.038  0.00  0.00    +0.063 C 
ATOM      3  C   UNL     1      -4.330   3.535   1.931  0.00  0.00    +0.014 A 
ATOM      4  C   UNL     1      -5.227   2.791   2.670  0.00  0.00    +0.021 A 
ATOM      5  C   UNL     1      -5.208   1.406   2.568  0.00  0.00    +0.005 A 
ATOM      6  C   UNL     1      -4.284   0.819   1.722  0.00  0.00    +0.041 A 
ATOM      7  C   UNL     1      -3.407   1.630   1.011  0.00  0.00    +0.097 A 
ATOM      8  N   UNL     1      -2.470   1.053   0.162  0.00  0.00    -0.320 N 
ATOM      9  H   UNL     1      -1.905   1.616  -0.391  0.00  0.00    +0.148 HD
ATOM     10  N   UNL     1      -3.409   2.993   1.091  0.00  0.00    -0.347 N 
ATOM     11  H   UNL     1      -2.756   3.572   0.550  0.00  0.00    +0.167 HD
ENDBRANCH   1   8
BRANCH   1  12
ATOM     12  C   UNL     1      -1.493  -0.880   1.256  0.00  0.00    +0.021 A 
ATOM     13  C   UNL     1      -0.554  -0.019   1.820  0.00  0.00    +0.010 A 
ATOM     14  C   UNL     1       0.219  -0.416   2.868  0.00  0.00    +0.010 A 
ATOM     15  C   UNL     1       0.080  -1.715   3.383  0.00  0.00    +0.004 A 
ATOM     16  C   UNL     1       0.865  -2.164   4.462  0.00  0.00    +0.011 A 
ATOM     17  C   UNL     1       0.674  -3.439   4.912  0.00  0.00    +0.020 A 
ATOM     18  C   UNL     1      -0.277  -4.256   4.303  0.00  0.00    +0.111 A 
ATOM     19  N   UNL     1      -1.007  -3.834   3.299  0.00  0.00    -0.251 NA
ATOM     20  C   UNL     1      -0.869  -2.598   2.812  0.00  0.00    +0.113 A 
ATOM     21  C   UNL     1      -1.657  -2.150   1.731  0.00  0.00    +0.148 A 
BRANCH  21  22
ATOM     22  O   UNL     1      -2.574  -2.977   1.165  0.00  0.00    -0.504 OA
ATOM     23  H   UNL     1      -2.227  -3.507   0.434  0.00  0.00    +0.292 HD
ENDBRANCH  21  22
ENDBRANCH   1  12
BRANCH   1  24
ATOM     24  C   UNL     1      -1.676  -0.794  -1.196  0.00  0.00    -0.019 A 
ATOM     25  C   UNL     1      -0.551  -0.117  -1.629  0.00  0.00    +0.009 A 
ATOM     26  C   UNL     1       0.058  -0.471  -2.818  0.00  0.00    +0.050 A 
ATOM     27  C   UNL     1      -0.457  -1.508  -3.580  0.00  0.00    +0.166 A 
ATOM     28  C   UNL     1      -1.590  -2.190  -3.144  0.00  0.00    +0.167 A 
ATOM     29  C   UNL     1      -2.193  -1.833  -1.948  0.00  0.00    +0.055 A 
ATOM     30  O   UNL     1      -1.897  -3.156  -4.058  0.00  0.00    -0.453 OA
ATOM     31  C   UNL     1      -1.185  -2.791  -5.256  0.00  0.00    +0.466 C 
ATOM     32  O   UNL     1      -0.054  -2.046  -4.768  0.00  0.00    -0.453 OA
ENDBRANCH   1  24
TORSDOF 4
