REMARK  Name = ZINC63456274
REMARK  10 active torsions:
REMARK  status: ('A' for Active; 'I' for Inactive)
REMARK    1  A    between atoms: C_1  and  C_2
REMARK    2  A    between atoms: C_7  and  C_8
REMARK    3  A    between atoms: C_8  and  C_9
REMARK    4  A    between atoms: C_9  and  N_10
REMARK    5  A    between atoms: C_11  and  C_13
REMARK    6  A    between atoms: C_13  and  O_14
REMARK    7  A    between atoms: O_14  and  N_15
REMARK    8  A    between atoms: C_16  and  C_17
REMARK    9  A    between atoms: C_18  and  N_28
REMARK   10  A    between atoms: N_24  and  C_27
REMARK                            x       y       z     vdW  Elec       q    Type
REMARK                         _______ _______ _______ _____ _____    ______ ____
ROOT
ATOM      1  N   UNL     1      -4.026   3.285   7.600  0.00  0.00    -0.068 NA
ATOM      2  C   UNL     1      -5.193   3.637   8.061  0.00  0.00    +0.169 C 
ATOM      3  N   UNL     1      -6.341   3.320   7.354  0.00  0.00    -0.340 N 
ATOM      4  H   UNL     1      -6.282   2.774   6.554  0.00  0.00    +0.144 HD
ATOM      5  H   UNL     1      -7.203   3.644   7.658  0.00  0.00    +0.144 HD
ENDROOT
BRANCH   2   6
ATOM      6  C   UNL     1      -5.292   4.372   9.336  0.00  0.00    +0.098 C 
ATOM      7  C   UNL     1      -4.246   4.652  10.174  0.00  0.00    +0.041 C 
ATOM      8  C   UNL     1      -4.833   5.409  11.330  0.00  0.00    +0.076 C 
ATOM      9  C   UNL     1      -4.169   6.787  11.493  0.00  0.00    +0.032 C 
ATOM     10  C   UNL     1      -4.413   7.150  12.974  0.00  0.00    +0.003 C 
ATOM     11  C   UNL     1      -4.655   5.825  13.719  0.00  0.00    +0.003 C 
ATOM     12  C   UNL     1      -4.550   4.700  12.666  0.00  0.00    +0.032 C 
ATOM     13  N   UNL     1      -6.264   5.530  11.081  0.00  0.00    -0.289 N 
ATOM     14  C   UNL     1      -6.523   4.923   9.905  0.00  0.00    +0.252 C 
ATOM     15  O   UNL     1      -7.624   4.841   9.392  0.00  0.00    -0.270 OA
ATOM     16  C   UNL     1      -7.241   6.195  11.947  0.00  0.00    +0.133 C 
BRANCH   7  17
ATOM     17  N   UNL     1      -2.941   4.314   9.995  0.00  0.00    -0.359 N 
ATOM     18  H   UNL     1      -2.659   3.885   9.171  0.00  0.00    +0.142 HD
ATOM     19  H   UNL     1      -2.291   4.501  10.691  0.00  0.00    +0.142 HD
ENDBRANCH   7  17
ENDBRANCH   2   6
BRANCH   1  20
ATOM     20  O   UNL     1      -3.931   2.580   6.376  0.00  0.00    -0.383 OA
BRANCH  20  21
ATOM     21  C   UNL     1      -2.592   2.260   5.992  0.00  0.00    +0.358 C 
BRANCH  21  23
ATOM     22  N   UNL     1      -1.454   1.107   4.122  0.00  0.00    -0.312 N 
ATOM     23  C   UNL     1      -2.610   1.514   4.682  0.00  0.00    +0.253 C 
ATOM     24  O   UNL     1      -3.665   1.280   4.132  0.00  0.00    -0.272 OA
ATOM     25  H   UNL     1      -0.610   1.295   4.562  0.00  0.00    +0.149 HD
BRANCH  22  26
ATOM     26  C   UNL     1      -1.471   0.383   2.849  0.00  0.00    +0.109 C 
BRANCH  26  27
ATOM     27  C   UNL     1      -0.038   0.040   2.438  0.00  0.00    +0.054 C 
BRANCH  27  34
ATOM     28  C   UNL     1      -0.109   1.499  -0.054  0.00  0.00    +0.044 C 
ATOM     29  C   UNL     1      -0.090  -0.008  -0.064  0.00  0.00    -0.047 A 
ATOM     30  C   UNL     1      -0.101  -0.692  -1.265  0.00  0.00    +0.003 A 
ATOM     31  C   UNL     1      -0.083  -2.074  -1.274  0.00  0.00    +0.000 A 
ATOM     32  C   UNL     1      -0.054  -2.772  -0.081  0.00  0.00    +0.000 A 
ATOM     33  C   UNL     1      -0.042  -2.088   1.120  0.00  0.00    +0.004 A 
ATOM     34  C   UNL     1      -0.056  -0.706   1.129  0.00  0.00    -0.043 A 
ENDBRANCH  27  34
ENDBRANCH  26  27
ENDBRANCH  22  26
ENDBRANCH  21  23
ENDBRANCH  20  21
ENDBRANCH   1  20
TORSDOF 8
