REMARK  Name = ZINC34923402
REMARK  12 active torsions:
REMARK  status: ('A' for Active; 'I' for Inactive)
REMARK    1  A    between atoms: C_1  and  C_2
REMARK    2  A    between atoms: C_5  and  C_8
REMARK    3  A    between atoms: C_10  and  C_30
REMARK    4  A    between atoms: C_11  and  C_29
REMARK    5  A    between atoms: C_15  and  C_18
REMARK    6  A    between atoms: C_19  and  N_21
REMARK    7  A    between atoms: N_21  and  C_22
REMARK    8  A    between atoms: N_25  and  C_28
REMARK    9  A    between atoms: C_30  and  O_32
REMARK   10  A    between atoms: O_32  and  C_33
REMARK   11  A    between atoms: C_33  and  C_34
REMARK   12  A    between atoms: C_33  and  C_35
REMARK                            x       y       z     vdW  Elec       q    Type
REMARK                         _______ _______ _______ _____ _____    ______ ____
ROOT
ATOM      1  C   UNL     1       0.266  -4.520  -0.040  0.00  0.00    +0.150 C 
ATOM      2  C   UNL     1      -1.219  -4.780   0.081  0.00  0.00    +0.082 C 
ATOM      3  C   UNL     1      -1.672  -5.412   1.223  0.00  0.00    +0.053 C 
ATOM      4  N   UNL     1      -0.823  -5.772   2.171  0.00  0.00    -0.230 NA
ATOM      5  C   UNL     1       0.479  -5.576   2.129  0.00  0.00    +0.166 C 
ATOM      6  N   UNL     1       1.124  -4.969   1.089  0.00  0.00    -0.267 N 
ATOM      7  C   UNL     1       2.494  -4.836   1.194  0.00  0.00    +0.048 C 
ATOM      8  C   UNL     1       3.086  -5.314   2.311  0.00  0.00    +0.072 C 
ATOM      9  S   UNL     1       1.697  -5.956   3.219  0.00  0.00    -0.060 S 
ATOM     10  C   UNL     1      -3.143  -5.693   1.389  0.00  0.00    +0.066 C 
ENDROOT
BRANCH   1  15
ATOM     11  C   UNL     1       1.025   1.170  -0.703  0.00  0.00    +0.044 C 
ATOM     12  C   UNL     1       0.827  -0.314  -0.530  0.00  0.00    -0.050 A 
ATOM     13  C   UNL     1       0.874  -1.151  -1.630  0.00  0.00    +0.004 A 
ATOM     14  C   UNL     1       0.693  -2.512  -1.471  0.00  0.00    +0.006 A 
ATOM     15  C   UNL     1       0.465  -3.037  -0.213  0.00  0.00    -0.022 A 
ATOM     16  C   UNL     1       0.419  -2.200   0.887  0.00  0.00    +0.006 A 
ATOM     17  C   UNL     1       0.605  -0.840   0.729  0.00  0.00    +0.004 A 
ENDBRANCH   1  15
BRANCH   7  18
ATOM     18  C   UNL     1       3.282  -4.198   0.129  0.00  0.00    +0.091 C 
ATOM     19  C   UNL     1       4.590  -3.941   0.321  0.00  0.00    +0.239 C 
ATOM     20  O   UNL     1       5.208  -4.373   1.447  0.00  0.00    -0.271 OA
BRANCH  19  21
ATOM     21  N   UNL     1       5.303  -3.234  -0.633  0.00  0.00    -0.309 N 
ATOM     22  H   UNL     1       4.846  -2.864  -1.404  0.00  0.00    +0.149 HD
BRANCH  21  23
ATOM     23  C   UNL     1       6.748  -3.047  -0.477  0.00  0.00    +0.070 C 
ATOM     24  C   UNL     1       7.013  -1.854   0.446  0.00  0.00    +0.003 C 
ATOM     25  C   UNL     1       8.521  -1.615   0.541  0.00  0.00    -0.077 C 
ATOM     26  N   UNL     1       9.060  -1.332  -0.794  0.00  0.00    +0.378 N 
ATOM     27  C   UNL     1       8.874  -2.499  -1.665  0.00  0.00    -0.077 C 
ATOM     28  C   UNL     1       7.379  -2.772  -1.845  0.00  0.00    +0.003 C 
ATOM     29  C   UNL     1      10.493  -1.026  -0.688  0.00  0.00    -0.096 C 
ATOM     30  H   UNL     1       8.578  -0.538  -1.190  0.00  0.00    -0.082 HD
ENDBRANCH  21  23
ENDBRANCH  19  21
ENDBRANCH   7  18
BRANCH   2  31
ATOM     31  C   UNL     1      -2.106  -4.392  -0.931  0.00  0.00    +0.339 C 
ATOM     32  O   UNL     1      -3.300  -4.607  -0.811  0.00  0.00    -0.245 OA
BRANCH  31  33
ATOM     33  O   UNL     1      -1.638  -3.780  -2.042  0.00  0.00    -0.459 OA
BRANCH  33  34
ATOM     34  C   UNL     1      -2.599  -3.412  -3.033  0.00  0.00    +0.171 C 
ATOM     35  C   UNL     1      -3.108  -1.998  -2.750  0.00  0.00    +0.052 C 
ATOM     36  C   UNL     1      -1.945  -3.451  -4.416  0.00  0.00    +0.052 C 
ENDBRANCH  33  34
ENDBRANCH  31  33
ENDBRANCH   2  31
TORSDOF 7
