REMARK  Name = ZINC24689039
REMARK  5 active torsions:
REMARK  status: ('A' for Active; 'I' for Inactive)
REMARK    1  A    between atoms: C_1  and  C_2
REMARK    2  A    between atoms: C_4  and  C_7
REMARK    3  A    between atoms: C_7  and  N_14
REMARK    4  A    between atoms: N_14  and  S_15
REMARK    5  A    between atoms: S_15  and  C_18
REMARK                            x       y       z     vdW  Elec       q    Type
REMARK                         _______ _______ _______ _____ _____    ______ ____
ROOT
ATOM      1  C   UNL     1      -1.134   5.651  -2.300  0.00  0.00    +0.102 C 
ATOM      2  C   UNL     1      -1.351   4.162  -2.269  0.00  0.00    +0.032 C 
ATOM      3  C   UNL     1      -0.086   3.390  -1.846  0.00  0.00    +0.002 C 
ATOM      4  C   UNL     1       1.197   3.948  -2.490  0.00  0.00    +0.000 C 
ATOM      5  C   UNL     1       1.006   4.305  -3.939  0.00  0.00    +0.000 C 
ATOM      6  C   UNL     1       0.651   5.803  -4.032  0.00  0.00    +0.002 C 
ATOM      7  C   UNL     1      -0.751   6.060  -3.737  0.00  0.00    +0.032 C 
ENDROOT
BRANCH   1  11
ATOM      8  C   UNL     1      -5.072   7.317   0.306  0.00  0.00    +0.112 C 
ATOM      9  C   UNL     1      -4.059   7.056  -0.779  0.00  0.00    +0.224 A 
ATOM     10  N   UNL     1      -3.002   6.285  -0.692  0.00  0.00    -0.194 NA
ATOM     11  C   UNL     1      -2.399   6.360  -1.892  0.00  0.00    +0.193 A 
ATOM     12  N   UNL     1      -3.112   7.151  -2.637  0.00  0.00    -0.059 NA
ATOM     13  O   UNL     1      -4.070   7.562  -2.016  0.00  0.00    -0.338 OA
ENDBRANCH   1  11
BRANCH   1  14
ATOM     14  N   UNL     1      -0.050   6.009  -1.381  0.00  0.00    -0.176 NA
ATOM     15  H   UNL     1       0.317   5.274  -0.650  0.00  0.00    +0.149 HD
BRANCH  14  16
ATOM     16  S   UNL     1       0.453   7.583  -1.269  0.00  0.00    +0.059 S 
ATOM     17  O   UNL     1       0.592   8.061  -2.600  0.00  0.00    -0.153 OA
ATOM     18  O   UNL     1       1.526   7.600  -0.338  0.00  0.00    -0.153 OA
BRANCH  16  19
ATOM     19  C   UNL     1      -0.862   8.500  -0.539  0.00  0.00    +0.108 A 
ATOM     20  C   UNL     1      -1.026   8.499   0.834  0.00  0.00    +0.048 A 
ATOM     21  C   UNL     1      -2.059   9.219   1.407  0.00  0.00    +0.044 A 
ATOM     22  C   UNL     1      -2.927   9.940   0.607  0.00  0.00    +0.040 A 
ATOM     23  C   UNL     1      -2.765   9.937  -0.766  0.00  0.00    +0.044 A 
ATOM     24  C   UNL     1      -1.729   9.220  -1.339  0.00  0.00    +0.048 A 
ATOM     25 CL   UNL     1      -3.858  10.836  -1.772  0.00  0.00    -0.083 Cl
ATOM     26 CL   UNL     1      -2.266   9.217   3.131  0.00  0.00    -0.083 Cl
ENDBRANCH  16  19
ENDBRANCH  14  16
ENDBRANCH   1  14
TORSDOF 4
