REMARK  Name = ZINC39357683
REMARK  12 active torsions:
REMARK  status: ('A' for Active; 'I' for Inactive)
REMARK    1  A    between atoms: C_1  and  C_2
REMARK    2  A    between atoms: C_2  and  C_3
REMARK    3  A    between atoms: C_5  and  C_24
REMARK    4  A    between atoms: C_6  and  O_23
REMARK    5  A    between atoms: C_7  and  C_10
REMARK    6  A    between atoms: C_8  and  O_9
REMARK    7  A    between atoms: C_10  and  N_11
REMARK    8  A    between atoms: C_13  and  C_22
REMARK    9  A    between atoms: C_18  and  C_20
REMARK   10  A    between atoms: C_18  and  C_21
REMARK   11  A    between atoms: C_26  and  C_31
REMARK   12  A    between atoms: C_27  and  C_30
REMARK                            x       y       z     vdW  Elec       q    Type
REMARK                         _______ _______ _______ _____ _____    ______ ____
ROOT
ATOM      1  C   UNL     1       0.807  -1.293  -0.969  0.00  0.00    -0.005 A 
ATOM      2  C   UNL     1      -0.024  -1.081  -2.052  0.00  0.00    +0.016 A 
ATOM      3  C   UNL     1       0.514  -0.791  -3.292  0.00  0.00    +0.023 A 
ATOM      4  C   UNL     1       1.890  -0.713  -3.451  0.00  0.00    +0.127 A 
ATOM      5  C   UNL     1       2.726  -0.925  -2.365  0.00  0.00    +0.020 A 
ATOM      6  C   UNL     1       2.183  -1.210  -1.121  0.00  0.00    +0.125 A 
ENDROOT
BRANCH   3   7
ATOM      7  C   UNL     1      -0.395  -0.561  -4.471  0.00  0.00    +0.166 C 
ATOM      8  C   UNL     1      -1.835  -0.398  -4.017  0.00  0.00    +0.035 C 
ATOM      9  C   UNL     1      -2.478  -1.430  -4.615  0.00  0.00    +0.066 C 
ATOM     10  N   UNL     1      -1.620  -2.159  -5.343  0.00  0.00    -0.182 NA
ATOM     11  N   UNL     1      -0.451  -1.758  -5.328  0.00  0.00    -0.297 N 
ATOM     12  C   UNL     1      -3.951  -1.719  -4.480  0.00  0.00    +0.068 C 
ATOM     13  H   UNL     1       0.298  -2.159  -5.796  0.00  0.00    +0.183 HD
BRANCH   8  14
ATOM     14  C   UNL     1      -2.397   0.634  -3.139  0.00  0.00    +0.110 A 
ATOM     15  N   UNL     1      -1.807   1.694  -2.623  0.00  0.00    -0.239 NA
ATOM     16  C   UNL     1      -2.446   2.562  -1.829  0.00  0.00    +0.079 A 
ATOM     17  C   UNL     1      -1.929   3.730  -1.215  0.00  0.00    +0.029 A 
ATOM     18  C   UNL     1      -2.717   4.511  -0.430  0.00  0.00    +0.002 A 
ATOM     19  C   UNL     1      -4.051   4.201  -0.198  0.00  0.00    +0.001 A 
ATOM     20  C   UNL     1      -4.596   3.071  -0.777  0.00  0.00    +0.017 A 
ATOM     21  C   UNL     1      -3.809   2.274  -1.572  0.00  0.00    +0.040 A 
ATOM     22  S   UNL     1      -4.061   0.780  -2.500  0.00  0.00    -0.067 S 
ENDBRANCH   8  14
ENDBRANCH   3   7
BRANCH   1  24
ATOM     23  C   UNL     1       0.082  -0.318   1.194  0.00  0.00    +0.009 C 
ATOM     24  C   UNL     1       0.217  -1.608   0.382  0.00  0.00    +0.035 C 
ENDBRANCH   1  24
BRANCH   6  25
ATOM     25  O   UNL     1       3.000  -1.412  -0.054  0.00  0.00    -0.506 OA
ATOM     26  H   UNL     1       3.267  -2.334   0.067  0.00  0.00    +0.292 HD
ENDBRANCH   6  25
BRANCH   4  27
ATOM     27  O   UNL     1       2.419  -0.429  -4.670  0.00  0.00    -0.506 OA
ATOM     28  H   UNL     1       2.615   0.509  -4.805  0.00  0.00    +0.292 HD
ENDBRANCH   4  27
BRANCH   5  29
ATOM     29  C   UNL     1       4.221  -0.841  -2.536  0.00  0.00    -0.035 C 
BRANCH  29  30
ATOM     30  N   UNL     1       4.721  -2.100  -3.073  0.00  0.00    +0.385 N 
ATOM     31  C   UNL     1       4.521  -3.211  -2.123  0.00  0.00    -0.071 C 
ATOM     32  C   UNL     1       5.812  -4.061  -2.170  0.00  0.00    -0.048 C 
ATOM     33  C   UNL     1       6.526  -3.578  -3.460  0.00  0.00    -0.011 C 
ATOM     34  C   UNL     1       6.160  -2.069  -3.404  0.00  0.00    -0.067 C 
ATOM     35  C   UNL     1       6.992  -1.431  -2.311  0.00  0.00    -0.009 C 
ATOM     36  C   UNL     1       7.156  -2.207  -1.023  0.00  0.00    -0.036 C 
ATOM     37  C   UNL     1       6.695  -3.649  -0.993  0.00  0.00    +0.011 C 
ATOM     38  C   UNL     1       6.457  -1.440   0.117  0.00  0.00    +0.011 C 
ATOM     39  C   UNL     1       8.667  -2.204  -0.674  0.00  0.00    +0.011 C 
ATOM     40  C   UNL     1       5.517  -5.568  -2.192  0.00  0.00    +0.009 C 
ATOM     41  H   UNL     1       4.201  -2.320  -3.926  0.00  0.00    -0.081 HD
ENDBRANCH  29  30
ENDBRANCH   5  29
TORSDOF 7
