REMARK  Name = ZINC39606145
REMARK  9 active torsions:
REMARK  status: ('A' for Active; 'I' for Inactive)
REMARK    1  A    between atoms: C_1  and  C_2
REMARK    2  A    between atoms: C_2  and  C_3
REMARK    3  A    between atoms: C_3  and  C_5
REMARK    4  A    between atoms: C_3  and  C_6
REMARK    5  A    between atoms: C_6  and  N_7
REMARK    6  A    between atoms: C_8  and  C_10
REMARK    7  A    between atoms: C_21  and  C_23
REMARK    8  A    between atoms: C_24  and  C_36
REMARK    9  A    between atoms: C_27  and  C_28
REMARK                            x       y       z     vdW  Elec       q    Type
REMARK                         _______ _______ _______ _____ _____    ______ ____
ROOT
ATOM      1  C   UNL     1       2.428  -2.652  -4.335  0.00  0.00    +0.100 C 
ATOM      2  C   UNL     1       3.944  -2.443  -4.125  0.00  0.00    +0.121 C 
ATOM      3  N   UNL     1       4.425  -3.726  -3.560  0.00  0.00    -0.296 N 
ATOM      4  C   UNL     1       3.670  -4.762  -4.306  0.00  0.00    +0.115 C 
ATOM      5  C   UNL     1       2.253  -4.175  -4.457  0.00  0.00    -0.004 C 
ATOM      6  C   UNL     1       1.347  -4.693  -3.345  0.00  0.00    -0.010 C 
ATOM      7  C   UNL     1       1.142  -6.201  -3.520  0.00  0.00    -0.082 C 
ATOM      8  N   UNL     1       0.539  -6.465  -4.832  0.00  0.00    +0.379 N 
ATOM      9  C   UNL     1       1.458  -6.047  -5.899  0.00  0.00    -0.082 C 
ATOM     10  C   UNL     1       1.676  -4.533  -5.823  0.00  0.00    -0.010 C 
ATOM     11  C   UNL     1       5.340  -3.910  -2.588  0.00  0.00    +0.252 C 
ATOM     12  O   UNL     1       5.631  -5.036  -2.232  0.00  0.00    -0.270 OA
ATOM     13  H   UNL     1       0.349  -7.452  -4.921  0.00  0.00    -0.086 HD
ATOM     14  H   UNL     1      -0.325  -5.950  -4.914  0.00  0.00    -0.086 HD
ENDROOT
BRANCH  11  15
ATOM     15  C   UNL     1       5.989  -2.748  -1.959  0.00  0.00    +0.106 A 
ATOM     16  C   UNL     1       5.634  -2.155  -0.783  0.00  0.00    +0.147 A 
ATOM     17  O   UNL     1       6.466  -1.136  -0.558  0.00  0.00    -0.359 OA
ATOM     18  N   UNL     1       7.401  -1.049  -1.615  0.00  0.00    -0.077 NA
ATOM     19  C   UNL     1       7.150  -2.005  -2.473  0.00  0.00    +0.128 A 
ATOM     20  C   UNL     1       4.496  -2.579   0.110  0.00  0.00    +0.090 C 
BRANCH  19  21
ATOM     21  C   UNL     1       7.892  -2.284  -3.727  0.00  0.00    +0.041 A 
ATOM     22  C   UNL     1       7.983  -1.308  -4.718  0.00  0.00    +0.052 A 
ATOM     23  C   UNL     1       8.675  -1.574  -5.884  0.00  0.00    +0.021 A 
ATOM     24  C   UNL     1       9.277  -2.805  -6.068  0.00  0.00    +0.003 A 
ATOM     25  C   UNL     1       9.190  -3.778  -5.089  0.00  0.00    +0.021 A 
ATOM     26  C   UNL     1       8.506  -3.522  -3.917  0.00  0.00    +0.052 A 
ATOM     27 CL   UNL     1       8.405  -4.741  -2.685  0.00  0.00    -0.083 Cl
ATOM     28 CL   UNL     1       7.228   0.238  -4.489  0.00  0.00    -0.083 Cl
ENDBRANCH  19  21
ENDBRANCH  11  15
BRANCH   1  30
ATOM     29  N   UNL     1       0.392  -1.690  -3.312  0.00  0.00    -0.315 N 
ATOM     30  C   UNL     1       1.657  -2.128  -3.151  0.00  0.00    +0.218 C 
ATOM     31  O   UNL     1       2.173  -2.101  -2.055  0.00  0.00    -0.275 OA
ATOM     32  H   UNL     1      -0.021  -1.711  -4.189  0.00  0.00    +0.149 HD
BRANCH  29  33
ATOM     33  C   UNL     1      -0.358  -1.180  -2.161  0.00  0.00    +0.107 C 
BRANCH  33  34
ATOM     34  C   UNL     1      -1.755  -0.750  -2.613  0.00  0.00    +0.003 C 
ATOM     35  C   UNL     1      -2.535  -1.976  -3.094  0.00  0.00    +0.009 C 
BRANCH  34  37
ATOM     36  C   UNL     1      -3.841   0.437  -1.921  0.00  0.00    +0.004 C 
ATOM     37  C   UNL     1      -2.494  -0.104  -1.439  0.00  0.00    +0.001 C 
ENDBRANCH  34  37
ENDBRANCH  33  34
ENDBRANCH  29  33
ENDBRANCH   1  30
TORSDOF 6
