REMARK  Name = ZINC09536165
REMARK  5 active torsions:
REMARK  status: ('A' for Active; 'I' for Inactive)
REMARK    1  A    between atoms: C_1  and  C_2
REMARK    2  A    between atoms: N_11  and  C_12
REMARK    3  A    between atoms: C_12  and  C_13
REMARK    4  A    between atoms: C_13  and  C_15
REMARK    5  A    between atoms: C_13  and  C_20
REMARK                            x       y       z     vdW  Elec       q    Type
REMARK                         _______ _______ _______ _____ _____    ______ ____
ROOT
ATOM      1  C   UNL     1      -1.031  -1.266   5.272  0.00  0.00    +0.075 C 
ENDROOT
BRANCH   1   2
ATOM      2  C   UNL     1      -1.558  -2.131   6.388  0.00  0.00    -0.013 A 
ATOM      3  C   UNL     1      -2.037  -3.380   6.271  0.00  0.00    +0.088 A 
ATOM      4  N   UNL     1      -2.424  -3.847   7.498  0.00  0.00    -0.360 N 
ATOM      5  H   UNL     1      -2.801  -4.725   7.666  0.00  0.00    +0.165 HD
ATOM      6  C   UNL     1      -2.197  -2.886   8.458  0.00  0.00    +0.047 A 
ATOM      7  C   UNL     1      -1.639  -1.771   7.806  0.00  0.00    +0.003 A 
ATOM      8  C   UNL     1      -1.308  -0.630   8.537  0.00  0.00    +0.010 A 
ATOM      9  C   UNL     1      -1.518  -0.605   9.888  0.00  0.00    +0.001 A 
ATOM     10  C   UNL     1      -2.063  -1.705  10.537  0.00  0.00    +0.002 A 
ATOM     11  C   UNL     1      -2.401  -2.840   9.833  0.00  0.00    +0.026 A 
ENDBRANCH   1   2
BRANCH   1  12
ATOM     12  C   UNL     1       0.143  -1.948   4.619  0.00  0.00    -0.001 A 
ATOM     13  C   UNL     1       1.423  -1.519   4.502  0.00  0.00    +0.012 A 
ATOM     14  C   UNL     1       2.343  -2.323   3.855  0.00  0.00    +0.008 A 
ATOM     15  C   UNL     1       1.938  -3.516   3.356  0.00  0.00    +0.045 A 
ATOM     16  S   UNL     1       0.210  -3.536   3.805  0.00  0.00    -0.101 S 
ENDBRANCH   1  12
BRANCH   1  17
ATOM     17  C   UNL     1      -2.133  -1.043   4.235  0.00  0.00    +0.119 C 
BRANCH  17  27
ATOM     18  C   UNL     1      -4.269   0.845   0.290  0.00  0.00    +0.028 C 
ATOM     19  C   UNL     1      -2.894   1.499   0.135  0.00  0.00    +0.074 C 
ATOM     20  C   UNL     1      -2.296   1.119  -1.224  0.00  0.00    +0.022 C 
ATOM     21  C   UNL     1      -0.867   1.659  -1.316  0.00  0.00    +0.003 C 
ATOM     22  C   UNL     1      -0.009   1.028  -0.217  0.00  0.00    +0.019 C 
ATOM     23  C   UNL     1      -0.581   1.407   1.153  0.00  0.00    +0.109 C 
ATOM     24  N   UNL     1      -1.998   1.020   1.196  0.00  0.00    -0.283 N 
ATOM     25  C   UNL     1      -2.467   0.241   2.191  0.00  0.00    +0.302 C 
ATOM     26  O   UNL     1      -3.619  -0.148   2.167  0.00  0.00    -0.253 OA
ATOM     27  N   UNL     1      -1.660  -0.106   3.213  0.00  0.00    -0.298 N 
ATOM     28  H   UNL     1      -0.765   0.264   3.271  0.00  0.00    +0.150 HD
ENDBRANCH  17  27
ENDBRANCH   1  17
TORSDOF 4
