REMARK  Name = ZINC65406903
REMARK  3 active torsions:
REMARK  status: ('A' for Active; 'I' for Inactive)
REMARK    1  A    between atoms: C_6  and  C_12
REMARK    2  A    between atoms: C_9  and  O_11
REMARK    3  A    between atoms: C_22  and  N_24
REMARK                            x       y       z     vdW  Elec       q    Type
REMARK                         _______ _______ _______ _____ _____    ______ ____
ROOT
ATOM      1  C   UNL     1       6.001  -0.749  -0.058  0.00  0.00    +0.078 C 
ATOM      2  C   UNL     1       7.005  -0.076  -0.994  0.00  0.00    +0.110 C 
ATOM      3  C   UNL     1       7.501   1.205  -0.379  0.00  0.00    +0.218 C 
ATOM      4  O   UNL     1       7.744   2.157  -1.090  0.00  0.00    -0.275 OA
ATOM      5  N   UNL     1       7.678   1.306   0.951  0.00  0.00    -0.285 N 
ATOM      6  C   UNL     1       7.388   0.225   1.789  0.00  0.00    +0.039 A 
ATOM      7  C   UNL     1       6.571  -0.804   1.336  0.00  0.00    -0.017 A 
ATOM      8  C   UNL     1       6.283  -1.873   2.160  0.00  0.00    +0.008 A 
ATOM      9  C   UNL     1       6.804  -1.924   3.439  0.00  0.00    +0.024 A 
ATOM     10  C   UNL     1       7.621  -0.898   3.898  0.00  0.00    +0.040 A 
ATOM     11  C   UNL     1       7.913   0.177   3.072  0.00  0.00    +0.047 A 
ATOM     12  H   UNL     1       8.009   2.135   1.332  0.00  0.00    +0.155 HD
ENDROOT
BRANCH   1  18
ATOM     13  C   UNL     1       0.192   1.772  -0.890  0.00  0.00    +0.004 A 
ATOM     14  C   UNL     1       1.184   2.176  -0.048  0.00  0.00    +0.010 A 
ATOM     15  C   UNL     1       2.401   1.475  -0.019  0.00  0.00    +0.004 A 
ATOM     16  C   UNL     1       3.449   1.862   0.838  0.00  0.00    +0.012 A 
ATOM     17  C   UNL     1       4.604   1.134   0.813  0.00  0.00    +0.024 A 
ATOM     18  C   UNL     1       4.719   0.042  -0.045  0.00  0.00    +0.050 A 
ATOM     19  N   UNL     1       3.741  -0.315  -0.842  0.00  0.00    -0.247 NA
ATOM     20  C   UNL     1       2.585   0.355  -0.866  0.00  0.00    +0.113 A 
ATOM     21  C   UNL     1       1.536  -0.034  -1.724  0.00  0.00    +0.143 A 
ATOM     22  C   UNL     1       0.366   0.672  -1.725  0.00  0.00    +0.047 A 
BRANCH  21  23
ATOM     23  O   UNL     1       1.687  -1.105  -2.546  0.00  0.00    -0.505 OA
ATOM     24  H   UNL     1       1.411  -1.944  -2.154  0.00  0.00    +0.292 HD
ENDBRANCH  21  23
ENDBRANCH   1  18
BRANCH  10  25
ATOM     25  N   UNL     1       8.149  -0.950   5.193  0.00  0.00    -0.254 N 
ATOM     26  C   UNL     1       8.023  -2.085   6.120  0.00  0.00    +0.134 C 
ATOM     27  C   UNL     1       8.775  -1.617   7.381  0.00  0.00    +0.125 C 
ATOM     28  N   UNL     1       9.246  -0.269   7.031  0.00  0.00    -0.297 N 
ATOM     29  C   UNL     1       8.856   0.023   5.783  0.00  0.00    +0.307 C 
ATOM     30  O   UNL     1       9.115   1.078   5.237  0.00  0.00    -0.252 OA
ATOM     31  H   UNL     1       9.761   0.315   7.609  0.00  0.00    +0.150 HD
ENDBRANCH  10  25
TORSDOF 3
