REMARK  Name = ZINC02221892
REMARK  1 active torsions:
REMARK  status: ('A' for Active; 'I' for Inactive)
REMARK    1  A    between atoms: C_10  and  C_13
REMARK                            x       y       z     vdW  Elec       q    Type
REMARK                         _______ _______ _______ _____ _____    ______ ____
ROOT
ATOM      1  C   UNL     1       4.702   1.096  -0.515  0.00  0.00    +0.015 A 
ATOM      2  C   UNL     1       3.709   0.173  -0.267  0.00  0.00    +0.016 A 
ATOM      3  C   UNL     1       2.372   0.557  -0.360  0.00  0.00    +0.065 A 
ATOM      4  C   UNL     1       2.036   1.876  -0.705  0.00  0.00    +0.139 A 
ATOM      5  C   UNL     1       3.053   2.791  -0.952  0.00  0.00    +0.061 A 
ATOM      6  C   UNL     1       4.372   2.400  -0.856  0.00  0.00    +0.017 A 
ATOM      7  I   UNL     1       5.895   3.789  -1.232  0.00  0.00    -0.044 I 
ATOM      8  O   UNL     1       0.745   2.252  -0.797  0.00  0.00    -0.462 OA
ATOM      9  C   UNL     1      -0.279   1.428  -0.574  0.00  0.00    +0.207 A 
ATOM     10  C   UNL     1      -0.097   0.106  -0.228  0.00  0.00    +0.059 A 
ATOM     11  C   UNL     1       1.283  -0.404  -0.101  0.00  0.00    +0.200 A 
ATOM     12  O   UNL     1       1.510  -1.562   0.202  0.00  0.00    -0.286 OA
ENDROOT
BRANCH  10  13
ATOM     13  C   UNL     1      -1.247  -0.772   0.010  0.00  0.00    +0.045 C 
ATOM     14  C   UNL     1      -2.324  -0.310   0.699  0.00  0.00    +0.105 C 
ATOM     15  C   UNL     1      -2.448   0.972   1.405  0.00  0.00    +0.266 C 
ATOM     16  O   UNL     1      -1.601   1.842   1.494  0.00  0.00    -0.268 OA
ATOM     17  N   UNL     1      -3.688   0.992   1.933  0.00  0.00    -0.261 N 
ATOM     18  C   UNL     1      -4.331  -0.146   1.630  0.00  0.00    +0.150 C 
ATOM     19  S   UNL     1      -5.929  -0.517   2.119  0.00  0.00    -0.016 SA
ATOM     20  N   UNL     1      -3.553  -0.957   0.891  0.00  0.00    -0.333 N 
ATOM     21  H   UNL     1      -4.025   1.865   2.512  0.00  0.00    +0.157 HD
ATOM     22  H   UNL     1      -3.935  -1.934   0.560  0.00  0.00    +0.168 HD
ENDBRANCH  10  13
TORSDOF 1
