REMARK  Name = ZINC14396125
REMARK  9 active torsions:
REMARK  status: ('A' for Active; 'I' for Inactive)
REMARK    1  A    between atoms: C_1  and  C_2
REMARK    2  A    between atoms: C_3  and  C_32
REMARK    3  A    between atoms: C_4  and  C_25
REMARK    4  A    between atoms: C_10  and  C_11
REMARK    5  A    between atoms: C_14  and  N_16
REMARK    6  A    between atoms: C_32  and  O_34
REMARK    7  A    between atoms: O_34  and  C_35
REMARK    8  A    between atoms: C_35  and  C_36
REMARK    9  A    between atoms: C_35  and  C_37
REMARK                            x       y       z     vdW  Elec       q    Type
REMARK                         _______ _______ _______ _____ _____    ______ ____
ROOT
ATOM      1  C   UNL     1       4.157   4.113  -0.729  0.00  0.00    +0.066 C 
ATOM      2  C   UNL     1       2.838   4.842  -0.730  0.00  0.00    +0.053 C 
ATOM      3  C   UNL     1       1.734   4.244  -1.272  0.00  0.00    +0.085 C 
ATOM      4  C   UNL     1       0.428   5.006  -1.246  0.00  0.00    +0.162 C 
ATOM      5  N   UNL     1       0.447   6.363  -0.633  0.00  0.00    -0.275 N 
ATOM      6  C   UNL     1      -0.596   7.194  -0.513  0.00  0.00    +0.268 A 
ATOM      7  O   UNL     1      -1.700   6.878  -0.922  0.00  0.00    -0.266 OA
ATOM      8  C   UNL     1      -0.381   8.451   0.102  0.00  0.00    +0.084 A 
ATOM      9  C   UNL     1      -1.277   9.472   0.342  0.00  0.00    +0.067 C 
ATOM     10  S   UNL     1       1.360   8.361   0.483  0.00  0.00    -0.046 S 
ATOM     11  C   UNL     1       1.666   6.779  -0.152  0.00  0.00    +0.178 A 
ATOM     12  N   UNL     1       2.760   6.059  -0.209  0.00  0.00    -0.228 NA
ENDROOT
BRANCH   4  13
ATOM     13  C   UNL     1      -0.581   4.174  -0.498  0.00  0.00    -0.020 A 
ATOM     14  C   UNL     1      -0.574   4.157   0.884  0.00  0.00    +0.007 A 
ATOM     15  C   UNL     1      -1.503   3.398   1.571  0.00  0.00    +0.020 A 
ATOM     16  C   UNL     1      -2.432   2.646   0.875  0.00  0.00    +0.041 A 
ATOM     17  C   UNL     1      -2.434   2.658  -0.509  0.00  0.00    +0.020 A 
ATOM     18  C   UNL     1      -1.509   3.422  -1.194  0.00  0.00    +0.007 A 
ATOM     19 CL   UNL     1      -3.594   1.686   1.737  0.00  0.00    -0.084 Cl
ENDBRANCH   4  13
BRANCH   9  20
ATOM     20  C   UNL     1      -2.657   9.242   0.208  0.00  0.00    +0.131 A 
ATOM     21  C   UNL     1      -3.656  10.199   0.297  0.00  0.00    +0.051 A 
ATOM     22  C   UNL     1      -4.867   9.533   0.103  0.00  0.00    +0.066 A 
ATOM     23  C   UNL     1      -4.576   8.213  -0.095  0.00  0.00    +0.189 A 
ATOM     24  O   UNL     1      -3.245   8.049  -0.036  0.00  0.00    -0.442 OA
BRANCH  23  25
ATOM     25  N   UNL     1      -5.499   7.213  -0.324  0.00  0.00    -0.301 N 
ATOM     26  C   UNL     1      -6.498   7.163   0.751  0.00  0.00    +0.108 C 
ATOM     27  C   UNL     1      -7.584   6.145   0.394  0.00  0.00    +0.019 C 
ATOM     28  C   UNL     1      -6.942   4.768   0.204  0.00  0.00    +0.003 C 
ATOM     29  C   UNL     1      -5.871   4.858  -0.887  0.00  0.00    +0.019 C 
ATOM     30  C   UNL     1      -4.836   5.914  -0.493  0.00  0.00    +0.108 C 
ENDBRANCH  23  25
ENDBRANCH   9  20
BRANCH   3  31
ATOM     31  C   UNL     1       1.808   2.958  -1.830  0.00  0.00    +0.339 C 
ATOM     32  O   UNL     1       2.878   2.377  -1.879  0.00  0.00    -0.245 OA
BRANCH  31  33
ATOM     33  O   UNL     1       0.695   2.365  -2.312  0.00  0.00    -0.459 OA
BRANCH  33  34
ATOM     34  C   UNL     1       0.844   1.056  -2.866  0.00  0.00    +0.171 C 
ATOM     35  C   UNL     1       0.644   0.011  -1.766  0.00  0.00    +0.052 C 
ATOM     36  C   UNL     1      -0.198   0.846  -3.966  0.00  0.00    +0.052 C 
ENDBRANCH  33  34
ENDBRANCH  31  33
ENDBRANCH   3  31
TORSDOF 6
