REMARK  Name = ZINC19537839
REMARK  8 active torsions:
REMARK  status: ('A' for Active; 'I' for Inactive)
REMARK    1  A    between atoms: C_1  and  C_2
REMARK    2  A    between atoms: C_2  and  N_3
REMARK    3  A    between atoms: N_3  and  C_4
REMARK    4  A    between atoms: N_3  and  C_10
REMARK    5  A    between atoms: C_4  and  C_5
REMARK    6  A    between atoms: C_10  and  C_11
REMARK    7  A    between atoms: N_13  and  C_14
REMARK    8  A    between atoms: C_17  and  N_21
REMARK                            x       y       z     vdW  Elec       q    Type
REMARK                         _______ _______ _______ _____ _____    ______ ____
ROOT
ATOM      1  C   UNL     1      -3.456   3.942  -2.737  0.00  0.00    +0.201 C 
ATOM      2  O   UNL     1      -2.766   3.576  -3.665  0.00  0.00    -0.278 OA
ATOM      3  N   UNL     1      -4.621   4.576  -2.972  0.00  0.00    -0.286 N 
ATOM      4  H   UNL     1      -5.205   4.983  -2.133  0.00  0.00    +0.155 HD
ENDROOT
BRANCH   3   5
ATOM      5  C   UNL     1      -5.088   4.718  -4.284  0.00  0.00    +0.048 A 
ATOM      6  C   UNL     1      -4.190   4.762  -5.342  0.00  0.00    +0.026 A 
ATOM      7  C   UNL     1      -4.654   4.902  -6.635  0.00  0.00    +0.034 A 
ATOM      8  C   UNL     1      -6.012   4.997  -6.878  0.00  0.00    +0.127 A 
ATOM      9  C   UNL     1      -6.910   4.953  -5.827  0.00  0.00    +0.049 A 
ATOM     10  C   UNL     1      -6.453   4.809  -4.531  0.00  0.00    +0.041 A 
ATOM     11 BR   UNL     1      -7.681   4.741  -3.095  0.00  0.00    -0.048 Br
BRANCH   8  12
ATOM     12  N   UNL     1      -6.506   5.146  -8.265  0.00  0.00    +0.056 N 
ATOM     13  O   UNL     1      -5.716   5.184  -9.192  0.00  0.00    -0.126 OA
ATOM     14  O   UNL     1      -7.702   5.230  -8.480  0.00  0.00    -0.126 OA
ENDBRANCH   8  12
ENDBRANCH   3   5
BRANCH   1  15
ATOM     15  C   UNL     1      -3.009   3.688  -1.320  0.00  0.00    +0.019 C 
BRANCH  15  16
ATOM     16  N   UNL     1      -1.787   2.872  -1.331  0.00  0.00    +0.388 N 
ATOM     17  H   UNL     1      -1.106   3.294  -2.084  0.00  0.00    -0.081 HD
BRANCH  16  19
ATOM     18  C   UNL     1      -2.959   0.834  -0.643  0.00  0.00    -0.017 C 
ATOM     19  C   UNL     1      -2.084   1.486  -1.716  0.00  0.00    -0.081 C 
ENDBRANCH  16  19
BRANCH  16  20
ATOM     20  C   UNL     1      -1.109   2.923  -0.029  0.00  0.00    -0.035 C 
BRANCH  20  21
ATOM     21  C   UNL     1       0.251   2.285  -0.146  0.00  0.00    -0.027 A 
ATOM     22  C   UNL     1       1.437   2.856  -0.471  0.00  0.00    +0.009 A 
ATOM     23  C   UNL     1       2.570   2.066  -0.523  0.00  0.00    +0.008 A 
ATOM     24  C   UNL     1       2.462   0.743  -0.247  0.00  0.00    +0.045 A 
ATOM     25  S   UNL     1       0.718   0.579   0.100  0.00  0.00    -0.103 S 
ENDBRANCH  20  21
ENDBRANCH  16  20
ENDBRANCH  15  16
ENDBRANCH   1  15
TORSDOF 7
