REMARK  Name = ZINC25011498
REMARK  10 active torsions:
REMARK  status: ('A' for Active; 'I' for Inactive)
REMARK    1  A    between atoms: C_1  and  C_2
REMARK    2  A    between atoms: N_5  and  C_8
REMARK    3  A    between atoms: C_8  and  C_9
REMARK    4  A    between atoms: C_15  and  C_17
REMARK    5  A    between atoms: C_17  and  C_19
REMARK    6  A    between atoms: C_17  and  N_22
REMARK    7  A    between atoms: C_19  and  C_20
REMARK    8  A    between atoms: C_19  and  C_21
REMARK    9  A    between atoms: N_22  and  S_23
REMARK   10  A    between atoms: S_23  and  C_26
REMARK                            x       y       z     vdW  Elec       q    Type
REMARK                         _______ _______ _______ _____ _____    ______ ____
ROOT
ATOM      1  C   UNL     1       2.928  -0.196  -8.101  0.00  0.00    +0.034 A 
ATOM      2  C   UNL     1       1.585  -0.234  -8.278  0.00  0.00    +0.070 A 
ATOM      3  S   UNL     1       1.061  -0.897  -6.704  0.00  0.00    -0.060 S 
ATOM      4  C   UNL     1       2.636  -1.053  -5.989  0.00  0.00    +0.165 A 
ATOM      5  N   UNL     1       3.422  -0.605  -6.949  0.00  0.00    -0.231 NA
ATOM      6  N   UNL     1       2.979  -1.524  -4.727  0.00  0.00    -0.263 N 
ATOM      7  C   UNL     1       2.018  -1.937  -3.877  0.00  0.00    +0.238 C 
ATOM      8  O   UNL     1       0.854  -1.897  -4.213  0.00  0.00    -0.274 OA
ATOM      9  H   UNL     1       4.035  -1.559  -4.422  0.00  0.00    +0.157 HD
ENDROOT
BRANCH   1  10
ATOM     10  C   UNL     1       3.836   0.307  -9.193  0.00  0.00    -0.022 C 
BRANCH  10  15
ATOM     11  C   UNL     1       5.833   5.548  -8.090  0.00  0.00    +0.007 C 
ATOM     12  C   UNL     1       5.718   4.032  -8.264  0.00  0.00    -0.018 C 
ATOM     13  C   UNL     1       5.360   3.710  -9.718  0.00  0.00    -0.016 C 
ATOM     14  C   UNL     1       5.187   2.198  -9.873  0.00  0.00    -0.078 C 
ATOM     15  N   UNL     1       4.125   1.731  -8.973  0.00  0.00    +0.383 N 
ATOM     16  C   UNL     1       4.468   1.986  -7.568  0.00  0.00    -0.078 C 
ATOM     17  C   UNL     1       4.620   3.493  -7.345  0.00  0.00    -0.016 C 
ATOM     18  H   UNL     1       3.214   2.302  -9.204  0.00  0.00    -0.081 HD
ENDBRANCH  10  15
ENDBRANCH   1  10
BRANCH   7  19
ATOM     19  C   UNL     1       2.391  -2.447  -2.509  0.00  0.00    +0.165 C 
BRANCH  19  20
ATOM     20  C   UNL     1       3.306  -3.664  -2.651  0.00  0.00    +0.010 C 
ATOM     21  C   UNL     1       3.790  -4.103  -1.267  0.00  0.00    +0.009 C 
ATOM     22  C   UNL     1       2.534  -4.810  -3.308  0.00  0.00    +0.009 C 
ENDBRANCH  19  20
BRANCH  19  23
ATOM     23  N   UNL     1       1.177  -2.830  -1.784  0.00  0.00    -0.178 NA
ATOM     24  H   UNL     1       0.424  -3.467  -2.270  0.00  0.00    +0.149 HD
BRANCH  23  25
ATOM     25  S   UNL     1       0.816  -2.114  -0.335  0.00  0.00    +0.059 S 
ATOM     26  O   UNL     1       1.981  -2.221   0.472  0.00  0.00    -0.153 OA
ATOM     27  O   UNL     1      -0.443  -2.631   0.072  0.00  0.00    -0.153 OA
BRANCH  25  28
ATOM     28  C   UNL     1       0.577  -0.396  -0.649  0.00  0.00    +0.105 A 
ATOM     29  C   UNL     1      -0.682   0.080  -0.964  0.00  0.00    +0.030 A 
ATOM     30  C   UNL     1      -0.870   1.427  -1.210  0.00  0.00    +0.022 A 
ATOM     31  C   UNL     1       0.202   2.299  -1.141  0.00  0.00    +0.041 A 
ATOM     32  C   UNL     1       1.462   1.821  -0.826  0.00  0.00    +0.022 A 
ATOM     33  C   UNL     1       1.649   0.474  -0.580  0.00  0.00    +0.030 A 
ATOM     34 CL   UNL     1      -0.034   3.990  -1.450  0.00  0.00    -0.084 Cl
ENDBRANCH  25  28
ENDBRANCH  23  25
ENDBRANCH  19  23
ENDBRANCH   7  19
TORSDOF 7
