REMARK  Name = ZINC59435588
REMARK  10 active torsions:
REMARK  status: ('A' for Active; 'I' for Inactive)
REMARK    1  A    between atoms: C_1  and  C_2
REMARK    2  A    between atoms: C_2  and  C_3
REMARK    3  A    between atoms: C_2  and  C_4
REMARK    4  A    between atoms: C_7  and  N_10
REMARK    5  A    between atoms: C_11  and  C_13
REMARK    6  A    between atoms: N_15  and  N_16
REMARK    7  A    between atoms: C_20  and  C_23
REMARK    8  A    between atoms: C_23  and  C_24
REMARK    9  A    between atoms: C_23  and  C_25
REMARK   10  A    between atoms: C_23  and  C_26
REMARK                            x       y       z     vdW  Elec       q    Type
REMARK                         _______ _______ _______ _____ _____    ______ ____
ROOT
ATOM      1  C   UNL     1      -7.218  -3.092  -1.043  0.00  0.00    +0.318 C 
ATOM      2  O   UNL     1      -7.967  -2.785  -0.138  0.00  0.00    -0.263 OA
ATOM      3  N   UNL     1      -7.684  -3.797  -2.094  0.00  0.00    -0.199 N 
ATOM      4  H   UNL     1      -7.086  -4.042  -2.817  0.00  0.00    +0.178 HD
ENDROOT
BRANCH   3   5
ATOM      5  N   UNL     1      -9.032  -4.175  -2.141  0.00  0.00    -0.189 NA
ATOM      6  C   UNL     1      -9.456  -4.916  -3.095  0.00  0.00    +0.037 C 
ATOM      7  C   UNL     1      -8.551  -5.289  -4.248  0.00  0.00    +0.053 C 
ATOM      8  C   UNL     1      -9.275  -4.965  -5.559  0.00  0.00    +0.010 C 
ATOM      9  C   UNL     1     -10.636  -5.663  -5.575  0.00  0.00    -0.005 C 
ATOM     10  C   UNL     1     -11.514  -5.112  -4.450  0.00  0.00    +0.010 C 
ATOM     11  C   UNL     1     -10.873  -5.446  -3.094  0.00  0.00    +0.053 C 
BRANCH   9  12
ATOM     12  C   UNL     1     -11.319  -5.416  -6.921  0.00  0.00    -0.035 C 
ATOM     13  C   UNL     1     -10.445  -5.974  -8.047  0.00  0.00    +0.011 C 
ATOM     14  C   UNL     1     -12.680  -6.114  -6.938  0.00  0.00    +0.011 C 
ATOM     15  C   UNL     1     -11.514  -3.912  -7.126  0.00  0.00    +0.011 C 
ENDBRANCH   9  12
ENDBRANCH   3   5
BRANCH   1  17
ATOM     16  N   UNL     1      -5.317  -1.986   0.058  0.00  0.00    -0.278 N 
ATOM     17  C   UNL     1      -5.782  -2.690  -0.993  0.00  0.00    +0.305 C 
ATOM     18  O   UNL     1      -5.034  -2.997  -1.897  0.00  0.00    -0.265 OA
ATOM     19  H   UNL     1      -5.895  -1.805   0.816  0.00  0.00    +0.155 HD
BRANCH  16  23
ATOM     20  C   UNL     1      -1.394  -0.587   0.051  0.00  0.00    -0.045 A 
ATOM     21  C   UNL     1      -1.990  -0.964   1.241  0.00  0.00    +0.006 A 
ATOM     22  C   UNL     1      -3.291  -1.428   1.247  0.00  0.00    +0.023 A 
ATOM     23  C   UNL     1      -4.001  -1.516   0.056  0.00  0.00    +0.034 A 
ATOM     24  C   UNL     1      -3.399  -1.137  -1.137  0.00  0.00    +0.023 A 
ATOM     25  C   UNL     1      -2.100  -0.668  -1.135  0.00  0.00    +0.006 A 
BRANCH  20  27
ATOM     26  C   UNL     1       0.124   1.165   0.930  0.00  0.00    +0.012 C 
ATOM     27  C   UNL     1       0.026  -0.082   0.049  0.00  0.00    +0.013 C 
ATOM     28  C   UNL     1       0.955  -1.168   0.596  0.00  0.00    +0.012 C 
ENDBRANCH  20  27
ENDBRANCH  16  23
ENDBRANCH   1  17
TORSDOF 5
