REMARK  Name = ZINC64435630
REMARK  5 active torsions:
REMARK  status: ('A' for Active; 'I' for Inactive)
REMARK    1  A    between atoms: C_1  and  C_2
REMARK    2  A    between atoms: C_2  and  C_3
REMARK    3  A    between atoms: C_2  and  C_4
REMARK    4  A    between atoms: C_2  and  N_5
REMARK    5  A    between atoms: C_12  and  C_18
REMARK                            x       y       z     vdW  Elec       q    Type
REMARK                         _______ _______ _______ _____ _____    ______ ____
ROOT
ATOM      1  N   UNL     1       1.057  -0.172  -1.327  0.00  0.00    -0.230 N 
ATOM      2  C   UNL     1       0.888  -1.518  -1.866  0.00  0.00    +0.187 C 
ATOM      3  C   UNL     1       0.713  -1.160  -3.377  0.00  0.00    +0.076 C 
ATOM      4  C   UNL     1       1.602   0.033  -3.504  0.00  0.00    +0.110 C 
ATOM      5  N   UNL     1       1.756   0.538  -2.330  0.00  0.00    -0.194 NA
ATOM      6  C   UNL     1       1.049  -2.406  -4.157  0.00  0.00    +0.025 C 
ATOM      7  C   UNL     1       0.241  -3.577  -3.586  0.00  0.00    +0.101 C 
ATOM      8  C   UNL     1      -0.669  -3.192  -2.460  0.00  0.00    +0.215 C 
ATOM      9  O   UNL     1      -1.740  -3.751  -2.359  0.00  0.00    -0.276 OA
ATOM     10  N   UNL     1      -0.330  -2.245  -1.524  0.00  0.00    -0.295 N 
ATOM     11  H   UNL     1      -0.848  -2.067  -0.724  0.00  0.00    +0.151 HD
ENDROOT
BRANCH   6  12
ATOM     12  C   UNL     1       0.691  -2.201  -5.630  0.00  0.00    +0.103 C 
ATOM     13  C   UNL     1      -0.788  -1.877  -5.709  0.00  0.00    -0.004 C 
ATOM     14  C   UNL     1      -1.569  -2.699  -6.467  0.00  0.00    -0.007 A 
ATOM     15  C   UNL     1      -3.007  -2.459  -6.596  0.00  0.00    +0.009 A 
ATOM     16  C   UNL     1      -3.745  -3.303  -7.362  0.00  0.00    +0.001 A 
ATOM     17  C   UNL     1      -3.161  -4.386  -8.020  0.00  0.00    +0.002 A 
ATOM     18  C   UNL     1      -1.833  -4.663  -7.939  0.00  0.00    +0.024 A 
ATOM     19  C   UNL     1      -0.979  -3.849  -7.173  0.00  0.00    +0.040 A 
ATOM     20  N   UNL     1       0.322  -4.129  -7.102  0.00  0.00    -0.284 N 
ATOM     21  C   UNL     1       1.179  -3.409  -6.399  0.00  0.00    +0.224 C 
ATOM     22  O   UNL     1       2.356  -3.715  -6.372  0.00  0.00    -0.275 OA
ATOM     23  H   UNL     1       0.656  -4.899  -7.588  0.00  0.00    +0.155 HD
ENDBRANCH   6  12
BRANCH   1  25
ATOM     24  C   UNL     1       1.126   1.754   0.179  0.00  0.00    +0.033 C 
ATOM     25  C   UNL     1       0.596   0.334  -0.031  0.00  0.00    +0.046 C 
ATOM     26  C   UNL     1       1.115  -0.574   1.085  0.00  0.00    +0.033 C 
ATOM     27  C   UNL     1      -0.933   0.352  -0.005  0.00  0.00    +0.033 C 
ENDBRANCH   1  25
TORSDOF 2
