REMARK  Name = ZINC33748735
REMARK  14 active torsions:
REMARK  status: ('A' for Active; 'I' for Inactive)
REMARK    1  A    between atoms: C_1  and  C_2
REMARK    2  A    between atoms: C_6  and  C_7
REMARK    3  A    between atoms: C_7  and  N_8
REMARK    4  A    between atoms: N_8  and  C_9
REMARK    5  A    between atoms: C_9  and  C_10
REMARK    6  A    between atoms: C_17  and  C_19
REMARK    7  A    between atoms: C_19  and  N_20
REMARK    8  A    between atoms: N_20  and  C_21
REMARK    9  A    between atoms: C_21  and  C_22
REMARK   10  A    between atoms: C_22  and  N_23
REMARK   11  A    between atoms: N_30  and  C_31
REMARK   12  A    between atoms: C_31  and  C_32
REMARK   13  A    between atoms: C_31  and  C_33
REMARK   14  A    between atoms: C_31  and  C_34
REMARK                            x       y       z     vdW  Elec       q    Type
REMARK                         _______ _______ _______ _____ _____    ______ ____
ROOT
ATOM      1  N   UNL     1       3.566   2.455  -2.711  0.00  0.00    -0.291 N 
ATOM      2  C   UNL     1       2.371   2.093  -2.202  0.00  0.00    +0.234 C 
ATOM      3  O   UNL     1       2.321   1.389  -1.216  0.00  0.00    -0.274 OA
ENDROOT
BRANCH   1   4
ATOM      4  C   UNL     1       3.627   3.306  -3.902  0.00  0.00    +0.150 C 
BRANCH   4  10
ATOM      5  C   UNL     1       6.250   4.893  -3.708  0.00  0.00    +0.044 C 
ATOM      6  C   UNL     1       4.906   5.491  -3.381  0.00  0.00    -0.039 A 
ATOM      7  C   UNL     1       4.804   6.809  -2.976  0.00  0.00    +0.011 A 
ATOM      8  C   UNL     1       3.580   7.313  -2.683  0.00  0.00    +0.046 A 
ATOM      9  S   UNL     1       2.520   5.910  -2.986  0.00  0.00    -0.100 S 
ATOM     10  C   UNL     1       3.778   4.745  -3.483  0.00  0.00    +0.010 A 
ENDBRANCH   4  10
ENDBRANCH   1   4
BRANCH   1  11
ATOM     11  C   UNL     1       4.803   1.997  -2.073  0.00  0.00    +0.143 C 
BRANCH  11  12
ATOM     12  C   UNL     1       5.294   0.752  -2.766  0.00  0.00    -0.030 A 
ATOM     13  C   UNL     1       4.885  -0.492  -2.324  0.00  0.00    +0.008 A 
ATOM     14  C   UNL     1       5.331  -1.634  -2.962  0.00  0.00    +0.038 A 
ATOM     15  C   UNL     1       6.197  -1.532  -4.037  0.00  0.00    +0.123 A 
ATOM     16  C   UNL     1       6.611  -0.285  -4.476  0.00  0.00    +0.038 A 
ATOM     17  C   UNL     1       6.159   0.855  -3.840  0.00  0.00    +0.008 A 
ATOM     18  F   UNL     1       6.637  -2.648  -4.659  0.00  0.00    -0.205 F 
ENDBRANCH  11  12
ENDBRANCH   1  11
BRANCH   2  19
ATOM     19  C   UNL     1       1.099   2.564  -2.858  0.00  0.00    +0.205 C 
BRANCH  19  20
ATOM     20  N   UNL     1      -0.053   2.040  -2.121  0.00  0.00    -0.279 N 
ATOM     21  C   UNL     1      -0.585   0.849  -2.461  0.00  0.00    +0.303 C 
ATOM     22  O   UNL     1      -0.109   0.210  -3.379  0.00  0.00    -0.253 OA
ATOM     23  N   UNL     1      -1.646   0.367  -1.783  0.00  0.00    -0.294 N 
ATOM     24  H   UNL     1      -2.077   0.945  -0.953  0.00  0.00    +0.151 HD
BRANCH  23  25
ATOM     25  C   UNL     1      -2.224  -0.927  -2.152  0.00  0.00    +0.028 C 
ATOM     26  C   UNL     1      -1.163  -2.020  -2.005  0.00  0.00    +0.031 C 
ATOM     27  C   UNL     1      -3.407  -1.238  -1.233  0.00  0.00    +0.031 C 
ATOM     28  C   UNL     1      -2.705  -0.876  -3.603  0.00  0.00    +0.031 C 
ENDBRANCH  23  25
BRANCH  20  29
ATOM     29  C   UNL     1      -0.628   2.810  -1.015  0.00  0.00    +0.091 C 
BRANCH  29  30
ATOM     30  C   UNL     1       0.063   2.418   0.292  0.00  0.00    -0.060 C 
BRANCH  30  31
ATOM     31  N   UNL     1      -0.513   3.190   1.401  0.00  0.00    +0.381 N 
ATOM     32  C   UNL     1      -1.993   3.066   1.424  0.00  0.00    -0.079 C 
ATOM     33  C   UNL     1      -2.360   3.460   2.877  0.00  0.00    -0.020 C 
ATOM     34  C   UNL     1      -1.206   2.848   3.703  0.00  0.00    -0.020 C 
ATOM     35  C   UNL     1      -0.045   2.674   2.706  0.00  0.00    -0.079 C 
ATOM     36  H   UNL     1      -0.192   4.230   1.241  0.00  0.00    -0.082 HD
ENDBRANCH  30  31
ENDBRANCH  29  30
ENDBRANCH  20  29
ENDBRANCH  19  20
ENDBRANCH   2  19
TORSDOF 10
