REMARK  Name = ZINC40963097
REMARK  10 active torsions:
REMARK  status: ('A' for Active; 'I' for Inactive)
REMARK    1  A    between atoms: C_1  and  C_2
REMARK    2  A    between atoms: C_2  and  C_3
REMARK    3  A    between atoms: C_3  and  C_4
REMARK    4  A    between atoms: C_4  and  O_5
REMARK    5  A    between atoms: O_5  and  C_6
REMARK    6  A    between atoms: C_11  and  C_12
REMARK    7  A    between atoms: C_14  and  C_23
REMARK    8  A    between atoms: C_15  and  C_22
REMARK    9  A    between atoms: N_25  and  C_26
REMARK   10  A    between atoms: C_29  and  C_32
REMARK                            x       y       z     vdW  Elec       q    Type
REMARK                         _______ _______ _______ _____ _____    ______ ____
ROOT
ATOM      1  C   UNL     1       2.758  -3.367   4.702  0.00  0.00    +0.182 C 
ATOM      2  C   UNL     1       4.240  -3.636   4.702  0.00  0.00    +0.060 C 
ATOM      3  C   UNL     1       4.868  -4.275   5.699  0.00  0.00    +0.018 C 
ATOM      4  N   UNL     1       4.205  -4.729   6.813  0.00  0.00    -0.286 N 
ATOM      5  C   UNL     1       2.905  -4.283   7.006  0.00  0.00    +0.240 A 
ATOM      6  N   UNL     1       2.216  -3.640   6.028  0.00  0.00    -0.201 N 
ATOM      7  N   UNL     1       0.972  -3.342   6.580  0.00  0.00    -0.042 NA
ATOM      8  N   UNL     1       0.986  -3.804   7.788  0.00  0.00    -0.021 NA
ATOM      9  N   UNL     1       2.122  -4.360   8.044  0.00  0.00    -0.092 NA
ATOM     10  C   UNL     1       6.354  -4.505   5.593  0.00  0.00    +0.061 C 
ATOM     11  H   UNL     1       4.628  -5.336   7.440  0.00  0.00    +0.155 HD
ENDROOT
BRANCH   1  17
ATOM     12  C   UNL     1       1.375  -3.703   2.638  0.00  0.00    +0.126 A 
ATOM     13  C   UNL     1       0.762  -4.527   1.705  0.00  0.00    +0.047 A 
ATOM     14  C   UNL     1       0.855  -5.900   1.830  0.00  0.00    +0.019 A 
ATOM     15  C   UNL     1       1.559  -6.453   2.885  0.00  0.00    +0.018 A 
ATOM     16  C   UNL     1       2.171  -5.633   3.816  0.00  0.00    +0.025 A 
ATOM     17  C   UNL     1       2.085  -4.260   3.691  0.00  0.00    +0.024 A 
ATOM     18 BR   UNL     1       1.685  -8.332   3.054  0.00  0.00    -0.050 Br
BRANCH  12  19
ATOM     19  O   UNL     1       1.284  -2.353   2.516  0.00  0.00    -0.492 OA
BRANCH  19  20
ATOM     20  C   UNL     1       0.537  -1.850   1.407  0.00  0.00    +0.229 C 
BRANCH  20  21
ATOM     21  C   UNL     1       0.547  -0.320   1.437  0.00  0.00    +0.041 C 
BRANCH  21  23
ATOM     22  C   UNL     1      -0.243   1.748   0.279  0.00  0.00    +0.004 C 
ATOM     23  C   UNL     1      -0.253   0.219   0.249  0.00  0.00    -0.000 C 
ENDBRANCH  21  23
ENDBRANCH  20  21
ENDBRANCH  19  20
ENDBRANCH  12  19
ENDBRANCH   1  17
BRANCH   2  24
ATOM     24  C   UNL     1       5.005  -3.193   3.597  0.00  0.00    +0.248 C 
ATOM     25  O   UNL     1       5.275  -2.012   3.478  0.00  0.00    -0.270 OA
ATOM     26  N   UNL     1       5.434  -4.079   2.677  0.00  0.00    -0.282 N 
ATOM     27  H   UNL     1       5.165  -5.009   2.736  0.00  0.00    +0.155 HD
BRANCH  26  28
ATOM     28  C   UNL     1       6.268  -3.658   1.636  0.00  0.00    +0.034 A 
ATOM     29  C   UNL     1       7.258  -4.503   1.151  0.00  0.00    +0.023 A 
ATOM     30  C   UNL     1       8.079  -4.083   0.123  0.00  0.00    +0.005 A 
ATOM     31  C   UNL     1       7.918  -2.823  -0.423  0.00  0.00    -0.050 A 
ATOM     32  C   UNL     1       6.933  -1.979   0.058  0.00  0.00    +0.005 A 
ATOM     33  C   UNL     1       6.104  -2.395   1.081  0.00  0.00    +0.023 A 
ATOM     34  C   UNL     1       8.816  -2.369  -1.544  0.00  0.00    +0.044 C 
ENDBRANCH  26  28
ENDBRANCH   2  24
TORSDOF 7
