REMARK  Name = ZINC45592278
REMARK  12 active torsions:
REMARK  status: ('A' for Active; 'I' for Inactive)
REMARK    1  A    between atoms: C_1  and  C_2
REMARK    2  A    between atoms: C_5  and  S_8
REMARK    3  A    between atoms: S_8  and  N_11
REMARK    4  A    between atoms: N_11  and  C_12
REMARK    5  A    between atoms: C_12  and  C_14
REMARK    6  A    between atoms: C_12  and  C_18
REMARK    7  A    between atoms: C_14  and  C_15
REMARK    8  A    between atoms: C_15  and  C_16
REMARK    9  A    between atoms: C_15  and  C_17
REMARK   10  A    between atoms: N_20  and  C_21
REMARK   11  A    between atoms: N_24  and  C_27
REMARK   12  A    between atoms: C_27  and  C_28
REMARK                            x       y       z     vdW  Elec       q    Type
REMARK                         _______ _______ _______ _____ _____    ______ ____
ROOT
ATOM      1  C   UNL     1       3.599  -3.866   0.315  0.00  0.00    +0.232 C 
ATOM      2  O   UNL     1       3.835  -3.949  -0.871  0.00  0.00    -0.274 OA
ATOM      3  N   UNL     1       4.451  -3.209   1.128  0.00  0.00    -0.311 N 
ATOM      4  H   UNL     1       4.300  -3.203   2.086  0.00  0.00    +0.149 HD
ENDROOT
BRANCH   3   5
ATOM      5  C   UNL     1       5.605  -2.505   0.564  0.00  0.00    +0.069 C 
ATOM      6  C   UNL     1       6.769  -3.484   0.393  0.00  0.00    +0.003 C 
ATOM      7  C   UNL     1       7.995  -2.726  -0.122  0.00  0.00    -0.077 C 
ATOM      8  N   UNL     1       8.369  -1.683   0.841  0.00  0.00    +0.382 N 
ATOM      9  C   UNL     1       7.285  -0.700   0.956  0.00  0.00    -0.077 C 
ATOM     10  C   UNL     1       6.032  -1.380   1.512  0.00  0.00    +0.003 C 
ATOM     11  H   UNL     1       8.538  -2.103   1.742  0.00  0.00    -0.081 HD
BRANCH   8  12
ATOM     12  C   UNL     1       9.591  -1.009   0.381  0.00  0.00    -0.043 C 
BRANCH  12  13
ATOM     13  C   UNL     1      10.044  -0.023   1.426  0.00  0.00    -0.064 A 
ATOM     14  C   UNL     1       9.584   1.280   1.392  0.00  0.00    +0.003 A 
ATOM     15  C   UNL     1      10.000   2.185   2.350  0.00  0.00    +0.020 A 
ATOM     16  C   UNL     1      10.877   1.787   3.343  0.00  0.00    +0.041 A 
ATOM     17  C   UNL     1      11.337   0.483   3.377  0.00  0.00    +0.020 A 
ATOM     18  C   UNL     1      10.916  -0.423   2.421  0.00  0.00    +0.003 A 
ATOM     19 CL   UNL     1      11.400   2.924   4.547  0.00  0.00    -0.084 Cl
ENDBRANCH  12  13
ENDBRANCH   8  12
ENDBRANCH   3   5
BRANCH   1  20
ATOM     20  C   UNL     1       2.353  -4.497   0.881  0.00  0.00    +0.162 C 
BRANCH  20  21
ATOM     21  N   UNL     1       1.391  -4.733  -0.198  0.00  0.00    -0.178 NA
ATOM     22  H   UNL     1       1.704  -5.005  -1.075  0.00  0.00    +0.149 HD
BRANCH  21  23
ATOM     23  S   UNL     1      -0.229  -4.535   0.079  0.00  0.00    +0.059 S 
ATOM     24  O   UNL     1      -0.534  -5.274   1.253  0.00  0.00    -0.153 OA
ATOM     25  O   UNL     1      -0.884  -4.769  -1.161  0.00  0.00    -0.153 OA
BRANCH  23  30
ATOM     26  C   UNL     1      -1.115   1.279   1.426  0.00  0.00    +0.044 C 
ATOM     27  C   UNL     1      -0.894  -0.173   1.089  0.00  0.00    -0.050 A 
ATOM     28  C   UNL     1      -0.960  -0.596  -0.225  0.00  0.00    +0.005 A 
ATOM     29  C   UNL     1      -0.757  -1.928  -0.534  0.00  0.00    +0.029 A 
ATOM     30  C   UNL     1      -0.487  -2.837   0.472  0.00  0.00    +0.105 A 
ATOM     31  C   UNL     1      -0.420  -2.414   1.786  0.00  0.00    +0.029 A 
ATOM     32  C   UNL     1      -0.619  -1.081   2.094  0.00  0.00    +0.005 A 
ENDBRANCH  23  30
ENDBRANCH  21  23
ENDBRANCH  20  21
BRANCH  20  33
ATOM     33  C   UNL     1       2.712  -5.828   1.545  0.00  0.00    +0.032 C 
BRANCH  33  34
ATOM     34  C   UNL     1       3.608  -5.568   2.757  0.00  0.00    -0.015 C 
ATOM     35  C   UNL     1       2.810  -4.828   3.833  0.00  0.00    +0.007 C 
ATOM     36  C   UNL     1       4.106  -6.902   3.319  0.00  0.00    +0.007 C 
ENDBRANCH  33  34
ENDBRANCH  20  33
ENDBRANCH   1  20
TORSDOF 9
