REMARK  Name = ZINC15546021
REMARK  5 active torsions:
REMARK  status: ('A' for Active; 'I' for Inactive)
REMARK    1  A    between atoms: N_7  and  C_20
REMARK    2  A    between atoms: C_9  and  C_12
REMARK    3  A    between atoms: C_20  and  C_21
REMARK    4  A    between atoms: N_23  and  C_24
REMARK    5  A    between atoms: C_25  and  C_34
REMARK                            x       y       z     vdW  Elec       q    Type
REMARK                         _______ _______ _______ _____ _____    ______ ____
ROOT
ATOM      1  C   UNL     1      -3.185   2.049  -2.138  0.00  0.00    +0.002 A 
ATOM      2  C   UNL     1      -4.286   2.503  -2.840  0.00  0.00    +0.004 A 
ATOM      3  C   UNL     1      -5.534   1.962  -2.595  0.00  0.00    +0.047 A 
ATOM      4  C   UNL     1      -5.687   0.963  -1.645  0.00  0.00    +0.143 A 
ATOM      5  C   UNL     1      -4.582   0.507  -0.935  0.00  0.00    +0.073 A 
ATOM      6  C   UNL     1      -3.329   1.056  -1.189  0.00  0.00    +0.027 A 
ATOM      7  N   UNL     1      -4.690  -0.493   0.036  0.00  0.00    -0.314 N 
ATOM      8  C   UNL     1      -5.915  -1.286  -0.120  0.00  0.00    +0.160 C 
ATOM      9  C   UNL     1      -7.106  -0.327  -0.240  0.00  0.00    +0.276 C 
ATOM     10  O   UNL     1      -6.929   0.448  -1.431  0.00  0.00    -0.476 OA
ENDROOT
BRANCH   9  11
ATOM     11  C   UNL     1      -8.388  -1.115  -0.331  0.00  0.00    +0.258 C 
ATOM     12  O   UNL     1      -9.055  -1.074  -1.343  0.00  0.00    -0.271 OA
ATOM     13  N   UNL     1      -8.793  -1.865   0.713  0.00  0.00    -0.298 N 
ATOM     14  C   UNL     1      -7.993  -1.930   1.943  0.00  0.00    +0.108 C 
ATOM     15  C   UNL     1      -8.896  -1.570   3.133  0.00  0.00    +0.019 C 
ATOM     16  C   UNL     1     -10.122  -2.487   3.131  0.00  0.00    +0.003 C 
ATOM     17  C   UNL     1     -10.917  -2.275   1.841  0.00  0.00    +0.019 C 
ATOM     18  C   UNL     1     -10.040  -2.639   0.639  0.00  0.00    +0.108 C 
ENDBRANCH   9  11
BRANCH   7  19
ATOM     19  C   UNL     1      -3.501  -1.356   0.037  0.00  0.00    +0.201 C 
BRANCH  19  20
ATOM     20  C   UNL     1      -3.291  -1.923  -1.343  0.00  0.00    +0.235 C 
ATOM     21  O   UNL     1      -4.108  -1.716  -2.215  0.00  0.00    -0.274 OA
ATOM     22  N   UNL     1      -2.194  -2.660  -1.609  0.00  0.00    -0.278 N 
ATOM     23  H   UNL     1      -1.541  -2.826  -0.912  0.00  0.00    +0.155 HD
BRANCH  22  24
ATOM     24  C   UNL     1      -2.001  -3.183  -2.881  0.00  0.00    +0.090 A 
ATOM     25  C   UNL     1      -0.949  -3.956  -3.343  0.00  0.00    +0.084 A 
ATOM     26  C   UNL     1      -0.981  -4.383  -4.735  0.00  0.00    -0.018 A 
ATOM     27  C   UNL     1      -2.056  -3.961  -5.435  0.00  0.00    -0.004 A 
ATOM     28  S   UNL     1      -3.015  -3.025  -4.275  0.00  0.00    -0.077 S 
ATOM     29  C   UNL     1      -2.368  -4.215  -6.877  0.00  0.00    +0.043 C 
ATOM     30  C   UNL     1      -2.205  -5.712  -7.172  0.00  0.00    +0.005 C 
ATOM     31  C   UNL     1      -0.761  -5.968  -7.590  0.00  0.00    +0.001 C 
ATOM     32  C   UNL     1       0.177  -5.013  -6.854  0.00  0.00    +0.005 C 
ATOM     33  C   UNL     1       0.109  -5.252  -5.349  0.00  0.00    +0.037 C 
BRANCH  25  34
ATOM     34  C   UNL     1       0.134  -4.323  -2.481  0.00  0.00    +0.102 C 
ATOM     35  N   UNL     1       0.994  -4.614  -1.798  0.00  0.00    -0.191 NA
ENDBRANCH  25  34
ENDBRANCH  22  24
ENDBRANCH  19  20
ENDBRANCH   7  19
TORSDOF 5
