REMARK  Name = ZINC15673270
REMARK  9 active torsions:
REMARK  status: ('A' for Active; 'I' for Inactive)
REMARK    1  A    between atoms: C_1  and  C_2
REMARK    2  A    between atoms: C_2  and  C_3
REMARK    3  A    between atoms: C_2  and  C_4
REMARK    4  A    between atoms: C_2  and  C_5
REMARK    5  A    between atoms: C_7  and  C_10
REMARK    6  A    between atoms: C_10  and  C_11
REMARK    7  A    between atoms: C_16  and  C_18
REMARK    8  A    between atoms: C_18  and  C_19
REMARK    9  A    between atoms: C_24  and  N_27
REMARK                            x       y       z     vdW  Elec       q    Type
REMARK                         _______ _______ _______ _____ _____    ______ ____
ROOT
ATOM      1  C   UNL     1      -3.597  -1.825  -1.353  0.00  0.00    +0.099 C 
ENDROOT
BRANCH   1   6
ATOM      2  C   UNL     1      -1.103  -1.884  -1.179  0.00  0.00    -0.019 C 
ATOM      3  C   UNL     1       0.112  -2.798  -1.007  0.00  0.00    -0.079 C 
ATOM      4  C   UNL     1      -1.222  -4.445   0.169  0.00  0.00    -0.082 C 
ATOM      5  C   UNL     1      -2.477  -3.579   0.032  0.00  0.00    -0.015 C 
ATOM      6  C   UNL     1      -2.373  -2.737  -1.242  0.00  0.00    -0.002 C 
ATOM      7  N   UNL     1      -0.027  -3.581   0.235  0.00  0.00    +0.379 N 
ATOM      8  H   UNL     1      -0.118  -2.940   1.032  0.00  0.00    -0.086 HD
ATOM      9  H   UNL     1       0.807  -4.167   0.361  0.00  0.00    -0.086 HD
BRANCH   2  10
ATOM     10  C   UNL     1      -1.192  -0.923   0.009  0.00  0.00    +0.061 C 
BRANCH  10  13
ATOM     11  C   UNL     1       1.293   1.755  -0.001  0.00  0.00    +0.143 A 
ATOM     12  C   UNL     1      -0.017   1.410   0.010  0.00  0.00    +0.071 A 
ATOM     13  C   UNL     1       0.002  -0.004   0.002  0.00  0.00    +0.084 A 
ATOM     14  N   UNL     1       1.256  -0.354  -0.012  0.00  0.00    -0.083 NA
ATOM     15  O   UNL     1       1.987   0.608  -0.014  0.00  0.00    -0.359 OA
BRANCH  11  17
ATOM     16  C   UNL     1       1.392   3.889   1.258  0.00  0.00    +0.019 C 
ATOM     17  C   UNL     1       1.857   3.152   0.001  0.00  0.00    +0.023 C 
ATOM     18  C   UNL     1       3.386   3.084  -0.014  0.00  0.00    +0.019 C 
ATOM     19  C   UNL     1       1.368   3.901  -1.241  0.00  0.00    +0.019 C 
ENDBRANCH  11  17
ENDBRANCH  10  13
ENDBRANCH   2  10
ENDBRANCH   1   6
BRANCH   1  20
ATOM     20  C   UNL     1      -4.834  -2.665  -1.539  0.00  0.00    +0.216 C 
ATOM     21  O   UNL     1      -4.746  -3.874  -1.579  0.00  0.00    -0.276 OA
ATOM     22  N   UNL     1      -6.039  -2.073  -1.660  0.00  0.00    -0.301 N 
ATOM     23  C   UNL     1      -6.162  -0.610  -1.608  0.00  0.00    +0.110 C 
ATOM     24  C   UNL     1      -6.914  -0.138  -2.862  0.00  0.00    +0.044 C 
ATOM     25  C   UNL     1      -8.250  -0.878  -2.958  0.00  0.00    +0.095 C 
ATOM     26  C   UNL     1      -7.994  -2.381  -3.088  0.00  0.00    +0.044 C 
ATOM     27  C   UNL     1      -7.254  -2.879  -1.842  0.00  0.00    +0.110 C 
BRANCH  25  28
ATOM     28  N   UNL     1      -8.986  -0.405  -4.133  0.00  0.00    -0.289 N 
ATOM     29  C   UNL     1     -10.241   0.198  -4.120  0.00  0.00    +0.070 A 
ATOM     30  C   UNL     1     -11.129   0.525  -3.107  0.00  0.00    +0.028 A 
ATOM     31  C   UNL     1     -12.330   1.135  -3.415  0.00  0.00    +0.002 A 
ATOM     32  C   UNL     1     -12.650   1.421  -4.731  0.00  0.00    +0.002 A 
ATOM     33  C   UNL     1     -11.771   1.100  -5.747  0.00  0.00    +0.028 A 
ATOM     34  C   UNL     1     -10.564   0.487  -5.448  0.00  0.00    +0.067 A 
ATOM     35  N   UNL     1      -9.495   0.050  -6.226  0.00  0.00    -0.306 N 
ATOM     36  H   UNL     1      -9.432   0.116  -7.192  0.00  0.00    +0.170 HD
ATOM     37  C   UNL     1      -8.562  -0.475  -5.409  0.00  0.00    +0.328 A 
ATOM     38  O   UNL     1      -7.499  -0.945  -5.770  0.00  0.00    -0.247 OA
ENDBRANCH  25  28
ENDBRANCH   1  20
TORSDOF 6
