REMARK  Name = ZINC04167159
REMARK  9 active torsions:
REMARK  status: ('A' for Active; 'I' for Inactive)
REMARK    1  A    between atoms: C_1  and  O_2
REMARK    2  A    between atoms: O_2  and  C_3
REMARK    3  A    between atoms: C_6  and  C_9
REMARK    4  A    between atoms: C_16  and  N_32
REMARK    5  A    between atoms: C_17  and  C_30
REMARK    6  A    between atoms: C_18  and  C_20
REMARK    7  A    between atoms: C_22  and  O_28
REMARK    8  A    between atoms: C_23  and  O_27
REMARK    9  A    between atoms: O_28  and  C_29
REMARK                            x       y       z     vdW  Elec       q    Type
REMARK                         _______ _______ _______ _____ _____    ______ ____
ROOT
ATOM      1  C   UNL     1      -5.052  -2.693   0.045  0.00  0.00    +0.100 A 
ATOM      2  C   UNL     1      -5.333  -3.834  -0.712  0.00  0.00    +0.054 A 
ATOM      3  C   UNL     1      -6.629  -4.191  -0.473  0.00  0.00    +0.223 A 
ATOM      4  N   UNL     1      -7.143  -3.304   0.404  0.00  0.00    -0.246 N 
ATOM      5  H   UNL     1      -8.047  -3.310   0.757  0.00  0.00    +0.192 HD
ATOM      6  N   UNL     1      -6.139  -2.376   0.721  0.00  0.00    -0.171 NA
ATOM      7  O   UNL     1      -7.213  -5.263  -1.063  0.00  0.00    -0.423 OA
ATOM      8  C   UNL     1      -6.576  -5.826  -2.109  0.00  0.00    +0.200 C 
ATOM      9  C   UNL     1      -5.291  -5.563  -2.437  0.00  0.00    +0.098 C 
ATOM     10  C   UNL     1      -4.436  -4.603  -1.647  0.00  0.00    +0.102 C 
ENDROOT
BRANCH  10  11
ATOM     11  C   UNL     1      -3.411  -5.371  -0.853  0.00  0.00    -0.029 A 
ATOM     12  C   UNL     1      -2.066  -5.084  -1.002  0.00  0.00    +0.054 A 
ATOM     13  C   UNL     1      -1.122  -5.788  -0.273  0.00  0.00    +0.163 A 
ATOM     14  C   UNL     1      -1.530  -6.784   0.610  0.00  0.00    +0.177 A 
ATOM     15  C   UNL     1      -2.879  -7.067   0.755  0.00  0.00    +0.086 A 
ATOM     16  C   UNL     1      -3.817  -6.356   0.028  0.00  0.00    +0.028 A 
ATOM     17 CL   UNL     1      -3.392  -8.309   1.855  0.00  0.00    -0.080 Cl
BRANCH  14  18
ATOM     18  O   UNL     1      -0.606  -7.479   1.327  0.00  0.00    -0.502 OA
ATOM     19  H   UNL     1      -0.394  -7.082   2.183  0.00  0.00    +0.292 HD
ENDBRANCH  14  18
BRANCH  13  20
ATOM     20  O   UNL     1       0.200  -5.508  -0.420  0.00  0.00    -0.491 OA
ATOM     21  C   UNL     1       0.539  -4.399  -1.256  0.00  0.00    +0.277 C 
ENDBRANCH  13  20
ENDBRANCH  10  11
BRANCH   1  25
ATOM     22  C   UNL     1      -1.338  -0.621   0.161  0.00  0.00    +0.120 A 
ATOM     23  C   UNL     1      -2.044  -0.845   1.336  0.00  0.00    +0.046 A 
ATOM     24  C   UNL     1      -3.248  -1.516   1.301  0.00  0.00    +0.013 A 
ATOM     25  C   UNL     1      -3.756  -1.970   0.085  0.00  0.00    +0.003 A 
ATOM     26  C   UNL     1      -3.046  -1.743  -1.092  0.00  0.00    +0.013 A 
ATOM     27  C   UNL     1      -1.845  -1.066  -1.052  0.00  0.00    +0.046 A 
BRANCH  22  29
ATOM     28  C   UNL     1       0.310   0.472   1.480  0.00  0.00    +0.277 C 
ATOM     29  O   UNL     1      -0.152   0.042   0.198  0.00  0.00    -0.495 OA
ENDBRANCH  22  29
ENDBRANCH   1  25
BRANCH   8  30
ATOM     30  N   UNL     1      -7.271  -6.718  -2.887  0.00  0.00    -0.328 N 
ATOM     31  H   UNL     1      -8.195  -6.927  -2.677  0.00  0.00    +0.145 HD
ATOM     32  H   UNL     1      -6.839  -7.139  -3.646  0.00  0.00    +0.145 HD
ENDBRANCH   8  30
BRANCH   9  33
ATOM     33  C   UNL     1      -4.721  -6.220  -3.574  0.00  0.00    +0.101 C 
ATOM     34  N   UNL     1      -4.268  -6.742  -4.476  0.00  0.00    -0.191 NA
ENDBRANCH   9  33
TORSDOF 7
