REMARK  Name = ZINC39293341
REMARK  18 active torsions:
REMARK  status: ('A' for Active; 'I' for Inactive)
REMARK    1  A    between atoms: C_1  and  C_2
REMARK    2  A    between atoms: C_2  and  C_3
REMARK    3  A    between atoms: C_2  and  C_4
REMARK    4  A    between atoms: C_2  and  O_5
REMARK    5  A    between atoms: O_5  and  C_6
REMARK    6  A    between atoms: C_6  and  C_8
REMARK    7  A    between atoms: C_8  and  C_9
REMARK    8  A    between atoms: C_9  and  C_11
REMARK    9  A    between atoms: C_9  and  C_34
REMARK   10  A    between atoms: C_11  and  N_12
REMARK   11  A    between atoms: C_18  and  O_33
REMARK   12  A    between atoms: C_29  and  O_30
REMARK   13  A    between atoms: O_30  and  C_31
REMARK   14  A    between atoms: C_34  and  O_36
REMARK   15  A    between atoms: O_36  and  C_37
REMARK   16  A    between atoms: C_37  and  C_38
REMARK   17  A    between atoms: C_37  and  C_39
REMARK   18  A    between atoms: C_37  and  C_40
REMARK                            x       y       z     vdW  Elec       q    Type
REMARK                         _______ _______ _______ _____ _____    ______ ____
ROOT
ATOM      1  N   UNL     1       5.532   0.750  -4.208  0.00  0.00    +0.383 N 
ATOM      2  C   UNL     1       5.543   1.206  -5.568  0.00  0.00    -0.077 C 
ATOM      3  C   UNL     1       6.401   2.410  -5.822  0.00  0.00    +0.001 C 
ATOM      4  C   UNL     1       7.869   2.057  -5.954  0.00  0.00    +0.053 C 
ATOM      5  C   UNL     1       8.096   1.062  -7.044  0.00  0.00    -0.014 C 
ATOM      6  C   UNL     1       8.812   1.262  -8.099  0.00  0.00    +0.001 C 
ATOM      7  C   UNL     1       9.538   2.538  -8.381  0.00  0.00    +0.141 C 
ATOM      8  C   UNL     1       8.992   3.689  -7.562  0.00  0.00    +0.081 C 
ATOM      9  C   UNL     1       8.698   3.331  -6.131  0.00  0.00    +0.191 C 
ATOM     10  O   UNL     1       9.891   3.082  -5.377  0.00  0.00    -0.484 OA
ATOM     11  C   UNL     1       9.618   2.170  -4.417  0.00  0.00    +0.167 A 
ATOM     12  C   UNL     1       8.412   1.496  -4.653  0.00  0.00    +0.013 A 
ATOM     13  C   UNL     1       7.948   0.513  -3.833  0.00  0.00    -0.056 A 
ATOM     14  C   UNL     1       8.771   0.160  -2.753  0.00  0.00    +0.006 A 
ATOM     15  C   UNL     1       9.953   0.813  -2.495  0.00  0.00    +0.049 A 
ATOM     16  C   UNL     1      10.409   1.844  -3.308  0.00  0.00    +0.162 A 
ATOM     17  C   UNL     1       6.608  -0.160  -3.870  0.00  0.00    -0.043 C 
ATOM     18  H   UNL     1       5.592   1.555  -3.603  0.00  0.00    -0.081 HD
ENDROOT
BRANCH  16  19
ATOM     19  O   UNL     1      11.567   2.504  -3.039  0.00  0.00    -0.491 OA
ATOM     20  C   UNL     1      12.296   2.091  -1.881  0.00  0.00    +0.277 C 
ENDBRANCH  16  19
BRANCH   7  21
ATOM     21  O   UNL     1      10.923   2.364  -8.072  0.00  0.00    -0.388 OA
ATOM     22  H   UNL     1      11.355   1.666  -8.583  0.00  0.00    +0.210 HD
ENDBRANCH   7  21
BRANCH   1  23
ATOM     23  C   UNL     1       4.253   0.073  -3.954  0.00  0.00    -0.063 C 
BRANCH  23  24
ATOM     24  C   UNL     1       4.095  -0.172  -2.451  0.00  0.00    +0.092 C 
BRANCH  24  25
ATOM     25  C   UNL     1       2.860  -0.999  -2.204  0.00  0.00    +0.309 C 
ATOM     26  O   UNL     1       1.778  -0.464  -2.139  0.00  0.00    -0.251 OA
BRANCH  25  27
ATOM     27  O   UNL     1       2.961  -2.329  -2.057  0.00  0.00    -0.459 OA
BRANCH  27  28
ATOM     28  C   UNL     1       1.762  -3.040  -1.745  0.00  0.00    +0.105 C 
ATOM     29  C   UNL     1       0.778  -2.918  -2.911  0.00  0.00    +0.055 C 
ATOM     30  C   UNL     1       2.090  -4.515  -1.508  0.00  0.00    +0.055 C 
ATOM     31  C   UNL     1       1.131  -2.448  -0.483  0.00  0.00    +0.055 C 
ENDBRANCH  27  28
ENDBRANCH  25  27
ENDBRANCH  24  25
BRANCH  24  32
ATOM     32  C   UNL     1       3.965   1.169  -1.727  0.00  0.00    +0.133 C 
BRANCH  32  33
ATOM     33  C   UNL     1       3.933   0.935  -0.239  0.00  0.00    +0.308 C 
ATOM     34  O   UNL     1       4.007  -0.189   0.198  0.00  0.00    -0.251 OA
BRANCH  33  35
ATOM     35  O   UNL     1       3.822   1.976   0.602  0.00  0.00    -0.459 OA
BRANCH  35  37
ATOM     36  C   UNL     1       5.094   0.970   2.394  0.00  0.00    +0.055 C 
ATOM     37  C   UNL     1       3.798   1.680   2.000  0.00  0.00    +0.105 C 
ATOM     38  C   UNL     1       2.605   0.773   2.309  0.00  0.00    +0.055 C 
ATOM     39  C   UNL     1       3.668   2.982   2.794  0.00  0.00    +0.055 C 
ENDBRANCH  35  37
ENDBRANCH  33  35
ENDBRANCH  32  33
ENDBRANCH  24  32
ENDBRANCH  23  24
ENDBRANCH   1  23
TORSDOF 11
