REMARK  Name = ZINC00675813
REMARK  4 active torsions:
REMARK  status: ('A' for Active; 'I' for Inactive)
REMARK    1  A    between atoms: C_1  and  C_2
REMARK    2  A    between atoms: C_3  and  C_16
REMARK    3  A    between atoms: C_4  and  C_10
REMARK    4  A    between atoms: N_18  and  C_19
REMARK                            x       y       z     vdW  Elec       q    Type
REMARK                         _______ _______ _______ _____ _____    ______ ____
ROOT
ATOM      1  C   UNL     1       0.920   5.149  -1.520  0.00  0.00    +0.061 C 
ATOM      2  C   UNL     1       0.656   3.855  -0.794  0.00  0.00    +0.019 C 
ATOM      3  C   UNL     1      -0.539   3.659  -0.200  0.00  0.00    +0.056 C 
ATOM      4  C   UNL     1      -0.764   2.342   0.515  0.00  0.00    +0.142 C 
ATOM      5  N   UNL     1       0.351   1.381   0.511  0.00  0.00    -0.288 N 
ATOM      6  C   UNL     1       1.488   1.720  -0.129  0.00  0.00    +0.304 C 
ATOM      7  O   UNL     1       2.413   0.932  -0.143  0.00  0.00    -0.252 OA
ATOM      8  N   UNL     1       1.631   2.898  -0.749  0.00  0.00    -0.273 N 
ATOM      9  H   UNL     1       0.269   0.522   0.954  0.00  0.00    +0.151 HD
ATOM     10  H   UNL     1       2.475   3.083  -1.192  0.00  0.00    +0.156 HD
ENDROOT
BRANCH   4  11
ATOM     11  C   UNL     1      -1.960   1.669  -0.108  0.00  0.00    -0.023 A 
ATOM     12  C   UNL     1      -1.811   0.931  -1.268  0.00  0.00    +0.006 A 
ATOM     13  C   UNL     1      -2.907   0.311  -1.838  0.00  0.00    +0.000 A 
ATOM     14  C   UNL     1      -4.153   0.434  -1.252  0.00  0.00    +0.000 A 
ATOM     15  C   UNL     1      -4.303   1.176  -0.096  0.00  0.00    +0.000 A 
ATOM     16  C   UNL     1      -3.206   1.794   0.476  0.00  0.00    +0.006 A 
ENDBRANCH   4  11
BRANCH   3  17
ATOM     17  C   UNL     1      -1.551   4.650  -0.245  0.00  0.00    +0.248 C 
ATOM     18  O   UNL     1      -1.790   5.321   0.742  0.00  0.00    -0.270 OA
ATOM     19  N   UNL     1      -2.248   4.849  -1.382  0.00  0.00    -0.282 N 
ATOM     20  H   UNL     1      -2.110   4.265  -2.144  0.00  0.00    +0.155 HD
BRANCH  19  21
ATOM     21  C   UNL     1      -3.170   5.898  -1.462  0.00  0.00    +0.034 A 
ATOM     22  C   UNL     1      -3.922   6.249  -0.349  0.00  0.00    +0.024 A 
ATOM     23  C   UNL     1      -4.827   7.290  -0.429  0.00  0.00    +0.017 A 
ATOM     24  C   UNL     1      -4.993   7.973  -1.620  0.00  0.00    +0.018 A 
ATOM     25  C   UNL     1      -4.249   7.621  -2.733  0.00  0.00    +0.017 A 
ATOM     26  C   UNL     1      -3.338   6.586  -2.656  0.00  0.00    +0.024 A 
ATOM     27 BR   UNL     1      -6.239   9.392  -1.729  0.00  0.00    -0.050 Br
ENDBRANCH  19  21
ENDBRANCH   3  17
TORSDOF 3
