REMARK  Name = ZINC13539150
REMARK  9 active torsions:
REMARK  status: ('A' for Active; 'I' for Inactive)
REMARK    1  A    between atoms: C_1  and  C_2
REMARK    2  A    between atoms: C_5  and  N_25
REMARK    3  A    between atoms: N_8  and  C_9
REMARK    4  A    between atoms: C_9  and  C_10
REMARK    5  A    between atoms: N_12  and  C_13
REMARK    6  A    between atoms: C_13  and  C_14
REMARK    7  A    between atoms: N_25  and  S_26
REMARK    8  A    between atoms: S_26  and  C_29
REMARK    9  A    between atoms: C_29  and  C_30
REMARK                            x       y       z     vdW  Elec       q    Type
REMARK                         _______ _______ _______ _____ _____    ______ ____
ROOT
ATOM      1  C   UNL     1       4.517   7.757  -0.003  0.00  0.00    +0.063 C 
ATOM      2  C   UNL     1       5.836   7.424  -0.652  0.00  0.00    +0.020 A 
ATOM      3  C   UNL     1       6.877   8.278  -0.526  0.00  0.00    +0.023 A 
ATOM      4  C   UNL     1       8.106   7.980  -1.131  0.00  0.00    +0.031 A 
ATOM      5  C   UNL     1       8.238   6.818  -1.841  0.00  0.00    +0.112 A 
ATOM      6  C   UNL     1       7.131   5.947  -1.947  0.00  0.00    +0.274 A 
ATOM      7  O   UNL     1       7.231   4.906  -2.577  0.00  0.00    -0.266 OA
ATOM      8  N   UNL     1       5.965   6.265  -1.353  0.00  0.00    -0.302 N 
ENDROOT
BRANCH   5   9
ATOM      9  N   UNL     1       9.454   6.496  -2.455  0.00  0.00    -0.215 N 
ATOM     10  H   UNL     1       9.541   5.671  -2.957  0.00  0.00    +0.173 HD
BRANCH   9  11
ATOM     11  S   UNL     1      10.745   7.525  -2.325  0.00  0.00    +0.047 S 
ATOM     12  O   UNL     1      11.781   6.905  -3.075  0.00  0.00    -0.155 OA
ATOM     13  O   UNL     1      10.236   8.796  -2.705  0.00  0.00    -0.155 OA
BRANCH  11  14
ATOM     14  C   UNL     1      11.166   7.524  -0.560  0.00  0.00    +0.223 C 
BRANCH  14  15
ATOM     15  C   UNL     1      12.341   8.437  -0.323  0.00  0.00    -0.025 A 
ATOM     16  C   UNL     1      13.628   7.938  -0.388  0.00  0.00    +0.005 A 
ATOM     17  C   UNL     1      14.706   8.777  -0.175  0.00  0.00    +0.000 A 
ATOM     18  C   UNL     1      14.496  10.113   0.113  0.00  0.00    +0.000 A 
ATOM     19  C   UNL     1      13.209  10.611   0.183  0.00  0.00    +0.000 A 
ATOM     20  C   UNL     1      12.131   9.773  -0.035  0.00  0.00    +0.005 A 
ENDBRANCH  14  15
ENDBRANCH  11  14
ENDBRANCH   9  11
ENDBRANCH   5   9
BRANCH   8  21
ATOM     21  C   UNL     1       4.822   5.357  -1.468  0.00  0.00    +0.220 C 
BRANCH  21  22
ATOM     22  C   UNL     1       4.850   4.368  -0.330  0.00  0.00    +0.233 C 
ATOM     23  O   UNL     1       5.737   4.418   0.495  0.00  0.00    -0.274 OA
ATOM     24  N   UNL     1       3.888   3.429  -0.230  0.00  0.00    -0.314 N 
ATOM     25  H   UNL     1       3.179   3.389  -0.890  0.00  0.00    +0.149 HD
BRANCH  24  26
ATOM     26  C   UNL     1       3.915   2.468   0.875  0.00  0.00    +0.108 C 
BRANCH  26  27
ATOM     27  C   UNL     1       2.721   1.519   0.755  0.00  0.00    +0.011 C 
ATOM     28  C   UNL     1       2.814   0.438   1.835  0.00  0.00    +0.011 C 
ATOM     29  C   UNL     1       1.772  -0.652   1.579  0.00  0.00    +0.056 C 
ATOM     30  C   UNL     1       0.404   0.003   1.428  0.00  0.00    +0.054 A 
ATOM     31  C   UNL     1       0.307   1.328   1.150  0.00  0.00    +0.015 A 
ATOM     32  S   UNL     1      -1.446   1.583   1.073  0.00  0.00    -0.057 S 
ATOM     33  C   UNL     1      -1.914  -0.055   1.418  0.00  0.00    +0.156 A 
ATOM     34  N   UNL     1      -0.748  -0.653   1.554  0.00  0.00    -0.230 NA
ATOM     35  N   UNL     1      -3.187  -0.595   1.519  0.00  0.00    -0.338 N 
ATOM     36  C   UNL     1       1.416   2.305   0.956  0.00  0.00    +0.049 C 
ATOM     37  H   UNL     1      -3.300  -1.538   1.714  0.00  0.00    +0.144 HD
ATOM     38  H   UNL     1      -3.965  -0.029   1.393  0.00  0.00    +0.144 HD
ENDBRANCH  26  27
ENDBRANCH  24  26
ENDBRANCH  21  22
ENDBRANCH   8  21
TORSDOF 8
