REMARK  Name = ZINC39494267
REMARK  12 active torsions:
REMARK  status: ('A' for Active; 'I' for Inactive)
REMARK    1  A    between atoms: C_1  and  C_2
REMARK    2  A    between atoms: C_2  and  C_3
REMARK    3  A    between atoms: C_2  and  S_4
REMARK    4  A    between atoms: S_4  and  C_7
REMARK    5  A    between atoms: C_7  and  C_9
REMARK    6  A    between atoms: C_9  and  C_11
REMARK    7  A    between atoms: C_9  and  C_18
REMARK    8  A    between atoms: C_16  and  O_17
REMARK    9  A    between atoms: C_18  and  C_20
REMARK   10  A    between atoms: C_18  and  N_26
REMARK   11  A    between atoms: C_27  and  C_29
REMARK   12  A    between atoms: C_34  and  O_35
REMARK                            x       y       z     vdW  Elec       q    Type
REMARK                         _______ _______ _______ _____ _____    ______ ____
ROOT
ATOM      1  C   UNL     1      -1.959   2.289  -1.537  0.00  0.00    +0.120 C 
ENDROOT
BRANCH   1   2
ATOM      2  C   UNL     1      -2.575   3.664  -1.509  0.00  0.00    -0.026 A 
ATOM      3  C   UNL     1      -3.131   4.149  -0.339  0.00  0.00    +0.005 A 
ATOM      4  C   UNL     1      -3.696   5.410  -0.313  0.00  0.00    +0.000 A 
ATOM      5  C   UNL     1      -3.706   6.187  -1.457  0.00  0.00    +0.000 A 
ATOM      6  C   UNL     1      -3.150   5.703  -2.626  0.00  0.00    +0.000 A 
ATOM      7  C   UNL     1      -2.581   4.443  -2.651  0.00  0.00    +0.005 A 
ENDBRANCH   1   2
BRANCH   1   8
ATOM      8  N   UNL     1      -1.221   2.059  -0.292  0.00  0.00    -0.303 N 
ATOM      9  C   UNL     1       0.030   2.541  -0.152  0.00  0.00    +0.248 C 
ATOM     10  O   UNL     1       0.513   3.242  -1.020  0.00  0.00    -0.270 OA
ATOM     11  H   UNL     1      -1.633   1.560   0.430  0.00  0.00    +0.150 HD
BRANCH   9  12
ATOM     12  C   UNL     1       0.813   2.218   1.056  0.00  0.00    +0.078 A 
ATOM     13  C   UNL     1       0.309   1.322   2.001  0.00  0.00    +0.017 A 
ATOM     14  C   UNL     1       1.046   1.024   3.127  0.00  0.00    +0.001 A 
ATOM     15  C   UNL     1       2.286   1.610   3.326  0.00  0.00    +0.004 A 
ATOM     16  C   UNL     1       2.796   2.497   2.400  0.00  0.00    +0.046 A 
ATOM     17  C   UNL     1       2.070   2.805   1.258  0.00  0.00    +0.129 A 
BRANCH  17  18
ATOM     18  O   UNL     1       2.572   3.673   0.345  0.00  0.00    -0.506 OA
ATOM     19  H   UNL     1       2.335   4.596   0.508  0.00  0.00    +0.292 HD
ENDBRANCH  17  18
ENDBRANCH   9  12
ENDBRANCH   1   8
BRANCH   1  20
ATOM     20  C   UNL     1      -3.062   1.239  -1.677  0.00  0.00    +0.137 C 
BRANCH  20  21
ATOM     21  C   UNL     1      -3.757   1.414  -3.003  0.00  0.00    +0.008 A 
ATOM     22  C   UNL     1      -3.041   1.298  -4.179  0.00  0.00    +0.008 A 
ATOM     23  C   UNL     1      -3.678   1.459  -5.396  0.00  0.00    +0.001 A 
ATOM     24  C   UNL     1      -5.032   1.736  -5.439  0.00  0.00    +0.004 A 
ATOM     25  C   UNL     1      -5.752   1.852  -4.266  0.00  0.00    +0.046 A 
ATOM     26  C   UNL     1      -5.116   1.685  -3.044  0.00  0.00    +0.121 A 
BRANCH  26  27
ATOM     27  O   UNL     1      -5.824   1.793  -1.889  0.00  0.00    -0.506 OA
ATOM     28  H   UNL     1      -5.856   2.691  -1.530  0.00  0.00    +0.292 HD
ENDBRANCH  26  27
ENDBRANCH  20  21
BRANCH  20  29
ATOM     29  C   UNL     1      -2.455  -0.139  -1.606  0.00  0.00    +0.277 C 
ATOM     30  O   UNL     1      -1.300  -0.306  -1.914  0.00  0.00    -0.271 OA
BRANCH  29  31
ATOM     31  S   UNL     1      -3.432  -1.506  -1.075  0.00  0.00    +0.033 S 
ATOM     32  O   UNL     1      -2.778  -2.649  -1.607  0.00  0.00    -0.166 OA
ATOM     33  O   UNL     1      -4.758  -1.179  -1.470  0.00  0.00    -0.166 OA
BRANCH  31  35
ATOM     34  C   UNL     1      -3.905  -0.203   1.284  0.00  0.00    +0.032 C 
ATOM     35  C   UNL     1      -3.300  -1.497   0.735  0.00  0.00    +0.133 C 
ATOM     36  C   UNL     1      -4.058  -2.696   1.307  0.00  0.00    +0.032 C 
ENDBRANCH  31  35
ENDBRANCH  29  31
ENDBRANCH  20  29
ENDBRANCH   1  20
TORSDOF 10
