REMARK  Name = ZINC01431687
REMARK  4 active torsions:
REMARK  status: ('A' for Active; 'I' for Inactive)
REMARK    1  A    between atoms: C_4  and  N_7
REMARK    2  A    between atoms: C_18  and  C_26
REMARK    3  A    between atoms: C_20  and  C_24
REMARK    4  A    between atoms: C_21  and  N_23
REMARK                            x       y       z     vdW  Elec       q    Type
REMARK                         _______ _______ _______ _____ _____    ______ ____
ROOT
ATOM      1  N   UNL     1       2.356   3.889  -0.001  0.00  0.00    -0.276 N 
ATOM      2  C   UNL     1       2.323   5.266  -0.104  0.00  0.00    +0.061 A 
ATOM      3  C   UNL     1       1.115   5.950  -0.189  0.00  0.00    +0.027 A 
ATOM      4  C   UNL     1       1.114   7.325  -0.285  0.00  0.00    +0.002 A 
ATOM      5  C   UNL     1       2.307   8.035  -0.295  0.00  0.00    +0.001 A 
ATOM      6  C   UNL     1       3.504   7.382  -0.208  0.00  0.00    +0.013 A 
ATOM      7  C   UNL     1       3.528   5.989  -0.108  0.00  0.00    +0.042 A 
ATOM      8  C   UNL     1       4.798   5.255  -0.010  0.00  0.00    +0.148 A 
ATOM      9  C   UNL     1       4.759   3.896   0.085  0.00  0.00    +0.073 A 
ATOM     10  C   UNL     1       3.522   3.228   0.087  0.00  0.00    +0.264 A 
ATOM     11  O   UNL     1       3.507   2.011   0.171  0.00  0.00    -0.267 OA
ATOM     12  C   UNL     1       6.032   3.100   0.188  0.00  0.00    +0.103 C 
ATOM     13  C   UNL     1       7.206   3.938  -0.236  0.00  0.00    +0.098 C 
ATOM     14  C   UNL     1       7.110   5.287  -0.313  0.00  0.00    +0.199 C 
ATOM     15  O   UNL     1       5.965   5.928  -0.015  0.00  0.00    -0.440 OA
ENDROOT
BRANCH  12  16
ATOM     16  C   UNL     1       6.227   2.653   1.614  0.00  0.00    -0.031 A 
ATOM     17  C   UNL     1       6.340   3.592   2.622  0.00  0.00    +0.008 A 
ATOM     18  C   UNL     1       6.514   3.188   3.932  0.00  0.00    +0.050 A 
ATOM     19  C   UNL     1       6.586   1.838   4.237  0.00  0.00    +0.166 A 
ATOM     20  C   UNL     1       6.477   0.891   3.221  0.00  0.00    +0.167 A 
ATOM     21  C   UNL     1       6.298   1.305   1.911  0.00  0.00    +0.054 A 
ATOM     22  O   UNL     1       6.579  -0.353   3.772  0.00  0.00    -0.453 OA
ATOM     23  C   UNL     1       6.341  -0.171   5.180  0.00  0.00    +0.466 C 
ATOM     24  O   UNL     1       6.756   1.186   5.424  0.00  0.00    -0.453 OA
ENDBRANCH  12  16
BRANCH   1  28
ATOM     25  C   UNL     1      -1.217   1.745   0.024  0.00  0.00    +0.000 A 
ATOM     26  C   UNL     1      -0.670   2.188   1.214  0.00  0.00    +0.002 A 
ATOM     27  C   UNL     1       0.515   2.897   1.210  0.00  0.00    +0.026 A 
ATOM     28  C   UNL     1       1.155   3.171   0.008  0.00  0.00    +0.050 A 
ATOM     29  C   UNL     1       0.600   2.729  -1.187  0.00  0.00    +0.026 A 
ATOM     30  C   UNL     1      -0.585   2.019  -1.175  0.00  0.00    +0.002 A 
ENDBRANCH   1  28
BRANCH  14  31
ATOM     31  N   UNL     1       8.205   6.016  -0.704  0.00  0.00    -0.328 N 
ATOM     32  H   UNL     1       8.148   6.982  -0.763  0.00  0.00    +0.145 HD
ATOM     33  H   UNL     1       9.036   5.564  -0.921  0.00  0.00    +0.145 HD
ENDBRANCH  14  31
BRANCH  13  34
ATOM     34  C   UNL     1       8.445   3.300  -0.564  0.00  0.00    +0.101 C 
ATOM     35  N   UNL     1       9.428   2.794  -0.824  0.00  0.00    -0.191 NA
ENDBRANCH  13  34
TORSDOF 4
