REMARK  Name = ZINC63216471
REMARK  6 active torsions:
REMARK  status: ('A' for Active; 'I' for Inactive)
REMARK    1  A    between atoms: C_1  and  C_2
REMARK    2  A    between atoms: C_5  and  C_23
REMARK    3  A    between atoms: N_8  and  S_10
REMARK    4  A    between atoms: S_10  and  N_13
REMARK    5  A    between atoms: N_13  and  C_14
REMARK    6  A    between atoms: CA_15  and  C_20
REMARK                            x       y       z     vdW  Elec       q    Type
REMARK                         _______ _______ _______ _____ _____    ______ ____
ROOT
ATOM      1  S   UNL     1       1.999  -2.914   1.419  0.00  0.00    +0.133 S 
ATOM      2  O   UNL     1       2.998  -2.098   2.015  0.00  0.00    -0.136 OA
ATOM      3  O   UNL     1       1.587  -4.150   1.986  0.00  0.00    -0.136 OA
ENDROOT
BRANCH   1   9
ATOM      4  C   UNL     1      -0.019   1.526   0.010  0.00  0.00    +0.009 C 
ATOM      5  C   UNL     1       0.002  -0.004   0.002  0.00  0.00    +0.002 C 
ATOM      6  C   UNL     1      -1.433  -0.534   0.015  0.00  0.00    +0.009 C 
ATOM      7  C   UNL     1      -1.414  -2.064  -0.027  0.00  0.00    +0.002 C 
ATOM      8  C   UNL     1      -0.692  -2.596   1.215  0.00  0.00    +0.114 C 
ATOM      9  N   UNL     1       0.639  -1.977   1.288  0.00  0.00    -0.162 NA
ATOM     10  C   UNL     1       0.742  -0.512   1.244  0.00  0.00    +0.114 C 
ATOM     11  C   UNL     1      -0.680  -2.532  -1.285  0.00  0.00    +0.009 C 
ENDBRANCH   1   9
BRANCH   1  12
ATOM     12  N   UNL     1       2.514  -3.247  -0.119  0.00  0.00    -0.065 NA
BRANCH  12  13
ATOM     13  C   UNL     1       3.642  -4.019  -0.317  0.00  0.00    +0.196 A 
ATOM     14  CA  UNL     1       4.086  -4.299  -1.621  0.00  0.00    +0.195 A 
ATOM     15  N   UNL     1       5.174  -5.045  -1.801  0.00  0.00    -0.244 NA
ATOM     16  C   UNL     1       5.828  -5.516  -0.760  0.00  0.00    +0.131 A 
ATOM     17  C   UNL     1       5.389  -5.240   0.529  0.00  0.00    +0.132 A 
ATOM     18  N   UNL     1       4.316  -4.497   0.723  0.00  0.00    -0.234 NA
BRANCH  14  19
ATOM     19  C   UNL     1       3.350  -3.771  -2.784  0.00  0.00    +0.408 C 
ATOM     20  O   UNL     1       2.350  -3.086  -2.616  0.00  0.00    -0.239 OA
ATOM     21  OXT UNL     1       3.739  -4.016  -3.917  0.00  0.00    -0.239 OA
ENDBRANCH  14  19
ENDBRANCH  12  13
ENDBRANCH   1  12
TORSDOF 4
