REMARK  Name = ZINC16739657
REMARK  6 active torsions:
REMARK  status: ('A' for Active; 'I' for Inactive)
REMARK    1  A    between atoms: C_1  and  C_2
REMARK    2  A    between atoms: C_5  and  N_8
REMARK    3  A    between atoms: C_11  and  C_21
REMARK    4  A    between atoms: C_15  and  C_16
REMARK    5  A    between atoms: C_15  and  C_18
REMARK    6  A    between atoms: C_21  and  C_22
REMARK                            x       y       z     vdW  Elec       q    Type
REMARK                         _______ _______ _______ _____ _____    ______ ____
ROOT
ATOM      1  N   UNL     1       1.193   2.241  -0.539  0.00  0.00    -0.232 N 
ATOM      2  C   UNL     1       0.157   1.622  -1.079  0.00  0.00    +0.238 C 
ATOM      3  O   UNL     1       0.283   0.628  -1.762  0.00  0.00    -0.274 OA
ATOM      4  C   UNL     1      -1.203   2.239  -0.793  0.00  0.00    +0.143 C 
ATOM      5  S   UNL     1      -0.704   3.658   0.260  0.00  0.00    -0.095 S 
ATOM      6  C   UNL     1       1.059   3.367   0.236  0.00  0.00    +0.098 C 
ATOM      7  C   UNL     1       2.063   4.109   0.859  0.00  0.00    +0.141 C 
ENDROOT
BRANCH   1  12
ATOM      8  C   UNL     1       6.394   0.167  -1.464  0.00  0.00    +0.044 C 
ATOM      9  C   UNL     1       5.013   0.718  -1.219  0.00  0.00    -0.050 A 
ATOM     10  C   UNL     1       4.231   0.193  -0.206  0.00  0.00    +0.005 A 
ATOM     11  C   UNL     1       2.965   0.696   0.022  0.00  0.00    +0.024 A 
ATOM     12  C   UNL     1       2.477   1.729  -0.768  0.00  0.00    +0.042 A 
ATOM     13  C   UNL     1       3.263   2.249  -1.788  0.00  0.00    +0.024 A 
ATOM     14  C   UNL     1       4.530   1.746  -2.007  0.00  0.00    +0.005 A 
ENDBRANCH   1  12
BRANCH   7  15
ATOM     15  C   UNL     1       3.447   3.636   0.829  0.00  0.00    +0.254 C 
ATOM     16  O   UNL     1       4.234   4.106   0.029  0.00  0.00    -0.270 OA
ATOM     17  N   UNL     1       3.850   2.679   1.688  0.00  0.00    -0.325 N 
ATOM     18  H   UNL     1       3.223   2.304   2.326  0.00  0.00    +0.145 HD
ATOM     19  H   UNL     1       4.768   2.365   1.669  0.00  0.00    +0.145 HD
ENDBRANCH   7  15
BRANCH   7  20
ATOM     20  C   UNL     1       1.739   5.333   1.526  0.00  0.00    +0.107 C 
ATOM     21  N   UNL     1       1.482   6.305   2.056  0.00  0.00    -0.191 NA
ENDBRANCH   7  20
BRANCH   4  22
ATOM     22  C   UNL     1      -1.879   2.712  -2.081  0.00  0.00    +0.059 C 
BRANCH  22  23
ATOM     23  C   UNL     1      -3.269   3.203  -1.768  0.00  0.00    -0.044 A 
ATOM     24  C   UNL     1      -4.337   2.326  -1.810  0.00  0.00    +0.005 A 
ATOM     25  C   UNL     1      -5.612   2.773  -1.518  0.00  0.00    +0.022 A 
ATOM     26  C   UNL     1      -5.821   4.102  -1.194  0.00  0.00    +0.059 A 
ATOM     27  C   UNL     1      -4.753   4.981  -1.157  0.00  0.00    +0.060 A 
ATOM     28  C   UNL     1      -3.477   4.530  -1.445  0.00  0.00    +0.025 A 
ATOM     29 CL   UNL     1      -5.014   6.648  -0.750  0.00  0.00    -0.082 Cl
ATOM     30 CL   UNL     1      -7.423   4.665  -0.833  0.00  0.00    -0.082 Cl
ENDBRANCH  22  23
ENDBRANCH   4  22
TORSDOF 5
