REMARK  Name = ZINC64143472
REMARK  7 active torsions:
REMARK  status: ('A' for Active; 'I' for Inactive)
REMARK    1  A    between atoms: C_4  and  C_7
REMARK    2  A    between atoms: C_7  and  C_9
REMARK    3  A    between atoms: C_7  and  C_14
REMARK    4  A    between atoms: C_23  and  C_25
REMARK    5  A    between atoms: N_27  and  C_28
REMARK    6  A    between atoms: C_28  and  C_29
REMARK    7  A    between atoms: C_29  and  C_30
REMARK                            x       y       z     vdW  Elec       q    Type
REMARK                         _______ _______ _______ _____ _____    ______ ____
ROOT
ATOM      1  C   UNL     1       3.721  -1.288  -1.280  0.00  0.00    +0.223 C 
ATOM      2  O   UNL     1       2.828  -0.991  -2.045  0.00  0.00    -0.275 OA
ATOM      3  N   UNL     1       4.647  -2.196  -1.646  0.00  0.00    -0.301 N 
ATOM      4  C   UNL     1       5.662  -2.649  -0.686  0.00  0.00    +0.108 C 
ATOM      5  C   UNL     1       7.053  -2.379  -1.274  0.00  0.00    +0.026 C 
ATOM      6  C   UNL     1       7.114  -2.968  -2.687  0.00  0.00    -0.015 C 
ATOM      7  C   UNL     1       6.024  -2.476  -3.643  0.00  0.00    +0.026 C 
ATOM      8  C   UNL     1       4.650  -2.748  -3.007  0.00  0.00    +0.108 C 
ATOM      9  C   UNL     1       7.585  -4.415  -2.832  0.00  0.00    +0.021 C 
ATOM     10  C   UNL     1       8.493  -3.265  -3.274  0.00  0.00    +0.082 C 
ENDROOT
BRANCH  10  11
ATOM     11  C   UNL     1       8.679  -3.054  -4.754  0.00  0.00    +0.217 C 
ATOM     12  O   UNL     1       8.576  -3.991  -5.518  0.00  0.00    -0.275 OA
ATOM     13  N   UNL     1       8.961  -1.825  -5.230  0.00  0.00    -0.315 N 
ATOM     14  H   UNL     1       9.043  -1.076  -4.619  0.00  0.00    +0.149 HD
BRANCH  13  15
ATOM     15  C   UNL     1       9.142  -1.620  -6.669  0.00  0.00    +0.108 C 
BRANCH  15  16
ATOM     16  C   UNL     1       9.449  -0.146  -6.940  0.00  0.00    +0.052 C 
BRANCH  16  17
ATOM     17  C   UNL     1       9.635   0.065  -8.420  0.00  0.00    -0.040 C 
ATOM     18  C   UNL     1       8.700   0.476  -9.307  0.00  0.00    -0.001 A 
ATOM     19  C   UNL     1       7.284   0.836  -9.164  0.00  0.00    +0.010 A 
ATOM     20  C   UNL     1       6.591   1.218 -10.260  0.00  0.00    +0.001 A 
ATOM     21  C   UNL     1       7.188   1.279 -11.526  0.00  0.00    +0.002 A 
ATOM     22  C   UNL     1       8.484   0.964 -11.737  0.00  0.00    +0.026 A 
ATOM     23  C   UNL     1       9.308   0.549 -10.655  0.00  0.00    +0.043 A 
ATOM     24  N   UNL     1      10.570   0.197 -10.603  0.00  0.00    -0.380 N 
ATOM     25  C   UNL     1      10.907  -0.134  -9.214  0.00  0.00    +0.144 C 
ATOM     26  H   UNL     1      11.179   0.164 -11.357  0.00  0.00    +0.160 HD
ENDBRANCH  16  17
ENDBRANCH  15  16
ENDBRANCH  13  15
ENDBRANCH  10  11
BRANCH   1  27
ATOM     27  C   UNL     1       3.794  -0.643   0.080  0.00  0.00    +0.108 C 
BRANCH  27  31
ATOM     28  C   UNL     1       6.511   2.651  -0.055  0.00  0.00    +0.000 A 
ATOM     29  C   UNL     1       6.747   1.595   0.805  0.00  0.00    +0.000 A 
ATOM     30  C   UNL     1       5.868   0.529   0.849  0.00  0.00    +0.004 A 
ATOM     31  C   UNL     1       4.752   0.520   0.033  0.00  0.00    -0.035 A 
ATOM     32  C   UNL     1       4.516   1.576  -0.827  0.00  0.00    +0.004 A 
ATOM     33  C   UNL     1       5.396   2.641  -0.872  0.00  0.00    +0.000 A 
ENDBRANCH  27  31
BRANCH  27  34
ATOM     34  C   UNL     1       2.405  -0.143   0.482  0.00  0.00    +0.005 C 
ATOM     35  C   UNL     1       2.475   0.566   1.851  0.00  0.00    +0.004 C 
ATOM     36  C   UNL     1       1.152   0.169   2.552  0.00  0.00    +0.000 C 
ATOM     37  C   UNL     1       0.965  -1.306   2.118  0.00  0.00    +0.000 C 
ATOM     38  C   UNL     1       1.445  -1.333   0.652  0.00  0.00    +0.004 C 
ENDBRANCH  27  34
ENDBRANCH   1  27
TORSDOF 7
