REMARK  Name = ZINC66978816
REMARK  8 active torsions:
REMARK  status: ('A' for Active; 'I' for Inactive)
REMARK    1  A    between atoms: C_1  and  C_2
REMARK    2  A    between atoms: C_2  and  C_3
REMARK    3  A    between atoms: C_2  and  C_4
REMARK    4  A    between atoms: C_2  and  N_13
REMARK    5  A    between atoms: N_6  and  C_7
REMARK    6  A    between atoms: N_16  and  C_17
REMARK    7  A    between atoms: C_17  and  C_18
REMARK    8  A    between atoms: C_18  and  O_28
REMARK                            x       y       z     vdW  Elec       q    Type
REMARK                         _______ _______ _______ _____ _____    ______ ____
ROOT
ATOM      1  N   UNL     1       0.882  -0.462  -1.193  0.00  0.00    -0.286 N 
ATOM      2  C   UNL     1       2.167  -0.087  -1.346  0.00  0.00    +0.301 C 
ATOM      3  O   UNL     1       2.695   0.630  -0.517  0.00  0.00    -0.253 OA
ATOM      4  N   UNL     1       2.869  -0.506  -2.418  0.00  0.00    -0.296 N 
ATOM      5  H   UNL     1       0.462  -1.034  -1.854  0.00  0.00    +0.151 HD
ATOM      6  H   UNL     1       2.448  -1.078  -3.079  0.00  0.00    +0.150 HD
ENDROOT
BRANCH   1   8
ATOM      7  C   UNL     1       0.062   1.522  -0.022  0.00  0.00    +0.041 C 
ATOM      8  C   UNL     1       0.120  -0.006  -0.028  0.00  0.00    +0.107 C 
ATOM      9  C   UNL     1       0.803  -0.495   1.252  0.00  0.00    +0.041 C 
BRANCH   8  10
ATOM     10  C   UNL     1      -1.279  -0.562  -0.094  0.00  0.00    +0.240 C 
ATOM     11  O   UNL     1      -1.856  -0.876   0.926  0.00  0.00    -0.273 OA
ATOM     12  N   UNL     1      -1.890  -0.710  -1.286  0.00  0.00    -0.284 N 
ATOM     13  H   UNL     1      -1.456  -0.397  -2.095  0.00  0.00    +0.155 HD
BRANCH  12  14
ATOM     14  C   UNL     1      -3.150  -1.315  -1.357  0.00  0.00    +0.033 A 
ATOM     15  C   UNL     1      -3.476  -2.117  -2.443  0.00  0.00    +0.023 A 
ATOM     16  C   UNL     1      -4.721  -2.713  -2.510  0.00  0.00    +0.002 A 
ATOM     17  C   UNL     1      -5.641  -2.511  -1.497  0.00  0.00    +0.000 A 
ATOM     18  C   UNL     1      -5.318  -1.713  -0.415  0.00  0.00    +0.002 A 
ATOM     19  C   UNL     1      -4.074  -1.120  -0.339  0.00  0.00    +0.023 A 
ENDBRANCH  12  14
ENDBRANCH   8  10
ENDBRANCH   1   8
BRANCH   4  20
ATOM     20  C   UNL     1       4.266  -0.099  -2.584  0.00  0.00    +0.145 C 
BRANCH  20  21
ATOM     21  C   UNL     1       4.787  -0.602  -3.932  0.00  0.00    +0.107 C 
ATOM     22  C   UNL     1       3.853  -0.124  -5.043  0.00  0.00    +0.041 C 
ATOM     23  C   UNL     1       4.503  -0.448  -6.393  0.00  0.00    +0.008 C 
ATOM     24  C   UNL     1       5.712   0.466  -6.577  0.00  0.00    +0.035 C 
ATOM     25  C   UNL     1       6.608   0.408  -5.368  0.00  0.00    -0.041 A 
ATOM     26  C   UNL     1       6.182  -0.078  -4.152  0.00  0.00    -0.011 A 
ATOM     27  C   UNL     1       7.057  -0.098  -3.074  0.00  0.00    +0.007 A 
ATOM     28  C   UNL     1       8.350   0.363  -3.212  0.00  0.00    +0.000 A 
ATOM     29  C   UNL     1       8.779   0.848  -4.434  0.00  0.00    +0.000 A 
ATOM     30  C   UNL     1       7.911   0.870  -5.505  0.00  0.00    +0.004 A 
BRANCH  21  31
ATOM     31  O   UNL     1       4.815  -2.030  -3.923  0.00  0.00    -0.382 OA
ATOM     32  H   UNL     1       5.382  -2.408  -3.237  0.00  0.00    +0.211 HD
ENDBRANCH  21  31
ENDBRANCH  20  21
ENDBRANCH   4  20
TORSDOF 6
