REMARK  Name = ZINC16815257
REMARK  12 active torsions:
REMARK  status: ('A' for Active; 'I' for Inactive)
REMARK    1  A    between atoms: C_1  and  C_2
REMARK    2  A    between atoms: C_2  and  N_3
REMARK    3  A    between atoms: C_4  and  C_25
REMARK    4  A    between atoms: C_7  and  S_8
REMARK    5  A    between atoms: S_8  and  C_9
REMARK    6  A    between atoms: C_9  and  C_10
REMARK    7  A    between atoms: C_19  and  S_21
REMARK    8  A    between atoms: S_21  and  N_24
REMARK    9  A    between atoms: C_28  and  C_31
REMARK   10  A    between atoms: C_31  and  C_32
REMARK   11  A    between atoms: C_31  and  C_33
REMARK   12  A    between atoms: C_31  and  C_34
REMARK                            x       y       z     vdW  Elec       q    Type
REMARK                         _______ _______ _______ _____ _____    ______ ____
ROOT
ATOM      1  S   UNL     1      -1.506  -3.599  -0.266  0.00  0.00    -0.077 S 
ENDROOT
BRANCH   1   6
ATOM      2  N   UNL     1      -1.079  -0.836  -0.179  0.00  0.00    -0.302 N 
ATOM      3  C   UNL     1       0.003  -0.004  -0.002  0.00  0.00    +0.165 A 
ATOM      4  N   UNL     1       1.054  -0.771   0.169  0.00  0.00    -0.128 NA
ATOM      5  N   UNL     1       0.710  -2.007   0.107  0.00  0.00    -0.122 NA
ATOM      6  C   UNL     1      -0.583  -2.106  -0.107  0.00  0.00    +0.192 A 
BRANCH   3   7
ATOM      7  C   UNL     1      -0.017   1.474   0.001  0.00  0.00    +0.019 A 
ATOM      8  C   UNL     1      -1.082   2.163  -0.582  0.00  0.00    +0.012 A 
ATOM      9  C   UNL     1      -1.096   3.542  -0.570  0.00  0.00    +0.005 A 
ATOM     10  C   UNL     1      -0.053   4.243   0.008  0.00  0.00    -0.042 A 
ATOM     11  C   UNL     1       1.009   3.567   0.582  0.00  0.00    +0.005 A 
ATOM     12  C   UNL     1       1.033   2.188   0.582  0.00  0.00    +0.012 A 
BRANCH  10  13
ATOM     13  C   UNL     1      -0.073   5.750   0.012  0.00  0.00    -0.013 C 
ATOM     14  C   UNL     1       1.153   6.278  -0.737  0.00  0.00    +0.015 C 
ATOM     15  C   UNL     1      -1.345   6.245  -0.679  0.00  0.00    +0.015 C 
ATOM     16  C   UNL     1      -0.046   6.257   1.455  0.00  0.00    +0.015 C 
ENDBRANCH  10  13
ENDBRANCH   3   7
BRANCH   2  18
ATOM     17  C   UNL     1      -2.761  -0.413  -1.903  0.00  0.00    +0.027 C 
ATOM     18  C   UNL     1      -2.472  -0.441  -0.401  0.00  0.00    +0.122 C 
ENDBRANCH   2  18
ENDBRANCH   1   6
BRANCH   1  19
ATOM     19  C   UNL     1      -0.180  -4.812  -0.051  0.00  0.00    +0.173 C 
BRANCH  19  20
ATOM     20  C   UNL     1      -0.751  -6.203  -0.151  0.00  0.00    +0.230 C 
ATOM     21  O   UNL     1      -1.937  -6.359  -0.348  0.00  0.00    -0.274 OA
ATOM     22  N   UNL     1       0.057  -7.274  -0.021  0.00  0.00    -0.270 N 
ATOM     23  C   UNL     1       1.503  -7.213   0.211  0.00  0.00    +0.118 C 
ATOM     24  C   UNL     1       1.961  -8.678   0.288  0.00  0.00    +0.056 C 
ATOM     25  C   UNL     1       0.699  -9.483   0.076  0.00  0.00    -0.023 A 
ATOM     26  C   UNL     1      -0.360  -8.607  -0.096  0.00  0.00    +0.040 A 
ATOM     27  C   UNL     1      -1.639  -9.123  -0.310  0.00  0.00    +0.026 A 
ATOM     28  C   UNL     1      -1.841 -10.486  -0.349  0.00  0.00    +0.030 A 
ATOM     29  C   UNL     1      -0.778 -11.352  -0.177  0.00  0.00    +0.105 A 
ATOM     30  C   UNL     1       0.492 -10.849   0.036  0.00  0.00    +0.034 A 
BRANCH  29  31
ATOM     31  S   UNL     1      -1.040 -13.094  -0.227  0.00  0.00    +0.056 S 
ATOM     32  O   UNL     1       0.024 -13.687   0.505  0.00  0.00    -0.153 OA
ATOM     33  O   UNL     1      -2.405 -13.309   0.104  0.00  0.00    -0.153 OA
BRANCH  31  34
ATOM     34  N   UNL     1      -0.855 -13.572  -1.802  0.00  0.00    -0.204 NA
ATOM     35  H   UNL     1      -0.529 -14.463  -2.003  0.00  0.00    +0.144 HD
ATOM     36  H   UNL     1      -1.071 -12.960  -2.523  0.00  0.00    +0.144 HD
ENDBRANCH  31  34
ENDBRANCH  29  31
ENDBRANCH  19  20
ENDBRANCH   1  19
TORSDOF 8
