REMARK  Name = ZINC06059551
REMARK  2 active torsions:
REMARK  status: ('A' for Active; 'I' for Inactive)
REMARK    1  A    between atoms: N_4  and  N_5
REMARK    2  A    between atoms: N_5  and  C_6
REMARK                            x       y       z     vdW  Elec       q    Type
REMARK                         _______ _______ _______ _____ _____    ______ ____
ROOT
ATOM      1  N   UNL     1       3.489   3.438  -0.012  0.00  0.00    -0.228 N 
ATOM      2  H   UNL     1       2.638   3.903  -0.001  0.00  0.00    +0.175 HD
ENDROOT
BRANCH   1   6
ATOM      3  C   UNL     1      -0.017   1.386   0.010  0.00  0.00    +0.002 C 
ATOM      4  C   UNL     1       1.135   2.112   0.003  0.00  0.00    +0.033 C 
ATOM      5  C   UNL     1       2.380   1.453  -0.013  0.00  0.00    +0.128 C 
ATOM      6  N   UNL     1       3.521   2.149  -0.019  0.00  0.00    -0.178 NA
ATOM      7  C   UNL     1       2.398  -0.015  -0.021  0.00  0.00    +0.206 C 
ATOM      8  O   UNL     1       3.458  -0.627  -0.034  0.00  0.00    -0.286 OA
ATOM      9  C   UNL     1       1.174  -0.701  -0.013  0.00  0.00    +0.053 C 
ATOM     10  C   UNL     1       0.002  -0.004   0.002  0.00  0.00    +0.004 C 
ENDBRANCH   1   6
BRANCH   1  11
ATOM     11  C   UNL     1       4.665   4.156  -0.019  0.00  0.00    +0.121 A 
ATOM     12  C   UNL     1       5.952   3.701  -0.039  0.00  0.00    +0.117 A 
ATOM     13  N   UNL     1       6.928   4.647  -0.041  0.00  0.00    -0.309 N 
ATOM     14  H   UNL     1       7.862   4.386  -0.056  0.00  0.00    +0.170 HD
ATOM     15  C   UNL     1       6.587   5.951  -0.024  0.00  0.00    +0.291 A 
ATOM     16  O   UNL     1       7.323   6.922  -0.023  0.00  0.00    -0.260 OA
ATOM     17  S   UNL     1       4.906   5.923  -0.012  0.00  0.00    -0.010 S 
ATOM     18  S   UNL     1       6.328   1.980  -0.060  0.00  0.00    -0.030 SA
ENDBRANCH   1  11
TORSDOF 2
