REMARK  Name = ZINC13740426
REMARK  10 active torsions:
REMARK  status: ('A' for Active; 'I' for Inactive)
REMARK    1  A    between atoms: C_1  and  C_2
REMARK    2  A    between atoms: N_11  and  C_14
REMARK    3  A    between atoms: C_14  and  C_15
REMARK    4  A    between atoms: C_15  and  C_16
REMARK    5  A    between atoms: C_17  and  C_34
REMARK    6  A    between atoms: C_22  and  C_28
REMARK    7  A    between atoms: C_28  and  C_30
REMARK    8  A    between atoms: C_28  and  O_33
REMARK    9  A    between atoms: C_30  and  C_31
REMARK   10  A    between atoms: C_30  and  C_32
REMARK                            x       y       z     vdW  Elec       q    Type
REMARK                         _______ _______ _______ _____ _____    ______ ____
ROOT
ATOM      1  C   UNL     1      -0.906   5.209   1.675  0.00  0.00    -0.018 A 
ATOM      2  C   UNL     1      -0.838   3.975   2.226  0.00  0.00    +0.020 A 
ATOM      3  N   UNL     1      -0.785   3.031   1.256  0.00  0.00    -0.344 N 
ATOM      4  C   UNL     1      -0.825   3.666   0.025  0.00  0.00    +0.053 A 
ATOM      5  C   UNL     1      -0.896   5.042   0.222  0.00  0.00    +0.004 A 
ATOM      6  C   UNL     1      -0.938   5.855  -0.913  0.00  0.00    +0.016 A 
ATOM      7  C   UNL     1      -0.909   5.281  -2.156  0.00  0.00    -0.018 A 
ATOM      8  C   UNL     1      -0.839   3.899  -2.334  0.00  0.00    +0.012 A 
ATOM      9  C   UNL     1      -0.797   3.082  -1.238  0.00  0.00    -0.023 A 
ATOM     10  C   UNL     1      -0.724   1.578  -1.256  0.00  0.00    +0.039 C 
ATOM     11  C   UNL     1      -0.013   1.086   0.008  0.00  0.00    +0.026 C 
ATOM     12  C   UNL     1      -0.700   1.565   1.292  0.00  0.00    +0.122 C 
ATOM     13  C   UNL     1      -0.822   3.691   3.706  0.00  0.00    +0.064 C 
ENDROOT
BRANCH   1  14
ATOM     14  C   UNL     1      -0.978   6.516   2.422  0.00  0.00    +0.053 C 
BRANCH  14  15
ATOM     15  C   UNL     1      -2.443   6.879   2.674  0.00  0.00    +0.089 C 
BRANCH  15  26
ATOM     16  C   UNL     1      -2.495  12.499   9.577  0.00  0.00    +0.044 C 
ATOM     17  C   UNL     1      -3.008  12.373   8.165  0.00  0.00    -0.046 A 
ATOM     18  C   UNL     1      -3.564  13.465   7.512  0.00  0.00    +0.021 A 
ATOM     19  C   UNL     1      -4.025  13.316   6.219  0.00  0.00    +0.084 A 
ATOM     20  N   UNL     1      -3.943  12.153   5.601  0.00  0.00    -0.350 N 
ATOM     21  C   UNL     1      -3.420  11.089   6.190  0.00  0.00    +0.099 A 
ATOM     22  C   UNL     1      -2.941  11.165   7.494  0.00  0.00    +0.045 A 
ATOM     23  N   UNL     1      -3.353   9.883   5.502  0.00  0.00    -0.314 N 
ATOM     24  C   UNL     1      -3.914  10.017   4.150  0.00  0.00    +0.122 C 
ATOM     25  C   UNL     1      -3.895   8.653   3.455  0.00  0.00    +0.103 C 
ATOM     26  N   UNL     1      -2.514   8.153   3.402  0.00  0.00    -0.299 NA
ATOM     27  C   UNL     1      -1.952   8.020   4.753  0.00  0.00    +0.103 C 
ATOM     28  C   UNL     1      -1.972   9.383   5.448  0.00  0.00    +0.122 C 
ATOM     29  H   UNL     1      -4.314  12.050   4.571  0.00  0.00    +0.166 HD
ENDBRANCH  15  26
ENDBRANCH  14  15
ENDBRANCH   1  14
BRANCH   7  30
ATOM     30  C   UNL     1      -0.954   6.171  -3.372  0.00  0.00    +0.147 C 
BRANCH  30  31
ATOM     31  C   UNL     1      -2.400   6.298  -3.857  0.00  0.00    +0.016 C 
ATOM     32  C   UNL     1      -2.445   7.202  -5.091  0.00  0.00    +0.010 C 
ATOM     33  C   UNL     1      -2.940   4.913  -4.218  0.00  0.00    +0.010 C 
ENDBRANCH  30  31
BRANCH  30  34
ATOM     34  O   UNL     1      -0.152   5.602  -4.408  0.00  0.00    -0.387 OA
ATOM     35  H   UNL     1      -0.063   6.114  -5.378  0.00  0.00    +0.210 HD
ENDBRANCH  30  34
ENDBRANCH   7  30
TORSDOF 6
