REMARK  Name = ZINC51114715
REMARK  7 active torsions:
REMARK  status: ('A' for Active; 'I' for Inactive)
REMARK    1  A    between atoms: C_1  and  C_2
REMARK    2  A    between atoms: C_5  and  C_7
REMARK    3  A    between atoms: C_7  and  C_9
REMARK    4  A    between atoms: C_7  and  N_10
REMARK    5  A    between atoms: C_11  and  C_13
REMARK    6  A    between atoms: C_18  and  N_19
REMARK    7  A    between atoms: N_19  and  N_20
REMARK                            x       y       z     vdW  Elec       q    Type
REMARK                         _______ _______ _______ _____ _____    ______ ____
ROOT
ATOM      1  N   UNL     1       2.790  -2.967   0.900  0.00  0.00    -0.302 N 
ATOM      2  C   UNL     1       3.494  -3.987   1.429  0.00  0.00    +0.248 C 
ATOM      3  O   UNL     1       3.182  -5.135   1.179  0.00  0.00    -0.270 OA
ATOM      4  H   UNL     1       3.039  -2.051   1.099  0.00  0.00    +0.150 HD
ENDROOT
BRANCH   2   5
ATOM      5  C   UNL     1       4.643  -3.710   2.310  0.00  0.00    +0.079 A 
ATOM      6  C   UNL     1       5.090  -2.399   2.509  0.00  0.00    +0.033 A 
ATOM      7  C   UNL     1       6.173  -2.192   3.346  0.00  0.00    +0.037 A 
ATOM      8  C   UNL     1       6.777  -3.277   3.958  0.00  0.00    +0.128 A 
ATOM      9  N   UNL     1       6.341  -4.505   3.758  0.00  0.00    -0.237 NA
ATOM     10  C   UNL     1       5.306  -4.758   2.971  0.00  0.00    +0.144 A 
ATOM     11 BR   UNL     1       6.821  -0.443   3.651  0.00  0.00    -0.049 Br
BRANCH  10  12
ATOM     12  N   UNL     1       4.879  -6.062   2.795  0.00  0.00    -0.267 N 
ATOM     13  H   UNL     1       4.176  -6.260   2.156  0.00  0.00    +0.167 HD
BRANCH  12  14
ATOM     14  N   UNL     1       5.447  -7.071   3.520  0.00  0.00    -0.255 NA
ATOM     15  H   UNL     1       5.035  -7.961   3.285  0.00  0.00    +0.140 HD
ATOM     16  H   UNL     1       6.447  -7.090   3.392  0.00  0.00    +0.140 HD
ENDBRANCH  12  14
ENDBRANCH  10  12
ENDBRANCH   2   5
BRANCH   1  17
ATOM     17  C   UNL     1       1.648  -3.241   0.024  0.00  0.00    +0.136 C 
ATOM     18  C   UNL     1       2.143  -3.449  -1.408  0.00  0.00    +0.036 C 
BRANCH  17  23
ATOM     19  C   UNL     1      -0.104   1.487   0.147  0.00  0.00    +0.086 C 
ATOM     20  C   UNL     1      -0.068  -0.019   0.116  0.00  0.00    +0.102 A 
ATOM     21  C   UNL     1      -1.140  -0.832   0.116  0.00  0.00    +0.045 A 
ATOM     22  C   UNL     1      -0.648  -2.157   0.081  0.00  0.00    +0.047 A 
ATOM     23  C   UNL     1       0.694  -2.075   0.062  0.00  0.00    +0.125 A 
ATOM     24  O   UNL     1       1.040  -0.778   0.077  0.00  0.00    -0.463 OA
ENDBRANCH  17  23
ENDBRANCH   1  17
TORSDOF 5
