REMARK  Name = ZINC10924496
REMARK  8 active torsions:
REMARK  status: ('A' for Active; 'I' for Inactive)
REMARK    1  A    between atoms: C_1  and  C_2
REMARK    2  A    between atoms: C_4  and  C_32
REMARK    3  A    between atoms: C_6  and  N_13
REMARK    4  A    between atoms: C_14  and  C_16
REMARK    5  A    between atoms: C_16  and  N_59
REMARK    6  A    between atoms: C_22  and  C_24
REMARK    7  A    between atoms: C_27  and  O_30
REMARK    8  A    between atoms: O_30  and  C_31
REMARK                            x       y       z     vdW  Elec       q    Type
REMARK                         _______ _______ _______ _____ _____    ______ ____
ROOT
ATOM      1  N   UNL     1      -0.960  -2.901   3.416  0.00  0.00    -0.257 N 
ATOM      2  C   UNL     1      -1.532  -1.836   2.820  0.00  0.00    +0.203 C 
ATOM      3  O   UNL     1      -2.737  -1.699   2.850  0.00  0.00    -0.277 OA
ATOM      4  H   UNL     1       0.003  -3.010   3.393  0.00  0.00    +0.158 HD
ENDROOT
BRANCH   1  10
ATOM      5  C   UNL     1      -3.522  -7.616   6.535  0.00  0.00    +0.068 C 
ATOM      6  C   UNL     1      -2.327  -6.886   5.977  0.00  0.00    +0.070 A 
ATOM      7  C   UNL     1      -2.509  -5.637   5.232  0.00  0.00    +0.053 A 
ATOM      8  C   UNL     1      -3.549  -4.864   4.857  0.00  0.00    +0.114 A 
ATOM      9  O   UNL     1      -3.085  -3.805   4.167  0.00  0.00    -0.445 OA
ATOM     10  C   UNL     1      -1.748  -3.838   4.062  0.00  0.00    +0.206 A 
ATOM     11  C   UNL     1      -1.296  -4.967   4.702  0.00  0.00    +0.110 A 
ATOM     12  C   UNL     1      -0.007  -5.601   4.960  0.00  0.00    +0.277 A 
ATOM     13  O   UNL     1       1.025  -5.098   4.552  0.00  0.00    -0.266 OA
ATOM     14  N   UNL     1       0.019  -6.756   5.657  0.00  0.00    -0.242 N 
ATOM     15  H   UNL     1       0.876  -7.177   5.828  0.00  0.00    +0.192 HD
ATOM     16  N   UNL     1      -1.133  -7.369   6.142  0.00  0.00    -0.175 NA
ATOM     17  C   UNL     1      -4.998  -5.141   5.162  0.00  0.00    +0.087 C 
ENDBRANCH   1  10
BRANCH   2  18
ATOM     18  C   UNL     1      -0.675  -0.816   2.117  0.00  0.00    +0.020 C 
BRANCH  18  25
ATOM     19  C   UNL     1      -2.357  -0.286   0.444  0.00  0.00    -0.077 C 
ATOM     20  C   UNL     1      -3.042   0.802  -0.337  0.00  0.00    -0.019 C 
ATOM     21  C   UNL     1      -2.154   1.172  -1.544  0.00  0.00    -0.002 C 
ATOM     22  C   UNL     1      -1.041   2.035  -1.164  0.00  0.00    -0.001 C 
ATOM     23  C   UNL     1      -0.101   1.360  -0.143  0.00  0.00    -0.011 C 
ATOM     24  C   UNL     1      -0.732   1.442   1.220  0.00  0.00    -0.037 C 
ATOM     25  N   UNL     1      -1.556   0.243   1.603  0.00  0.00    +0.390 N 
ATOM     26  H   UNL     1      -2.208   0.523   2.345  0.00  0.00    -0.080 HD
BRANCH  24  27
ATOM     27  C   UNL     1       0.355   1.615   2.249  0.00  0.00    -0.061 A 
ATOM     28  C   UNL     1       1.516   0.870   2.159  0.00  0.00    +0.005 A 
ATOM     29  C   UNL     1       2.516   1.032   3.098  0.00  0.00    +0.046 A 
ATOM     30  C   UNL     1       2.350   1.934   4.138  0.00  0.00    +0.120 A 
ATOM     31  C   UNL     1       1.182   2.677   4.230  0.00  0.00    +0.046 A 
ATOM     32  C   UNL     1       0.187   2.516   3.285  0.00  0.00    +0.005 A 
BRANCH  30  33
ATOM     33  O   UNL     1       3.330   2.091   5.066  0.00  0.00    -0.495 OA
ATOM     34  C   UNL     1       4.506   1.294   4.909  0.00  0.00    +0.277 C 
ENDBRANCH  30  33
ENDBRANCH  24  27
ENDBRANCH  18  25
ENDBRANCH   2  18
TORSDOF 5
