REMARK  Name = ZINC13175901
REMARK  7 active torsions:
REMARK  status: ('A' for Active; 'I' for Inactive)
REMARK    1  A    between atoms: C_6  and  C_7
REMARK    2  A    between atoms: C_7  and  C_9
REMARK    3  A    between atoms: C_7  and  N_12
REMARK    4  A    between atoms: C_9  and  C_10
REMARK    5  A    between atoms: C_13  and  C_15
REMARK    6  A    between atoms: N_18  and  S_21
REMARK    7  A    between atoms: S_21  and  C_24
REMARK                            x       y       z     vdW  Elec       q    Type
REMARK                         _______ _______ _______ _____ _____    ______ ____
ROOT
ATOM      1  C   UNL     1      -5.044  -0.274   3.569  0.00  0.00    +0.077 C 
ATOM      2  C   UNL     1      -5.710   0.769   2.670  0.00  0.00    +0.030 C 
ATOM      3  C   UNL     1      -4.630   1.596   1.966  0.00  0.00    +0.110 C 
ATOM      4  N   UNL     1      -3.721   0.682   1.260  0.00  0.00    -0.177 NA
ATOM      5  C   UNL     1      -3.100  -0.417   2.011  0.00  0.00    +0.110 C 
ATOM      6  C   UNL     1      -4.193  -1.218   2.716  0.00  0.00    +0.030 C 
ENDROOT
BRANCH   1   8
ATOM      7  N   UNL     1      -5.748  -2.049   5.142  0.00  0.00    -0.308 N 
ATOM      8  C   UNL     1      -6.104  -1.067   4.290  0.00  0.00    +0.217 C 
ATOM      9  O   UNL     1      -7.277  -0.822   4.102  0.00  0.00    -0.275 OA
ATOM     10  H   UNL     1      -4.815  -2.293   5.239  0.00  0.00    +0.149 HD
BRANCH   7  11
ATOM     11  C   UNL     1      -6.772  -2.747   5.923  0.00  0.00    +0.114 C 
BRANCH  11  17
ATOM     12  C   UNL     1      -4.925  -4.188   6.804  0.00  0.00    +0.007 A 
ATOM     13  C   UNL     1      -4.434  -5.409   7.226  0.00  0.00    +0.020 A 
ATOM     14  C   UNL     1      -5.251  -6.525   7.212  0.00  0.00    +0.041 A 
ATOM     15  C   UNL     1      -6.561  -6.417   6.781  0.00  0.00    +0.020 A 
ATOM     16  C   UNL     1      -7.053  -5.195   6.364  0.00  0.00    +0.007 A 
ATOM     17  C   UNL     1      -6.236  -4.080   6.378  0.00  0.00    -0.027 A 
ATOM     18 CL   UNL     1      -4.633  -8.060   7.737  0.00  0.00    -0.084 Cl
ENDBRANCH  11  17
BRANCH  11  19
ATOM     19  C   UNL     1      -7.146  -1.904   7.144  0.00  0.00    +0.152 C 
BRANCH  19  20
ATOM     20  C   UNL     1      -8.312  -2.539   7.856  0.00  0.00    +0.358 C 
ATOM     21  O   UNL     1      -8.871  -3.493   7.368  0.00  0.00    -0.246 OA
ATOM     22  O   UNL     1      -8.730  -2.045   9.032  0.00  0.00    -0.246 OA
ENDBRANCH  19  20
ENDBRANCH  11  19
ENDBRANCH   7  11
ENDBRANCH   1   8
BRANCH   4  23
ATOM     23  S   UNL     1      -3.408   0.884  -0.354  0.00  0.00    +0.061 S 
ATOM     24  O   UNL     1      -4.512   1.596  -0.896  0.00  0.00    -0.153 OA
ATOM     25  O   UNL     1      -3.000  -0.383  -0.850  0.00  0.00    -0.153 OA
BRANCH  23  26
ATOM     26  C   UNL     1      -2.010   1.949  -0.484  0.00  0.00    +0.106 A 
ATOM     27  C   UNL     1      -0.734   1.417  -0.513  0.00  0.00    +0.029 A 
ATOM     28  C   UNL     1       0.359   2.253  -0.621  0.00  0.00    +0.006 A 
ATOM     29  C   UNL     1       0.184   3.624  -0.694  0.00  0.00    -0.044 A 
ATOM     30  C   UNL     1      -1.091   4.157  -0.660  0.00  0.00    -0.042 A 
ATOM     31  C   UNL     1      -2.187   3.317  -0.551  0.00  0.00    +0.032 A 
ATOM     32  C   UNL     1      -1.018   5.666  -0.755  0.00  0.00    +0.036 C 
ATOM     33  C   UNL     1       0.398   5.969  -1.289  0.00  0.00    +0.009 C 
ATOM     34  C   UNL     1       1.201   4.739  -0.815  0.00  0.00    +0.036 C 
ENDBRANCH  23  26
ENDBRANCH   4  23
TORSDOF 7
