REMARK  Name = ZINC36266578
REMARK  4 active torsions:
REMARK  status: ('A' for Active; 'I' for Inactive)
REMARK    1  A    between atoms: C_1  and  C_2
REMARK    2  A    between atoms: C_5  and  S_7
REMARK    3  A    between atoms: S_7  and  N_10
REMARK    4  A    between atoms: N_10  and  C_11
REMARK                            x       y       z     vdW  Elec       q    Type
REMARK                         _______ _______ _______ _____ _____    ______ ____
ROOT
ATOM      1  C   UNL     1       2.266  -4.058  -2.473  0.00  0.00    +0.074 C 
ATOM      2  C   UNL     1       1.557  -2.943  -3.247  0.00  0.00    +0.001 C 
ATOM      3  C   UNL     1       2.554  -2.279  -4.200  0.00  0.00    -0.080 C 
ATOM      4  N   UNL     1       3.075  -3.276  -5.142  0.00  0.00    +0.383 N 
ATOM      5  C   UNL     1       3.818  -4.312  -4.413  0.00  0.00    -0.067 C 
ATOM      6  C   UNL     1       2.871  -5.054  -3.466  0.00  0.00    +0.008 C 
ATOM      7  C   UNL     1       4.421  -5.304  -5.409  0.00  0.00    -0.012 C 
ATOM      8  C   UNL     1       5.373  -4.566  -6.352  0.00  0.00    -0.001 C 
ATOM      9  C   UNL     1       6.494  -3.915  -5.539  0.00  0.00    -0.000 C 
ATOM     10  C   UNL     1       5.890  -2.922  -4.544  0.00  0.00    -0.001 C 
ATOM     11  C   UNL     1       4.939  -3.660  -3.600  0.00  0.00    -0.012 C 
ATOM     12  H   UNL     1       2.307  -3.702  -5.639  0.00  0.00    -0.085 HD
ATOM     13  H   UNL     1       3.691  -2.825  -5.802  0.00  0.00    -0.085 HD
ENDROOT
BRANCH   1  14
ATOM     14  N   UNL     1       1.300  -4.748  -1.614  0.00  0.00    -0.187 NA
ATOM     15  H   UNL     1       0.759  -5.468  -1.974  0.00  0.00    +0.148 HD
BRANCH  14  16
ATOM     16  S   UNL     1       1.134  -4.300  -0.029  0.00  0.00    +0.065 S 
ATOM     17  O   UNL     1       2.445  -4.240   0.516  0.00  0.00    -0.153 OA
ATOM     18  O   UNL     1       0.117  -5.126   0.522  0.00  0.00    -0.153 OA
BRANCH  16  23
ATOM     19  C   UNL     1      -0.018   1.503   0.010  0.00  0.00    +0.051 C 
ATOM     20  C   UNL     1       0.002  -0.004   0.002  0.00  0.00    -0.011 A 
ATOM     21  C   UNL     1      -1.039  -0.872   0.002  0.00  0.00    +0.013 A 
ATOM     22  C   UNL     1      -0.780  -2.230  -0.007  0.00  0.00    +0.036 A 
ATOM     23  C   UNL     1       0.507  -2.653  -0.016  0.00  0.00    +0.143 A 
ATOM     24  S   UNL     1       1.404  -1.109  -0.018  0.00  0.00    -0.074 S 
ENDBRANCH  16  23
ENDBRANCH  14  16
ENDBRANCH   1  14
TORSDOF 3
