REMARK  Name = ZINC45955535
REMARK  4 active torsions:
REMARK  status: ('A' for Active; 'I' for Inactive)
REMARK    1  A    between atoms: C_1  and  C_2
REMARK    2  A    between atoms: C_2  and  C_3
REMARK    3  A    between atoms: C_3  and  C_4
REMARK    4  A    between atoms: C_13  and  C_15
REMARK                            x       y       z     vdW  Elec       q    Type
REMARK                         _______ _______ _______ _____ _____    ______ ____
ROOT
ATOM      1  C   UNL     1       0.989  -2.093   1.619  0.00  0.00    +0.047 A 
ATOM      2  C   UNL     1       1.852  -2.675   0.748  0.00  0.00    +0.072 A 
ATOM      3  C   UNL     1       1.614  -4.016   0.348  0.00  0.00    +0.165 A 
ATOM      4  N   UNL     1       2.244  -4.834  -0.456  0.00  0.00    -0.151 NA
ATOM      5  N   UNL     1       1.543  -6.049  -0.469  0.00  0.00    -0.226 N 
ATOM      6  H   UNL     1       1.780  -6.840  -0.978  0.00  0.00    +0.194 HD
ATOM      7  C   UNL     1       0.481  -5.917   0.353  0.00  0.00    +0.350 A 
ATOM      8  O   UNL     1      -0.353  -6.774   0.591  0.00  0.00    -0.245 OA
ATOM      9  N   UNL     1       0.508  -4.673   0.866  0.00  0.00    -0.227 N 
ATOM     10  C   UNL     1      -0.315  -4.006   1.745  0.00  0.00    +0.151 A 
ATOM     11  N   UNL     1      -0.061  -2.768   2.096  0.00  0.00    -0.233 NA
ENDROOT
BRANCH  10  12
ATOM     12  C   UNL     1      -1.496  -4.694   2.303  0.00  0.00    +0.018 A 
ATOM     13  C   UNL     1      -1.805  -4.568   3.660  0.00  0.00    +0.011 A 
ATOM     14  C   UNL     1      -2.910  -5.214   4.175  0.00  0.00    +0.001 A 
ATOM     15  C   UNL     1      -3.711  -5.985   3.351  0.00  0.00    +0.000 A 
ATOM     16  C   UNL     1      -3.411  -6.114   2.006  0.00  0.00    +0.001 A 
ATOM     17  C   UNL     1      -2.312  -5.470   1.477  0.00  0.00    +0.011 A 
ENDBRANCH  10  12
BRANCH   1  18
ATOM     18  C   UNL     1       1.222  -0.671   2.059  0.00  0.00    +0.055 C 
BRANCH  18  20
ATOM     19  C   UNL     1       0.634   1.720   1.630  0.00  0.00    +0.004 C 
ATOM     20  C   UNL     1       0.398   0.275   1.183  0.00  0.00    +0.003 C 
ENDBRANCH  18  20
ENDBRANCH   1  18
TORSDOF 3
