REMARK  Name = ZINC35889726
REMARK  3 active torsions:
REMARK  status: ('A' for Active; 'I' for Inactive)
REMARK    1  A    between atoms: C_1  and  C_2
REMARK    2  A    between atoms: C_2  and  C_3
REMARK    3  A    between atoms: N_22  and  C_25
REMARK                            x       y       z     vdW  Elec       q    Type
REMARK                         _______ _______ _______ _____ _____    ______ ____
ROOT
ATOM      1  C   UNL     1      -1.390  -0.572   0.022  0.00  0.00    -0.047 A 
ATOM      2  C   UNL     1      -2.009  -0.851   1.227  0.00  0.00    +0.005 A 
ATOM      3  C   UNL     1      -3.293  -1.352   1.250  0.00  0.00    +0.024 A 
ATOM      4  C   UNL     1      -3.978  -1.581   0.059  0.00  0.00    +0.036 A 
ATOM      5  C   UNL     1      -3.345  -1.297  -1.148  0.00  0.00    -0.027 A 
ATOM      6  C   UNL     1      -2.064  -0.791  -1.166  0.00  0.00    +0.008 A 
ATOM      7  C   UNL     1      -4.333  -1.649  -2.224  0.00  0.00    +0.053 C 
ATOM      8  C   UNL     1      -3.778  -2.724  -3.166  0.00  0.00    +0.089 C 
ATOM      9  C   UNL     1      -3.279  -1.939  -4.409  0.00  0.00    +0.074 C 
ATOM     10  C   UNL     1      -3.564  -0.459  -4.095  0.00  0.00    -0.054 C 
ATOM     11  N   UNL     1      -4.655  -0.485  -3.066  0.00  0.00    +0.395 N 
ATOM     12  C   UNL     1      -5.899  -0.761  -3.824  0.00  0.00    -0.076 C 
ATOM     13  C   UNL     1      -5.745   0.014  -5.148  0.00  0.00    -0.020 C 
ATOM     14  C   UNL     1      -4.190   0.211  -5.332  0.00  0.00    -0.016 C 
ATOM     15  C   UNL     1      -4.194  -2.417  -5.514  0.00  0.00    +0.228 C 
ATOM     16  O   UNL     1      -4.150  -2.049  -6.668  0.00  0.00    -0.275 OA
ATOM     17  N   UNL     1      -5.058  -3.311  -5.020  0.00  0.00    -0.209 N 
ATOM     18  C   UNL     1      -4.913  -3.569  -3.700  0.00  0.00    +0.229 C 
ATOM     19  O   UNL     1      -5.577  -4.344  -3.047  0.00  0.00    -0.275 OA
ATOM     20  C   UNL     1      -5.550  -2.145  -1.488  0.00  0.00    +0.212 C 
ATOM     21  O   UNL     1      -6.587  -2.533  -1.984  0.00  0.00    -0.277 OA
ATOM     22  N   UNL     1      -5.263  -2.075  -0.175  0.00  0.00    -0.286 N 
ATOM     23  H   UNL     1      -5.878  -2.336   0.528  0.00  0.00    +0.155 HD
ATOM     24  H   UNL     1      -4.701   0.372  -2.536  0.00  0.00    -0.079 HD
ENDROOT
BRANCH  17  25
ATOM     25  C   UNL     1      -6.036  -3.936  -5.807  0.00  0.00    +0.058 A 
ATOM     26  C   UNL     1      -7.312  -3.395  -5.891  0.00  0.00    +0.025 A 
ATOM     27  C   UNL     1      -8.273  -4.012  -6.667  0.00  0.00    +0.002 A 
ATOM     28  C   UNL     1      -7.966  -5.168  -7.361  0.00  0.00    +0.001 A 
ATOM     29  C   UNL     1      -6.696  -5.710  -7.280  0.00  0.00    +0.017 A 
ATOM     30  C   UNL     1      -5.729  -5.094  -6.509  0.00  0.00    +0.040 A 
ATOM     31 BR   UNL     1      -3.991  -5.832  -6.404  0.00  0.00    -0.048 Br
ENDBRANCH  17  25
BRANCH   1  33
ATOM     32  C   UNL     1      -0.033   1.504   0.046  0.00  0.00    +0.009 C 
ATOM     33  C   UNL     1       0.014  -0.025   0.003  0.00  0.00    +0.032 C 
ENDBRANCH   1  33
TORSDOF 2
