REMARK  Name = ZINC09266704
REMARK  3 active torsions:
REMARK  status: ('A' for Active; 'I' for Inactive)
REMARK    1  A    between atoms: C_1  and  C_2
REMARK    2  A    between atoms: C_2  and  C_3
REMARK    3  A    between atoms: N_21  and  C_24
REMARK                            x       y       z     vdW  Elec       q    Type
REMARK                         _______ _______ _______ _____ _____    ______ ____
ROOT
ATOM      1  C   UNL     1      -5.049   5.109  -0.469  0.00  0.00    -0.047 A 
ATOM      2  C   UNL     1      -6.139   4.984   0.374  0.00  0.00    +0.005 A 
ATOM      3  C   UNL     1      -6.042   4.244   1.534  0.00  0.00    +0.024 A 
ATOM      4  C   UNL     1      -4.843   3.617   1.866  0.00  0.00    +0.036 A 
ATOM      5  C   UNL     1      -3.753   3.751   1.011  0.00  0.00    -0.027 A 
ATOM      6  C   UNL     1      -3.855   4.490  -0.146  0.00  0.00    +0.008 A 
ATOM      7  C   UNL     1      -2.635   2.971   1.644  0.00  0.00    +0.053 C 
ATOM      8  C   UNL     1      -1.425   3.866   1.938  0.00  0.00    +0.089 C 
ATOM      9  C   UNL     1      -0.192   2.961   1.671  0.00  0.00    +0.074 C 
ATOM     10  C   UNL     1      -0.772   1.601   1.244  0.00  0.00    -0.054 C 
ATOM     11  C   UNL     1      -1.957   2.437  -0.615  0.00  0.00    -0.076 C 
ATOM     12  C   UNL     1      -0.796   1.615  -1.209  0.00  0.00    -0.020 C 
ATOM     13  C   UNL     1      -0.013   1.086   0.008  0.00  0.00    -0.016 C 
ATOM     14  C   UNL     1       0.474   3.619   0.484  0.00  0.00    +0.229 C 
ATOM     15  O   UNL     1       1.485   3.227  -0.059  0.00  0.00    -0.275 OA
ATOM     16  N   UNL     1      -0.226   4.702   0.126  0.00  0.00    -0.207 N 
ATOM     17  C   UNL     1      -1.320   4.944   0.883  0.00  0.00    +0.229 C 
ATOM     18  O   UNL     1      -2.094   5.867   0.745  0.00  0.00    -0.275 OA
ATOM     19  C   UNL     1      -3.221   2.408   2.911  0.00  0.00    +0.212 C 
ATOM     20  O   UNL     1      -2.651   1.712   3.725  0.00  0.00    -0.277 OA
ATOM     21  N   UNL     1      -4.499   2.828   2.966  0.00  0.00    -0.286 N 
ATOM     22  H   UNL     1      -5.111   2.606   3.686  0.00  0.00    +0.155 HD
ATOM     23  N   UNL     1      -2.097   1.928   0.766  0.00  0.00    +0.395 N 
ATOM     24  H   UNL     1      -2.706   1.101   0.780  0.00  0.00    -0.079 HD
ENDROOT
BRANCH  16  25
ATOM     25  C   UNL     1       0.147   5.526  -0.947  0.00  0.00    +0.079 A 
ATOM     26  C   UNL     1      -0.326   5.261  -2.224  0.00  0.00    +0.027 A 
ATOM     27  C   UNL     1       0.042   6.074  -3.278  0.00  0.00    +0.002 A 
ATOM     28  C   UNL     1       0.881   7.152  -3.063  0.00  0.00    +0.003 A 
ATOM     29  C   UNL     1       1.355   7.420  -1.792  0.00  0.00    +0.040 A 
ATOM     30  C   UNL     1       0.987   6.612  -0.731  0.00  0.00    +0.145 A 
ATOM     31  F   UNL     1       1.445   6.877   0.512  0.00  0.00    -0.204 F 
ENDBRANCH  16  25
BRANCH   1  33
ATOM     32  C   UNL     1      -5.619   5.013  -2.880  0.00  0.00    +0.009 C 
ATOM     33  C   UNL     1      -5.163   5.919  -1.735  0.00  0.00    +0.032 C 
ENDBRANCH   1  33
TORSDOF 2
