REMARK  Name = ZINC27596173
REMARK  14 active torsions:
REMARK  status: ('A' for Active; 'I' for Inactive)
REMARK    1  A    between atoms: C_1  and  C_2
REMARK    2  A    between atoms: C_2  and  C_3
REMARK    3  A    between atoms: C_6  and  C_9
REMARK    4  A    between atoms: C_9  and  C_11
REMARK    5  A    between atoms: C_9  and  N_32
REMARK    6  A    between atoms: C_11  and  N_12
REMARK    7  A    between atoms: C_13  and  C_15
REMARK    8  A    between atoms: C_15  and  N_16
REMARK    9  A    between atoms: C_19  and  C_23
REMARK   10  A    between atoms: C_19  and  C_24
REMARK   11  A    between atoms: C_27  and  O_30
REMARK   12  A    between atoms: O_30  and  C_31
REMARK   13  A    between atoms: N_32  and  C_33
REMARK   14  A    between atoms: N_32  and  C_34
REMARK                            x       y       z     vdW  Elec       q    Type
REMARK                         _______ _______ _______ _____ _____    ______ ____
ROOT
ATOM      1  N   UNL     1      -1.462   1.006  -2.056  0.00  0.00    -0.315 N 
ATOM      2  C   UNL     1      -1.951   1.142  -3.305  0.00  0.00    +0.231 C 
ATOM      3  O   UNL     1      -1.246   1.584  -4.188  0.00  0.00    -0.274 OA
ATOM      4  H   UNL     1      -2.102   0.606  -1.256  0.00  0.00    +0.149 HD
ENDROOT
BRANCH   1   5
ATOM      5  C   UNL     1      -0.080   1.393  -1.765  0.00  0.00    +0.093 C 
BRANCH   5   6
ATOM      6  C   UNL     1       0.167   1.306  -0.258  0.00  0.00    -0.021 C 
BRANCH   6  10
ATOM      7  C   UNL     1       4.272   2.159   0.564  0.00  0.00    -0.048 A 
ATOM      8  C   UNL     1       3.824   0.851   0.565  0.00  0.00    +0.004 A 
ATOM      9  C   UNL     1       2.496   0.575   0.300  0.00  0.00    +0.002 A 
ATOM     10  C   UNL     1       1.615   1.607   0.033  0.00  0.00    -0.059 A 
ATOM     11  C   UNL     1       2.064   2.914   0.026  0.00  0.00    +0.002 A 
ATOM     12  C   UNL     1       3.391   3.191   0.296  0.00  0.00    +0.004 A 
BRANCH   7  14
ATOM     13  C   UNL     1       6.512   2.457  -0.456  0.00  0.00    +0.009 C 
ATOM     14  C   UNL     1       5.720   2.460   0.853  0.00  0.00    +0.032 C 
ENDBRANCH   7  14
ENDBRANCH   6  10
BRANCH   6  15
ATOM     15  N   UNL     1      -0.684   2.282   0.436  0.00  0.00    +0.382 N 
ATOM     16  C   UNL     1      -0.970   3.437  -0.426  0.00  0.00    -0.096 C 
ATOM     17  C   UNL     1      -1.927   1.656   0.906  0.00  0.00    -0.096 C 
ATOM     18  H   UNL     1      -0.134   2.645   1.316  0.00  0.00    -0.082 HD
ENDBRANCH   6  15
ENDBRANCH   5   6
ENDBRANCH   1   5
BRANCH   2  19
ATOM     19  C   UNL     1      -3.373   0.744  -3.605  0.00  0.00    +0.213 C 
BRANCH  19  20
ATOM     20  N   UNL     1      -3.660   0.986  -5.021  0.00  0.00    -0.215 N 
ATOM     21  C   UNL     1      -3.467   0.078  -5.998  0.00  0.00    +0.251 C 
ATOM     22  O   UNL     1      -3.040  -1.050  -5.876  0.00  0.00    -0.272 OA
ATOM     23  C   UNL     1      -3.896   0.760  -7.282  0.00  0.00    +0.135 C 
ATOM     24  N   UNL     1      -4.320   2.099  -6.838  0.00  0.00    -0.281 N 
ATOM     25  C   UNL     1      -4.150   2.134  -5.503  0.00  0.00    +0.310 C 
ATOM     26  O   UNL     1      -4.410   3.100  -4.814  0.00  0.00    -0.252 OA
ATOM     27  C   UNL     1      -5.063   0.009  -7.927  0.00  0.00    +0.047 C 
ATOM     28  H   UNL     1      -4.686   2.832  -7.572  0.00  0.00    +0.152 HD
BRANCH  23  29
ATOM     29  C   UNL     1      -2.738   0.862  -8.241  0.00  0.00    -0.015 A 
ATOM     30  C   UNL     1      -1.738  -0.093  -8.219  0.00  0.00    +0.010 A 
ATOM     31  C   UNL     1      -0.678  -0.005  -9.101  0.00  0.00    +0.046 A 
ATOM     32  C   UNL     1      -0.612   1.048 -10.001  0.00  0.00    +0.120 A 
ATOM     33  C   UNL     1      -1.614   2.008 -10.017  0.00  0.00    +0.046 A 
ATOM     34  C   UNL     1      -2.674   1.913  -9.137  0.00  0.00    +0.010 A 
BRANCH  32  35
ATOM     35  O   UNL     1       0.432   1.140 -10.866  0.00  0.00    -0.495 OA
ATOM     36  C   UNL     1       1.427   0.117 -10.793  0.00  0.00    +0.277 C 
ENDBRANCH  32  35
ENDBRANCH  23  29
ENDBRANCH  19  20
ENDBRANCH   2  19
TORSDOF 9
