REMARK  Name = ZINC39711608
REMARK  8 active torsions:
REMARK  status: ('A' for Active; 'I' for Inactive)
REMARK    1  A    between atoms: C_1  and  C_2
REMARK    2  A    between atoms: C_2  and  C_3
REMARK    3  A    between atoms: C_2  and  C_4
REMARK    4  A    between atoms: C_2  and  N_5
REMARK    5  A    between atoms: C_6  and  C_11
REMARK    6  A    between atoms: C_11  and  C_13
REMARK    7  A    between atoms: C_11  and  N_28
REMARK    8  A    between atoms: N_31  and  C_34
REMARK                            x       y       z     vdW  Elec       q    Type
REMARK                         _______ _______ _______ _____ _____    ______ ____
ROOT
ATOM      1  C   UNL     1       0.701  -1.246   1.715  0.00  0.00    -0.009 C 
ENDROOT
BRANCH   1   2
ATOM      2  C   UNL     1      -0.818  -1.068   1.667  0.00  0.00    +0.088 C 
ATOM      3  C   UNL     1      -1.203  -0.069   2.741  0.00  0.00    -0.006 C 
ATOM      4  C   UNL     1      -2.087  -0.480   3.689  0.00  0.00    -0.003 A 
ATOM      5  C   UNL     1      -2.509   0.424   4.760  0.00  0.00    +0.059 A 
ATOM      6  C   UNL     1      -3.393  -0.017   5.692  0.00  0.00    +0.167 A 
ATOM      7  C   UNL     1      -3.911  -1.329   5.645  0.00  0.00    +0.168 A 
ATOM      8  C   UNL     1      -3.546  -2.219   4.656  0.00  0.00    +0.073 A 
ATOM      9  C   UNL     1      -2.639  -1.847   3.656  0.00  0.00    +0.044 A 
ATOM     10  N   UNL     1      -2.298  -2.723   2.708  0.00  0.00    -0.284 N 
ATOM     11  C   UNL     1      -1.449  -2.440   1.737  0.00  0.00    +0.223 C 
ATOM     12  O   UNL     1      -1.176  -3.281   0.901  0.00  0.00    -0.275 OA
ATOM     13  O   UNL     1      -4.766  -1.488   6.696  0.00  0.00    -0.453 OA
ATOM     14  C   UNL     1      -4.452  -0.427   7.615  0.00  0.00    +0.466 C 
ATOM     15  O   UNL     1      -3.934   0.620   6.775  0.00  0.00    -0.453 OA
ATOM     16  H   UNL     1      -2.692  -3.609   2.734  0.00  0.00    +0.155 HD
ENDBRANCH   1   2
BRANCH   1  17
ATOM     17  N   UNL     1       1.129  -1.431   3.108  0.00  0.00    +0.387 N 
ATOM     18  C   UNL     1       0.714  -0.269   3.904  0.00  0.00    -0.059 C 
ATOM     19  C   UNL     1       1.058  -0.511   5.378  0.00  0.00    +0.086 C 
ATOM     20  N   UNL     1       2.489  -0.835   5.476  0.00  0.00    -0.331 N 
ATOM     21  C   UNL     1       3.025  -1.882   4.592  0.00  0.00    +0.086 C 
ATOM     22  C   UNL     1       2.589  -1.575   3.155  0.00  0.00    -0.059 C 
ATOM     23  H   UNL     1       0.698  -2.263   3.483  0.00  0.00    -0.081 HD
BRANCH  20  24
ATOM     24  C   UNL     1       3.317  -0.167   6.383  0.00  0.00    +0.065 A 
ATOM     25  C   UNL     1       3.489  -0.667   7.667  0.00  0.00    +0.026 A 
ATOM     26  C   UNL     1       4.308  -0.004   8.561  0.00  0.00    +0.002 A 
ATOM     27  C   UNL     1       4.957   1.156   8.180  0.00  0.00    +0.003 A 
ATOM     28  C   UNL     1       4.788   1.658   6.902  0.00  0.00    +0.040 A 
ATOM     29  C   UNL     1       3.975   0.997   6.000  0.00  0.00    +0.144 A 
ATOM     30  F   UNL     1       3.815   1.484   4.750  0.00  0.00    -0.204 F 
ENDBRANCH  20  24
ENDBRANCH   1  17
BRANCH   1  32
ATOM     31  N   UNL     1       0.608  -2.344  -0.496  0.00  0.00    -0.183 NA
ATOM     32  C   UNL     1       1.096  -2.475   0.893  0.00  0.00    +0.205 C 
ATOM     33  N   UNL     1       2.557  -2.560   0.764  0.00  0.00    -0.152 NA
ATOM     34  N   UNL     1       2.856  -2.494  -0.430  0.00  0.00    -0.070 NA
ATOM     35  N   UNL     1       1.744  -2.363  -1.262  0.00  0.00    -0.179 N 
ATOM     36  H   UNL     1       1.771  -2.296  -2.229  0.00  0.00    +0.191 HD
BRANCH  31  38
ATOM     37  C   UNL     1      -0.006  -0.631  -2.134  0.00  0.00    +0.029 C 
ATOM     38  C   UNL     1      -0.129  -1.087  -0.679  0.00  0.00    +0.035 C 
ATOM     39  C   UNL     1       0.454  -0.015   0.243  0.00  0.00    +0.029 C 
ATOM     40  C   UNL     1      -1.605  -1.307  -0.337  0.00  0.00    +0.029 C 
ENDBRANCH  31  38
ENDBRANCH   1  32
TORSDOF 5
