REMARK  Name = ZINC15477128
REMARK  8 active torsions:
REMARK  status: ('A' for Active; 'I' for Inactive)
REMARK    1  A    between atoms: C_3  and  C_6
REMARK    2  A    between atoms: C_6  and  C_8
REMARK    3  A    between atoms: C_6  and  N_70
REMARK    4  A    between atoms: C_8  and  N_9
REMARK    5  A    between atoms: C_10  and  C_12
REMARK    6  A    between atoms: C_12  and  C_13
REMARK    7  A    between atoms: C_13  and  N_14
REMARK    8  A    between atoms: N_17  and  C_18
REMARK                            x       y       z     vdW  Elec       q    Type
REMARK                         _______ _______ _______ _____ _____    ______ ____
ROOT
ATOM      1  N   UNL     1       1.947   1.798  -1.270  0.00  0.00    -0.316 N 
ATOM      2  C   UNL     1       3.064   2.509  -1.519  0.00  0.00    +0.214 C 
ATOM      3  O   UNL     1       3.454   3.328  -0.714  0.00  0.00    -0.276 OA
ATOM      4  H   UNL     1       1.636   1.143  -1.914  0.00  0.00    +0.149 HD
ENDROOT
BRANCH   1   5
ATOM      5  C   UNL     1       1.204   2.013  -0.026  0.00  0.00    +0.096 C 
BRANCH   5   6
ATOM      6  C   UNL     1      -0.013   1.086   0.008  0.00  0.00    +0.016 C 
BRANCH   6  12
ATOM      7  C   UNL     1      -1.224   2.700  -1.328  0.00  0.00    -0.078 C 
ATOM      8  C   UNL     1      -1.937   2.909  -2.666  0.00  0.00    -0.019 C 
ATOM      9  C   UNL     1      -3.166   1.998  -2.732  0.00  0.00    -0.004 C 
ATOM     10  C   UNL     1      -2.724   0.543  -2.548  0.00  0.00    -0.019 C 
ATOM     11  C   UNL     1      -1.988   0.404  -1.213  0.00  0.00    -0.078 C 
ATOM     12  N   UNL     1      -0.803   1.287  -1.224  0.00  0.00    +0.387 N 
ATOM     13  H   UNL     1      -0.220   1.053  -2.036  0.00  0.00    -0.081 HD
ENDBRANCH   6  12
BRANCH   6  16
ATOM     14  C   UNL     1      -1.823   1.285   3.212  0.00  0.00    +0.041 A 
ATOM     15  C   UNL     1      -0.950   0.619   2.322  0.00  0.00    +0.043 A 
ATOM     16  C   UNL     1      -0.844   1.393   1.227  0.00  0.00    +0.093 A 
ATOM     17  O   UNL     1      -1.609   2.482   1.402  0.00  0.00    -0.469 OA
ATOM     18  C   UNL     1      -2.206   2.422   2.604  0.00  0.00    +0.195 A 
ENDBRANCH   6  16
ENDBRANCH   5   6
ENDBRANCH   1   5
BRANCH   2  19
ATOM     19  C   UNL     1       3.829   2.288  -2.799  0.00  0.00    +0.114 C 
BRANCH  19  20
ATOM     20  C   UNL     1       5.046   3.215  -2.833  0.00  0.00    +0.115 C 
BRANCH  20  21
ATOM     21  N   UNL     1       5.789   2.999  -4.077  0.00  0.00    -0.299 N 
ATOM     22  C   UNL     1       6.906   3.711  -4.326  0.00  0.00    +0.300 C 
ATOM     23  O   UNL     1       7.297   4.532  -3.518  0.00  0.00    -0.253 OA
ATOM     24  N   UNL     1       7.590   3.513  -5.470  0.00  0.00    -0.294 N 
ATOM     25  H   UNL     1       5.477   2.345  -4.721  0.00  0.00    +0.150 HD
ATOM     26  H   UNL     1       7.278   2.858  -6.114  0.00  0.00    +0.151 HD
BRANCH  24  27
ATOM     27  C   UNL     1       8.805   4.287  -5.741  0.00  0.00    +0.037 C 
ATOM     28  C   UNL     1       8.464   5.778  -5.767  0.00  0.00    +0.029 C 
ATOM     29  C   UNL     1       9.732   6.586  -6.050  0.00  0.00    -0.008 C 
ATOM     30  C   UNL     1      10.310   6.170  -7.405  0.00  0.00    +0.007 C 
ATOM     31  C   UNL     1      10.650   4.679  -7.379  0.00  0.00    -0.008 C 
ATOM     32  C   UNL     1       9.382   3.871  -7.096  0.00  0.00    +0.029 C 
ATOM     33  C   UNL     1      11.681   4.411  -6.281  0.00  0.00    +0.007 C 
ATOM     34  C   UNL     1      11.104   4.826  -4.926  0.00  0.00    -0.008 C 
ATOM     35  C   UNL     1      10.763   6.317  -4.952  0.00  0.00    +0.007 C 
ATOM     36  C   UNL     1       9.836   4.018  -4.643  0.00  0.00    +0.029 C 
ENDBRANCH  24  27
ENDBRANCH  20  21
ENDBRANCH  19  20
ENDBRANCH   2  19
TORSDOF 8
