REMARK  Name = ZINC64660788
REMARK  7 active torsions:
REMARK  status: ('A' for Active; 'I' for Inactive)
REMARK    1  A    between atoms: C_1  and  C_2
REMARK    2  A    between atoms: C_5  and  N_9
REMARK    3  A    between atoms: C_6  and  C_8
REMARK    4  A    between atoms: C_10  and  C_12
REMARK    5  A    between atoms: C_12  and  N_13
REMARK    6  A    between atoms: C_16  and  C_30
REMARK    7  A    between atoms: C_17  and  C_29
REMARK                            x       y       z     vdW  Elec       q    Type
REMARK                         _______ _______ _______ _____ _____    ______ ____
ROOT
ATOM      1  N   UNL     1       0.393  -6.814  -2.571  0.00  0.00    -0.257 N 
ATOM      2  C   UNL     1       1.684  -7.141  -3.020  0.00  0.00    +0.058 A 
ATOM      3  C   UNL     1       2.640  -6.948  -2.040  0.00  0.00    +0.029 A 
ATOM      4  C   UNL     1       3.970  -7.222  -2.312  0.00  0.00    -0.046 A 
ATOM      5  C   UNL     1       4.342  -7.686  -3.560  0.00  0.00    -0.046 A 
ATOM      6  C   UNL     1       3.389  -7.882  -4.544  0.00  0.00    +0.028 A 
ATOM      7  C   UNL     1       2.057  -7.611  -4.278  0.00  0.00    +0.053 A 
ATOM      8  N   UNL     1       1.238  -7.869  -5.386  0.00  0.00    -0.316 N 
ATOM      9  C   UNL     1      -0.123  -7.728  -5.509  0.00  0.00    +0.016 C 
ATOM     10  C   UNL     1      -0.835  -8.068  -6.802  0.00  0.00    +0.051 C 
ATOM     11  C   UNL     1      -2.323  -8.205  -6.416  0.00  0.00    +0.011 C 
ATOM     12  C   UNL     1      -2.410  -7.306  -5.165  0.00  0.00    +0.042 C 
ATOM     13  C   UNL     1      -1.009  -7.299  -4.586  0.00  0.00    +0.032 C 
ATOM     14  H   UNL     1       1.696  -8.191  -6.178  0.00  0.00    +0.152 HD
ATOM     15  C   UNL     1      -0.767  -6.888  -3.250  0.00  0.00    +0.249 C 
ATOM     16  O   UNL     1      -1.755  -6.546  -2.626  0.00  0.00    -0.270 OA
ATOM     17  C   UNL     1       5.791  -7.980  -3.849  0.00  0.00    +0.044 C 
ATOM     18  C   UNL     1       5.014  -7.012  -1.246  0.00  0.00    +0.044 C 
ENDROOT
BRANCH   1  19
ATOM     19  C   UNL     1       0.296  -6.337  -1.189  0.00  0.00    +0.210 C 
BRANCH  19  21
ATOM     20  N   UNL     1       0.168  -7.319   1.077  0.00  0.00    -0.284 N 
ATOM     21  C   UNL     1       0.256  -7.517  -0.253  0.00  0.00    +0.235 C 
ATOM     22  O   UNL     1       0.303  -8.645  -0.696  0.00  0.00    -0.274 OA
ATOM     23  H   UNL     1       0.076  -6.420   1.429  0.00  0.00    +0.155 HD
BRANCH  20  28
ATOM     24  C   UNL     1       0.331 -11.746   4.621  0.00  0.00    +0.044 C 
ATOM     25  C   UNL     1       0.288 -10.570   3.680  0.00  0.00    -0.050 A 
ATOM     26  C   UNL     1      -0.250 -10.719   2.414  0.00  0.00    +0.005 A 
ATOM     27  C   UNL     1      -0.292  -9.643   1.549  0.00  0.00    +0.024 A 
ATOM     28  C   UNL     1       0.208  -8.411   1.952  0.00  0.00    +0.036 A 
ATOM     29  C   UNL     1       0.747  -8.265   3.223  0.00  0.00    -0.029 A 
ATOM     30  C   UNL     1       0.781  -9.344   4.085  0.00  0.00    +0.008 A 
ATOM     31  C   UNL     1       1.290  -6.930   3.663  0.00  0.00    +0.045 C 
ENDBRANCH  20  28
ENDBRANCH  19  21
ENDBRANCH   1  19
TORSDOF 3
