REMARK  Name = ZINC06300907
REMARK  13 active torsions:
REMARK  status: ('A' for Active; 'I' for Inactive)
REMARK    1  A    between atoms: C_1  and  C_2
REMARK    2  A    between atoms: C_4  and  C_39
REMARK    3  A    between atoms: C_9  and  C_14
REMARK    4  A    between atoms: C_14  and  C_16
REMARK    5  A    between atoms: C_14  and  N_69
REMARK    6  A    between atoms: N_20  and  C_21
REMARK    7  A    between atoms: C_21  and  C_22
REMARK    8  A    between atoms: C_21  and  C_23
REMARK    9  A    between atoms: C_21  and  C_24
REMARK   10  A    between atoms: C_25  and  C_26
REMARK   11  A    between atoms: C_25  and  N_69
REMARK   12  A    between atoms: C_33  and  C_34
REMARK   13  A    between atoms: C_33  and  N_69
REMARK                            x       y       z     vdW  Elec       q    Type
REMARK                         _______ _______ _______ _____ _____    ______ ____
ROOT
ATOM      1  C   UNL     1       1.562   3.465  -0.237  0.00  0.00    +0.040 C 
ENDROOT
BRANCH   1  10
ATOM      2  C   UNL     1      -1.723  -2.735  -2.765  0.00  0.00    +0.044 C 
ATOM      3  C   UNL     1      -0.568  -2.041  -2.090  0.00  0.00    -0.050 A 
ATOM      4  C   UNL     1       0.521  -2.784  -1.654  0.00  0.00    +0.008 A 
ATOM      5  C   UNL     1       1.588  -2.171  -1.034  0.00  0.00    -0.026 A 
ATOM      6  C   UNL     1       1.575  -0.793  -0.841  0.00  0.00    +0.052 A 
ATOM      7  C   UNL     1       0.470  -0.043  -1.284  0.00  0.00    -0.001 A 
ATOM      8  C   UNL     1      -0.602  -0.687  -1.912  0.00  0.00    +0.013 A 
ATOM      9  C   UNL     1       0.466   1.406  -1.078  0.00  0.00    +0.017 A 
ATOM     10  C   UNL     1       1.533   1.975  -0.464  0.00  0.00    +0.011 A 
ATOM     11  C   UNL     1       2.617   1.178  -0.039  0.00  0.00    +0.251 A 
ATOM     12  O   UNL     1       3.566   1.710   0.510  0.00  0.00    -0.268 OA
ATOM     13  N   UNL     1       2.629  -0.153  -0.225  0.00  0.00    -0.322 N 
ATOM     14  H   UNL     1       3.391  -0.672   0.080  0.00  0.00    +0.169 HD
ATOM     15  C   UNL     1       2.763  -2.990  -0.566  0.00  0.00    +0.046 C 
ENDBRANCH   1  10
BRANCH   1  16
ATOM     16  C   UNL     1       2.631   4.084  -1.099  0.00  0.00    +0.143 A 
ATOM     17  N   UNL     1       3.924   3.898  -0.996  0.00  0.00    -0.115 NA
ATOM     18  N   UNL     1       4.501   4.598  -1.912  0.00  0.00    -0.023 NA
ATOM     19  N   UNL     1       3.610   5.231  -2.591  0.00  0.00    -0.043 NA
ATOM     20  N   UNL     1       2.444   4.941  -2.120  0.00  0.00    -0.225 N 
BRANCH  20  21
ATOM     21  C   UNL     1       1.158   5.448  -2.606  0.00  0.00    +0.059 C 
ATOM     22  C   UNL     1       0.476   6.254  -1.499  0.00  0.00    +0.036 C 
ATOM     23  C   UNL     1       1.391   6.347  -3.822  0.00  0.00    +0.036 C 
ATOM     24  C   UNL     1       0.265   4.272  -3.006  0.00  0.00    +0.036 C 
ENDBRANCH  20  21
ENDBRANCH   1  16
BRANCH   1  25
ATOM     25  N   UNL     1       1.875   3.722   1.185  0.00  0.00    +0.397 N 
ATOM     26  H   UNL     1       2.667   3.132   1.464  0.00  0.00    -0.079 HD
BRANCH  25  27
ATOM     27  C   UNL     1       0.708   3.388   2.028  0.00  0.00    -0.039 C 
BRANCH  27  28
ATOM     28  C   UNL     1       0.652   1.892   2.203  0.00  0.00    -0.046 A 
ATOM     29  C   UNL     1      -0.356   1.162   1.601  0.00  0.00    +0.003 A 
ATOM     30  C   UNL     1      -0.405  -0.210   1.759  0.00  0.00    +0.000 A 
ATOM     31  C   UNL     1       0.549  -0.853   2.526  0.00  0.00    +0.001 A 
ATOM     32  C   UNL     1       1.555  -0.124   3.132  0.00  0.00    +0.020 A 
ATOM     33  C   UNL     1       1.607   1.249   2.971  0.00  0.00    +0.042 A 
ATOM     34 CL   UNL     1       2.869   2.166   3.732  0.00  0.00    -0.083 Cl
ENDBRANCH  27  28
ENDBRANCH  25  27
BRANCH  25  35
ATOM     35  C   UNL     1       2.243   5.141   1.372  0.00  0.00    -0.001 C 
BRANCH  35  36
ATOM     36  C   UNL     1       2.873   5.303   2.731  0.00  0.00    +0.089 A 
ATOM     37  C   UNL     1       4.191   5.249   2.998  0.00  0.00    +0.042 A 
ATOM     38  C   UNL     1       4.335   5.451   4.390  0.00  0.00    +0.041 A 
ATOM     39  C   UNL     1       3.097   5.615   4.890  0.00  0.00    +0.195 A 
ATOM     40  O   UNL     1       2.216   5.530   3.880  0.00  0.00    -0.470 OA
ENDBRANCH  35  36
ENDBRANCH  25  35
ENDBRANCH   1  25
TORSDOF 8
