REMARK  Name = ZINC12897870
REMARK  4 active torsions:
REMARK  status: ('A' for Active; 'I' for Inactive)
REMARK    1  A    between atoms: C_1  and  C_2
REMARK    2  A    between atoms: C_2  and  C_22
REMARK    3  A    between atoms: N_5  and  C_9
REMARK    4  A    between atoms: C_9  and  C_10
REMARK                            x       y       z     vdW  Elec       q    Type
REMARK                         _______ _______ _______ _____ _____    ______ ____
ROOT
ATOM      1  C   UNL     1      -1.220   1.748   0.017  0.00  0.00    -0.025 A 
ATOM      2  C   UNL     1      -1.247   3.132   0.031  0.00  0.00    +0.054 A 
ATOM      3  C   UNL     1      -0.058   3.842   0.024  0.00  0.00    +0.164 A 
ATOM      4  C   UNL     1       1.155   3.167   0.008  0.00  0.00    +0.180 A 
ATOM      5  C   UNL     1       1.178   1.782   0.000  0.00  0.00    +0.086 A 
ATOM      6  C   UNL     1      -0.013   1.076   0.008  0.00  0.00    +0.029 A 
ATOM      7 CL   UNL     1       2.694   0.936  -0.018  0.00  0.00    -0.080 Cl
ATOM      8  O   UNL     1       2.321   3.876  -0.001  0.00  0.00    -0.487 OA
ATOM      9  C   UNL     1       2.620   4.601   1.194  0.00  0.00    +0.232 C 
ATOM     10  C   UNL     1       1.927   5.954   1.192  0.00  0.00    +0.082 C 
ATOM     11  C   UNL     1       0.412   5.829   1.224  0.00  0.00    +0.232 C 
ATOM     12  O   UNL     1      -0.070   5.206   0.032  0.00  0.00    -0.488 OA
ENDROOT
BRANCH   1  13
ATOM     13  C   UNL     1      -2.512   0.972   0.018  0.00  0.00    +0.153 C 
BRANCH  13  18
ATOM     14  C   UNL     1      -2.157  -0.151   4.566  0.00  0.00    +0.041 C 
ATOM     15  C   UNL     1      -3.217  -0.220   3.465  0.00  0.00    +0.107 C 
ATOM     16  C   UNL     1      -2.568  -0.380   2.104  0.00  0.00    +0.246 C 
ATOM     17  O   UNL     1      -1.871  -1.298   1.728  0.00  0.00    -0.273 OA
ATOM     18  N   UNL     1      -2.924   0.713   1.400  0.00  0.00    -0.220 N 
ATOM     19  C   UNL     1      -3.706   1.528   2.117  0.00  0.00    +0.310 C 
ATOM     20  O   UNL     1      -4.158   2.575   1.695  0.00  0.00    -0.252 OA
ATOM     21  N   UNL     1      -3.937   1.060   3.357  0.00  0.00    -0.285 N 
ATOM     22  C   UNL     1      -4.194  -1.367   3.732  0.00  0.00    +0.041 C 
ATOM     23  H   UNL     1      -4.473   1.483   4.045  0.00  0.00    +0.151 HD
ENDBRANCH  13  18
ENDBRANCH   1  13
TORSDOF 2
