REMARK  Name = ZINC39926755
REMARK  7 active torsions:
REMARK  status: ('A' for Active; 'I' for Inactive)
REMARK    1  A    between atoms: C_1  and  C_2
REMARK    2  A    between atoms: C_2  and  N_3
REMARK    3  A    between atoms: C_4  and  S_18
REMARK    4  A    between atoms: C_13  and  C_17
REMARK    5  A    between atoms: C_14  and  C_16
REMARK    6  A    between atoms: S_18  and  C_19
REMARK    7  A    between atoms: C_19  and  C_20
REMARK                            x       y       z     vdW  Elec       q    Type
REMARK                         _______ _______ _______ _____ _____    ______ ____
ROOT
ATOM      1  N   UNL     1       0.711  -0.489   1.189  0.00  0.00    -0.277 N 
ATOM      2  C   UNL     1       2.147  -0.695   1.105  0.00  0.00    +0.205 C 
ATOM      3  N   UNL     1       2.650  -1.547   2.168  0.00  0.00    -0.277 NA
ATOM      4  C   UNL     1       2.154  -1.239   3.499  0.00  0.00    +0.134 C 
ATOM      5  C   UNL     1       0.616  -1.239   3.552  0.00  0.00    +0.129 C 
ATOM      6  C   UNL     1       0.009  -0.718   2.303  0.00  0.00    +0.227 C 
ATOM      7  O   UNL     1      -1.181  -0.481   2.293  0.00  0.00    -0.275 OA
ATOM      8  C   UNL     1       0.081  -2.591   3.890  0.00  0.00    -0.049 C 
ATOM      9  C   UNL     1       0.881  -3.486   4.442  0.00  0.00    -0.016 C 
ATOM     10  S   UNL     1       2.491  -2.685   4.595  0.00  0.00    -0.110 S 
ATOM     11  C   UNL     1       0.522  -4.888   4.861  0.00  0.00    +0.051 C 
ATOM     12  C   UNL     1      -1.359  -2.932   3.604  0.00  0.00    +0.041 C 
ATOM     13  H   UNL     1       2.510  -2.522   1.946  0.00  0.00    +0.126 HD
ENDROOT
BRANCH   1  15
ATOM     14  C   UNL     1      -0.019   1.526   0.010  0.00  0.00    +0.024 C 
ATOM     15  C   UNL     1       0.002  -0.004   0.002  0.00  0.00    +0.107 C 
ENDBRANCH   1  15
BRANCH   2  16
ATOM     16  S   UNL     1       2.537  -1.462  -0.492  0.00  0.00    -0.115 S 
BRANCH  16  17
ATOM     17  C   UNL     1       1.616  -3.024  -0.466  0.00  0.00    +0.146 C 
BRANCH  17  18
ATOM     18  C   UNL     1       1.856  -3.770  -1.754  0.00  0.00    +0.118 A 
ATOM     19  N   UNL     1       2.814  -4.628  -1.950  0.00  0.00    -0.232 NA
ATOM     20  C   UNL     1       2.740  -5.112  -3.217  0.00  0.00    +0.089 A 
ATOM     21  C   UNL     1       3.499  -6.036  -3.941  0.00  0.00    +0.030 A 
ATOM     22  C   UNL     1       3.166  -6.324  -5.235  0.00  0.00    +0.002 A 
ATOM     23  C   UNL     1       2.081  -5.708  -5.840  0.00  0.00    +0.002 A 
ATOM     24  C   UNL     1       1.318  -4.793  -5.145  0.00  0.00    +0.028 A 
ATOM     25  C   UNL     1       1.640  -4.489  -3.830  0.00  0.00    +0.066 A 
ATOM     26  N   UNL     1       1.098  -3.650  -2.877  0.00  0.00    -0.341 N 
ATOM     27  H   UNL     1       0.322  -3.078  -2.989  0.00  0.00    +0.167 HD
ENDBRANCH  17  18
ENDBRANCH  16  17
ENDBRANCH   2  16
TORSDOF 4
