REMARK  Name = ZINC32126592
REMARK  4 active torsions:
REMARK  status: ('A' for Active; 'I' for Inactive)
REMARK    1  A    between atoms: C_3  and  C_8
REMARK    2  A    between atoms: C_11  and  C_13
REMARK    3  A    between atoms: N_15  and  C_16
REMARK    4  A    between atoms: C_16  and  N_18
REMARK                            x       y       z     vdW  Elec       q    Type
REMARK                         _______ _______ _______ _____ _____    ______ ____
ROOT
ATOM      1  C   UNL     1       1.491   8.582   0.037  0.00  0.00    +0.285 C 
ATOM      2  O   UNL     1       1.014   9.701   0.048  0.00  0.00    -0.266 OA
ATOM      3  N   UNL     1       2.829   8.419   0.024  0.00  0.00    -0.260 N 
ATOM      4  H   UNL     1       3.260   7.407   0.014  0.00  0.00    +0.157 HD
ENDROOT
BRANCH   1   8
ATOM      5  C   UNL     1      -0.071   5.322   0.032  0.00  0.00    +0.136 A 
ATOM      6  C   UNL     1      -1.192   6.103   0.047  0.00  0.00    +0.050 A 
ATOM      7  C   UNL     1      -0.767   7.434   0.051  0.00  0.00    +0.055 A 
ATOM      8  C   UNL     1       0.612   7.411   0.038  0.00  0.00    +0.190 A 
ATOM      9  O   UNL     1       1.009   6.121   0.032  0.00  0.00    -0.450 OA
BRANCH   5  12
ATOM     10  C   UNL     1      -1.222   1.748   0.017  0.00  0.00    +0.002 A 
ATOM     11  C   UNL     1      -1.248   3.127   0.031  0.00  0.00    +0.011 A 
ATOM     12  C   UNL     1      -0.050   3.846   0.023  0.00  0.00    +0.019 A 
ATOM     13  C   UNL     1       1.167   3.162   0.008  0.00  0.00    +0.031 A 
ATOM     14  C   UNL     1       1.179   1.782   0.000  0.00  0.00    +0.042 A 
ATOM     15  C   UNL     1      -0.013   1.076   0.008  0.00  0.00    +0.020 A 
ATOM     16 CL   UNL     1       2.691   0.929  -0.018  0.00  0.00    -0.084 Cl
ENDBRANCH   5  12
ENDBRANCH   1   8
BRANCH   3  17
ATOM     17  C   UNL     1       3.639   9.496   0.023  0.00  0.00    +0.163 C 
ATOM     18  S   UNL     1       2.968  11.072   0.039  0.00  0.00    -0.016 S 
BRANCH  17  19
ATOM     19  N   UNL     1       4.977   9.334   0.010  0.00  0.00    -0.169 NA
ATOM     20  C   UNL     1       5.809  10.441   0.009  0.00  0.00    +0.163 A 
ATOM     21  N   UNL     1       7.120  10.485  -0.003  0.00  0.00    -0.334 N 
ATOM     22  C   UNL     1       7.808  11.648  -0.002  0.00  0.00    +0.075 A 
ATOM     23  C   UNL     1       7.023  12.823   0.012  0.00  0.00    +0.040 A 
ATOM     24  S   UNL     1       5.369  12.173   0.015  0.00  0.00    -0.052 S 
ATOM     25  C   UNL     1       7.571  14.081   0.014  0.00  0.00    +0.019 A 
ATOM     26  C   UNL     1       8.947  14.227   0.002  0.00  0.00    +0.022 A 
ATOM     27  C   UNL     1       9.750  13.095  -0.012  0.00  0.00    +0.061 A 
ATOM     28  C   UNL     1       9.210  11.833  -0.014  0.00  0.00    +0.084 A 
ATOM     29 CL   UNL     1      10.259  10.450  -0.032  0.00  0.00    -0.080 Cl
ATOM     30 CL   UNL     1      11.476  13.280  -0.027  0.00  0.00    -0.082 Cl
ATOM     31  H   UNL     1       7.702   9.551  -0.014  0.00  0.00    +0.168 HD
ENDBRANCH  17  19
ENDBRANCH   3  17
TORSDOF 4
