REMARK  Name = ZINC38684169
REMARK  14 active torsions:
REMARK  status: ('A' for Active; 'I' for Inactive)
REMARK    1  A    between atoms: C_1  and  C_2
REMARK    2  A    between atoms: C_2  and  C_3
REMARK    3  A    between atoms: C_2  and  C_4
REMARK    4  A    between atoms: C_4  and  O_5
REMARK    5  A    between atoms: O_5  and  C_6
REMARK    6  A    between atoms: C_9  and  C_14
REMARK    7  A    between atoms: C_11  and  O_12
REMARK    8  A    between atoms: O_12  and  C_13
REMARK    9  A    between atoms: C_19  and  O_28
REMARK   10  A    between atoms: C_23  and  N_27
REMARK   11  A    between atoms: C_24  and  C_25
REMARK   12  A    between atoms: O_28  and  C_29
REMARK   13  A    between atoms: C_29  and  C_31
REMARK   14  A    between atoms: C_34  and  N_37
REMARK                            x       y       z     vdW  Elec       q    Type
REMARK                         _______ _______ _______ _____ _____    ______ ____
ROOT
ATOM      1  C   UNL     1      -7.452  -1.799  -1.888  0.00  0.00    +0.098 C 
ATOM      2  C   UNL     1      -7.519  -3.302  -1.818  0.00  0.00    +0.008 A 
ATOM      3  C   UNL     1      -7.216  -4.049  -2.942  0.00  0.00    +0.012 A 
ATOM      4  C   UNL     1      -7.272  -5.428  -2.896  0.00  0.00    +0.047 A 
ATOM      5  C   UNL     1      -7.633  -6.069  -1.719  0.00  0.00    +0.135 A 
ATOM      6  C   UNL     1      -7.937  -5.324  -0.592  0.00  0.00    +0.093 A 
ATOM      7  C   UNL     1      -7.880  -3.937  -0.640  0.00  0.00    +0.138 A 
ATOM      8  O   UNL     1      -8.180  -3.221   0.472  0.00  0.00    -0.441 OA
ATOM      9  C   UNL     1      -8.509  -1.923   0.366  0.00  0.00    +0.199 C 
ATOM     10  C   UNL     1      -8.192  -1.195  -0.727  0.00  0.00    +0.098 C 
ENDROOT
BRANCH   1  14
ATOM     11  C   UNL     1      -3.362  -0.558  -1.758  0.00  0.00    +0.162 A 
ATOM     12  C   UNL     1      -3.904  -1.277  -0.706  0.00  0.00    +0.050 A 
ATOM     13  C   UNL     1      -5.227  -1.677  -0.750  0.00  0.00    +0.008 A 
ATOM     14  C   UNL     1      -6.011  -1.361  -1.844  0.00  0.00    -0.031 A 
ATOM     15  C   UNL     1      -5.476  -0.644  -2.898  0.00  0.00    +0.054 A 
ATOM     16  C   UNL     1      -4.153  -0.235  -2.857  0.00  0.00    +0.162 A 
BRANCH  16  17
ATOM     17  O   UNL     1      -3.627   0.475  -3.890  0.00  0.00    -0.491 OA
ATOM     18  C   UNL     1      -4.497   0.771  -4.984  0.00  0.00    +0.277 C 
ENDBRANCH  16  17
BRANCH  11  19
ATOM     19  O   UNL     1      -2.061  -0.164  -1.716  0.00  0.00    -0.488 OA
BRANCH  19  20
ATOM     20  C   UNL     1      -1.310  -0.531  -0.557  0.00  0.00    +0.232 C 
BRANCH  20  22
ATOM     21  C   UNL     1       0.102   1.526  -0.692  0.00  0.00    +0.010 C 
ATOM     22  C   UNL     1       0.121  -0.004  -0.689  0.00  0.00    +0.020 C 
ATOM     23  C   UNL     1       0.959  -0.502   0.490  0.00  0.00    +0.010 C 
ENDBRANCH  20  22
ENDBRANCH  19  20
ENDBRANCH  11  19
ENDBRANCH   1  14
BRANCH   9  24
ATOM     24  N   UNL     1      -9.186  -1.321   1.397  0.00  0.00    -0.328 N 
ATOM     25  H   UNL     1      -9.419  -1.831   2.188  0.00  0.00    +0.145 HD
ATOM     26  H   UNL     1      -9.430  -0.384   1.334  0.00  0.00    +0.145 HD
ENDBRANCH   9  24
BRANCH  10  27
ATOM     27  C   UNL     1      -8.570   0.186  -0.779  0.00  0.00    +0.101 C 
ATOM     28  N   UNL     1      -8.870   1.280  -0.819  0.00  0.00    -0.191 NA
ENDBRANCH  10  27
BRANCH   5  29
ATOM     29  O   UNL     1      -7.689  -7.426  -1.673  0.00  0.00    -0.422 OA
BRANCH  29  30
ATOM     30  C   UNL     1      -6.530  -8.110  -1.746  0.00  0.00    +0.344 C 
ATOM     31  O   UNL     1      -5.472  -7.513  -1.744  0.00  0.00    -0.245 OA
BRANCH  30  32
ATOM     32  C   UNL     1      -6.546  -9.585  -1.827  0.00  0.00    +0.060 A 
ATOM     33  C   UNL     1      -7.761 -10.273  -1.836  0.00  0.00    +0.017 A 
ATOM     34  C   UNL     1      -7.769 -11.651  -1.912  0.00  0.00    +0.033 A 
ATOM     35  C   UNL     1      -6.577 -12.350  -1.980  0.00  0.00    +0.126 A 
ATOM     36  C   UNL     1      -5.370 -11.674  -1.972  0.00  0.00    +0.033 A 
ATOM     37  C   UNL     1      -5.347 -10.296  -1.903  0.00  0.00    +0.017 A 
BRANCH  35  38
ATOM     38  N   UNL     1      -6.593 -13.828  -2.061  0.00  0.00    +0.056 N 
ATOM     39  O   UNL     1      -7.647 -14.421  -2.068  0.00  0.00    -0.126 OA
ATOM     40  O   UNL     1      -5.553 -14.441  -2.121  0.00  0.00    -0.126 OA
ENDBRANCH  35  38
ENDBRANCH  30  32
ENDBRANCH  29  30
ENDBRANCH   5  29
TORSDOF 11
