REMARK  Name = ZINC39969474
REMARK  12 active torsions:
REMARK  status: ('A' for Active; 'I' for Inactive)
REMARK    1  A    between atoms: C_1  and  C_2
REMARK    2  A    between atoms: C_2  and  O_3
REMARK    3  A    between atoms: O_3  and  C_4
REMARK    4  A    between atoms: C_4  and  C_6
REMARK    5  A    between atoms: C_7  and  C_38
REMARK    6  A    between atoms: C_8  and  C_29
REMARK    7  A    between atoms: C_10  and  N_13
REMARK    8  A    between atoms: C_14  and  C_16
REMARK    9  A    between atoms: C_16  and  S_17
REMARK   10  A    between atoms: S_17  and  C_18
REMARK   11  A    between atoms: C_21  and  C_24
REMARK   12  A    between atoms: N_31  and  C_32
REMARK                            x       y       z     vdW  Elec       q    Type
REMARK                         _______ _______ _______ _____ _____    ______ ____
ROOT
ATOM      1  C   UNL     1       1.241  -2.620  -2.891  0.00  0.00    +0.093 C 
ATOM      2  C   UNL     1       1.722  -3.823  -3.211  0.00  0.00    -0.038 C 
ATOM      3  C   UNL     1       2.658  -3.956  -4.369  0.00  0.00    +0.133 C 
ATOM      4  C   UNL     1       2.568  -2.717  -5.298  0.00  0.00    +0.152 C 
ATOM      5  S   UNL     1       1.931  -1.488  -4.084  0.00  0.00    -0.095 S 
ATOM      6  C   UNL     1       1.326  -5.038  -2.412  0.00  0.00    +0.041 C 
ENDROOT
BRANCH   4   7
ATOM      7  N   UNL     1       1.613  -2.932  -6.388  0.00  0.00    -0.302 N 
ATOM      8  C   UNL     1       0.915  -1.893  -6.888  0.00  0.00    +0.224 C 
ATOM      9  O   UNL     1       1.078  -0.779  -6.435  0.00  0.00    -0.275 OA
ATOM     10  H   UNL     1       1.483  -3.823  -6.750  0.00  0.00    +0.150 HD
BRANCH   8  11
ATOM     11  C   UNL     1      -0.067  -2.115  -8.009  0.00  0.00    +0.173 C 
BRANCH  11  12
ATOM     12  S   UNL     1      -0.839  -0.535  -8.457  0.00  0.00    -0.077 S 
BRANCH  12  13
ATOM     13  C   UNL     1      -1.945  -0.957  -9.762  0.00  0.00    +0.185 A 
ATOM     14  N   UNL     1      -2.129  -2.160 -10.260  0.00  0.00    -0.198 NA
ATOM     15  H   UNL     1      -2.839   0.853 -10.271  0.00  0.00    +0.191 HD
ATOM     16  C   UNL     1      -3.045  -2.108 -11.240  0.00  0.00    +0.217 A 
ATOM     17  N   UNL     1      -3.452  -0.864 -11.375  0.00  0.00    -0.148 NA
ATOM     18  N   UNL     1      -2.756  -0.101 -10.423  0.00  0.00    -0.253 N 
BRANCH  16  19
ATOM     19  C   UNL     1      -3.517  -3.259 -12.038  0.00  0.00    +0.173 A 
ATOM     20  C   UNL     1      -4.440  -3.212 -13.036  0.00  0.00    +0.053 A 
ATOM     21  C   UNL     1      -4.585  -4.530 -13.516  0.00  0.00    +0.042 A 
ATOM     22  C   UNL     1      -3.753  -5.306 -12.795  0.00  0.00    +0.196 A 
ATOM     23  O   UNL     1      -3.105  -4.534 -11.907  0.00  0.00    -0.460 OA
ENDBRANCH  16  19
ENDBRANCH  12  13
ENDBRANCH  11  12
ENDBRANCH   8  11
ENDBRANCH   4   7
BRANCH   3  24
ATOM     24  C   UNL     1       2.301  -5.190  -5.156  0.00  0.00    +0.227 C 
ATOM     25  O   UNL     1       1.140  -5.519  -5.274  0.00  0.00    -0.275 OA
ATOM     26  N   UNL     1       3.273  -5.928  -5.729  0.00  0.00    -0.285 N 
ATOM     27  H   UNL     1       4.205  -5.706  -5.577  0.00  0.00    +0.155 HD
BRANCH  26  28
ATOM     28  C   UNL     1       2.937  -7.014  -6.545  0.00  0.00    +0.033 A 
ATOM     29  C   UNL     1       3.723  -7.327  -7.646  0.00  0.00    +0.023 A 
ATOM     30  C   UNL     1       3.389  -8.400  -8.449  0.00  0.00    +0.002 A 
ATOM     31  C   UNL     1       2.273  -9.163  -8.157  0.00  0.00    +0.000 A 
ATOM     32  C   UNL     1       1.488  -8.854  -7.061  0.00  0.00    +0.002 A 
ATOM     33  C   UNL     1       1.821  -7.786  -6.251  0.00  0.00    +0.023 A 
ENDBRANCH  26  28
ENDBRANCH   3  24
BRANCH   1  34
ATOM     34  C   UNL     1       0.323  -2.295  -1.783  0.00  0.00    +0.346 C 
ATOM     35  O   UNL     1      -0.150  -3.185  -1.105  0.00  0.00    -0.244 OA
BRANCH  34  36
ATOM     36  O   UNL     1       0.011  -1.010  -1.522  0.00  0.00    -0.461 OA
BRANCH  36  38
ATOM     37  C   UNL     1      -1.119   0.737  -0.293  0.00  0.00    +0.048 C 
ATOM     38  C   UNL     1      -0.884  -0.768  -0.435  0.00  0.00    +0.229 C 
ENDBRANCH  36  38
ENDBRANCH  34  36
ENDBRANCH   1  34
TORSDOF 10
