REMARK  Name = ZINC34748980
REMARK  9 active torsions:
REMARK  status: ('A' for Active; 'I' for Inactive)
REMARK    1  A    between atoms: C_1  and  C_2
REMARK    2  A    between atoms: C_2  and  C_3
REMARK    3  A    between atoms: C_3  and  N_4
REMARK    4  A    between atoms: C_14  and  C_18
REMARK    5  A    between atoms: C_15  and  C_17
REMARK    6  A    between atoms: C_18  and  C_19
REMARK    7  A    between atoms: N_22  and  C_23
REMARK    8  A    between atoms: C_23  and  C_24
REMARK    9  A    between atoms: N_26  and  C_27
REMARK                            x       y       z     vdW  Elec       q    Type
REMARK                         _______ _______ _______ _____ _____    ______ ____
ROOT
ATOM      1  N   UNL     1      -0.156  -2.774  -0.163  0.00  0.00    +0.382 N 
ATOM      2  C   UNL     1       0.077  -4.209  -0.370  0.00  0.00    -0.060 C 
ATOM      3  C   UNL     1      -1.265  -4.948  -0.375  0.00  0.00    +0.089 C 
ATOM      4  N   UNL     1      -1.981  -4.622   0.868  0.00  0.00    -0.304 N 
ATOM      5  C   UNL     1      -2.119  -3.205   1.238  0.00  0.00    +0.089 C 
ATOM      6  C   UNL     1      -0.737  -2.548   1.167  0.00  0.00    -0.060 C 
ATOM      7  C   UNL     1      -2.507  -5.613   1.659  0.00  0.00    +0.202 A 
ATOM      8  N   UNL     1      -1.767  -6.146   2.609  0.00  0.00    -0.208 NA
ATOM      9  C   UNL     1      -2.249  -7.106   3.391  0.00  0.00    +0.117 A 
ATOM     10  C   UNL     1      -3.560  -7.598   3.248  0.00  0.00    +0.076 A 
ATOM     11  C   UNL     1      -3.926  -8.646   4.184  0.00  0.00    -0.023 A 
ATOM     12  C   UNL     1      -3.027  -9.060   5.088  0.00  0.00    -0.007 A 
ATOM     13  S   UNL     1      -1.597  -8.054   4.741  0.00  0.00    -0.073 S 
ATOM     14  C   UNL     1      -3.187 -10.123   6.145  0.00  0.00    +0.052 C 
ATOM     15  C   UNL     1      -4.338  -6.999   2.207  0.00  0.00    +0.264 A 
ATOM     16  O   UNL     1      -5.486  -7.361   2.009  0.00  0.00    -0.267 OA
ATOM     17  N   UNL     1      -3.790  -6.027   1.455  0.00  0.00    -0.271 N 
ATOM     18  H   UNL     1      -0.792  -2.434  -0.869  0.00  0.00    -0.082 HD
ENDROOT
BRANCH  11  19
ATOM     19  C   UNL     1      -5.302  -9.260   4.140  0.00  0.00    +0.033 C 
ATOM     20  C   UNL     1      -5.293 -10.464   3.196  0.00  0.00    +0.009 C 
ENDBRANCH  11  19
BRANCH   1  21
ATOM     21  C   UNL     1       1.119  -2.052  -0.268  0.00  0.00    -0.079 C 
BRANCH  21  23
ATOM     22  C   UNL     1       2.992  -1.431  -1.800  0.00  0.00    +0.002 C 
ATOM     23  C   UNL     1       1.664  -2.183  -1.691  0.00  0.00    -0.022 C 
ENDBRANCH  21  23
ENDBRANCH   1  21
BRANCH  17  24
ATOM     24  C   UNL     1      -4.585  -5.406   0.393  0.00  0.00    +0.223 C 
BRANCH  24  25
ATOM     25  C   UNL     1      -4.464  -6.223  -0.868  0.00  0.00    +0.233 C 
ATOM     26  O   UNL     1      -3.781  -7.225  -0.878  0.00  0.00    -0.274 OA
ATOM     27  N   UNL     1      -5.115  -5.840  -1.984  0.00  0.00    -0.311 N 
ATOM     28  H   UNL     1      -5.661  -5.038  -1.976  0.00  0.00    +0.149 HD
BRANCH  27  29
ATOM     29  C   UNL     1      -4.998  -6.634  -3.210  0.00  0.00    +0.073 C 
ATOM     30  C   UNL     1      -6.021  -7.771  -3.180  0.00  0.00    +0.022 C 
ATOM     31  C   UNL     1      -5.898  -8.601  -4.460  0.00  0.00    +0.002 C 
ATOM     32  C   UNL     1      -6.163  -7.708  -5.674  0.00  0.00    +0.000 C 
ATOM     33  C   UNL     1      -5.140  -6.571  -5.703  0.00  0.00    +0.002 C 
ATOM     34  C   UNL     1      -5.263  -5.741  -4.423  0.00  0.00    +0.022 C 
ENDBRANCH  27  29
ENDBRANCH  24  25
ENDBRANCH  17  24
TORSDOF 6
