REMARK  Name = ZINC14467053
REMARK  3 active torsions:
REMARK  status: ('A' for Active; 'I' for Inactive)
REMARK    1  A    between atoms: C_3  and  C_26
REMARK    2  A    between atoms: C_14  and  C_17
REMARK    3  A    between atoms: C_22  and  O_23
REMARK                            x       y       z     vdW  Elec       q    Type
REMARK                         _______ _______ _______ _____ _____    ______ ____
ROOT
ATOM      1  C   UNL     1       0.077   0.316  -4.708  0.00  0.00    +0.002 A 
ATOM      2  C   UNL     1       1.430   0.070  -4.604  0.00  0.00    +0.021 A 
ATOM      3  C   UNL     1       2.095   0.323  -3.406  0.00  0.00    +0.073 A 
ATOM      4  C   UNL     1       1.393   0.825  -2.291  0.00  0.00    +0.049 A 
ATOM      5  C   UNL     1       0.028   1.085  -2.432  0.00  0.00    -0.018 A 
ATOM      6  C   UNL     1      -0.616   0.823  -3.622  0.00  0.00    +0.006 A 
ATOM      7  C   UNL     1      -0.685   1.668  -1.274  0.00  0.00    +0.049 C 
ATOM      8  C   UNL     1      -2.129   1.427  -1.037  0.00  0.00    -0.023 C 
ATOM      9  C   UNL     1      -2.346   1.424   0.274  0.00  0.00    -0.030 C 
ATOM     10  C   UNL     1      -1.004   1.630   1.043  0.00  0.00    +0.033 C 
ATOM     11  C   UNL     1      -0.013   1.086   0.008  0.00  0.00    +0.029 C 
ATOM     12  C   UNL     1       1.389   1.659  -0.002  0.00  0.00    +0.109 C 
ATOM     13  N   UNL     1       2.108   1.026  -1.120  0.00  0.00    -0.335 N 
ATOM     14  H   UNL     1       2.561   0.175  -0.823  0.00  0.00    +0.147 HD
ENDROOT
BRANCH  12  15
ATOM     15  C   UNL     1       1.333   3.151  -0.207  0.00  0.00    +0.017 A 
ATOM     16  C   UNL     1       1.474   3.680  -1.476  0.00  0.00    +0.029 A 
ATOM     17  C   UNL     1       1.417   5.049  -1.666  0.00  0.00    +0.043 A 
ATOM     18  C   UNL     1       1.230   5.892  -0.584  0.00  0.00    +0.043 A 
ATOM     19  C   UNL     1       1.094   5.367   0.687  0.00  0.00    +0.084 A 
ATOM     20  C   UNL     1       1.146   3.993   0.878  0.00  0.00    +0.140 A 
ATOM     21 CL   UNL     1       0.859   6.425   2.043  0.00  0.00    -0.080 Cl
ATOM     22 CL   UNL     1       1.587   5.711  -3.261  0.00  0.00    -0.083 Cl
BRANCH  20  23
ATOM     23  O   UNL     1       1.013   3.474   2.128  0.00  0.00    -0.505 OA
ATOM     24  H   UNL     1       1.849   3.372   2.603  0.00  0.00    +0.292 HD
ENDBRANCH  20  23
ENDBRANCH  12  15
BRANCH   3  25
ATOM     25  C   UNL     1       3.502   0.072  -3.308  0.00  0.00    +0.101 C 
ATOM     26  N   UNL     1       4.617  -0.128  -3.229  0.00  0.00    -0.191 NA
ENDBRANCH   3  25
TORSDOF 3
