REMARK  Name = ZINC25116448
REMARK  9 active torsions:
REMARK  status: ('A' for Active; 'I' for Inactive)
REMARK    1  A    between atoms: C_1  and  C_2
REMARK    2  A    between atoms: C_3  and  C_7
REMARK    3  A    between atoms: C_10  and  S_13
REMARK    4  A    between atoms: N_11  and  N_12
REMARK    5  A    between atoms: S_13  and  C_14
REMARK    6  A    between atoms: C_14  and  C_15
REMARK    7  A    between atoms: N_17  and  C_18
REMARK    8  A    between atoms: N_17  and  C_26
REMARK    9  A    between atoms: C_18  and  C_19
REMARK                            x       y       z     vdW  Elec       q    Type
REMARK                         _______ _______ _______ _____ _____    ______ ____
ROOT
ATOM      1  C   UNL     1      -0.595   6.724   0.947  0.00  0.00    +0.227 C 
ATOM      2  O   UNL     1      -0.723   7.867   0.563  0.00  0.00    -0.275 OA
ATOM      3  N   UNL     1      -1.083   5.707   0.210  0.00  0.00    -0.291 N 
ENDROOT
BRANCH   3   4
ATOM      4  C   UNL     1      -1.048   4.339   0.735  0.00  0.00    +0.039 C 
ATOM      5  C   UNL     1       0.372   3.784   0.617  0.00  0.00    +0.029 C 
ATOM      6  C   UNL     1       0.409   2.356   1.165  0.00  0.00    -0.008 C 
ATOM      7  C   UNL     1      -0.017   2.363   2.635  0.00  0.00    +0.007 C 
ATOM      8  C   UNL     1      -1.437   2.918   2.752  0.00  0.00    -0.008 C 
ATOM      9  C   UNL     1      -1.474   4.346   2.204  0.00  0.00    +0.029 C 
ATOM     10  C   UNL     1      -2.397   2.038   1.948  0.00  0.00    +0.007 C 
ATOM     11  C   UNL     1      -1.972   2.032   0.478  0.00  0.00    -0.008 C 
ATOM     12  C   UNL     1      -0.551   1.476   0.361  0.00  0.00    +0.007 C 
ATOM     13  C   UNL     1      -2.008   3.460  -0.070  0.00  0.00    +0.029 C 
ENDBRANCH   3   4
BRANCH   1  14
ATOM     14  C   UNL     1       0.111   6.441   2.248  0.00  0.00    +0.173 C 
BRANCH  14  15
ATOM     15  S   UNL     1       1.193   7.831   2.663  0.00  0.00    -0.075 S 
BRANCH  15  19
ATOM     16  C   UNL     1       3.008   7.070   6.038  0.00  0.00    +0.185 A 
ATOM     17  N   UNL     1       2.270   6.000   5.859  0.00  0.00    -0.127 NA
ATOM     18  N   UNL     1       1.601   6.106   4.767  0.00  0.00    -0.121 NA
ATOM     19  C   UNL     1       1.871   7.249   4.181  0.00  0.00    +0.209 A 
ATOM     20  N   UNL     1       2.781   7.901   4.966  0.00  0.00    -0.224 N 
BRANCH  16  23
ATOM     21  C   UNL     1       3.523   5.171   8.479  0.00  0.00    +0.087 C 
ATOM     22  C   UNL     1       4.153   6.519   8.241  0.00  0.00    +0.112 A 
ATOM     23  C   UNL     1       3.918   7.331   7.175  0.00  0.00    +0.061 A 
ATOM     24  C   UNL     1       4.750   8.521   7.389  0.00  0.00    +0.053 A 
ATOM     25  C   UNL     1       5.402   8.315   8.546  0.00  0.00    +0.196 A 
ATOM     26  O   UNL     1       5.044   7.121   9.043  0.00  0.00    -0.467 OA
ENDBRANCH  16  23
BRANCH  20  27
ATOM     27  N   UNL     1       3.344   9.124   4.736  0.00  0.00    -0.295 N 
ATOM     28  H   UNL     1       3.075   9.692   3.833  0.00  0.00    +0.163 HD
ATOM     29  H   UNL     1       4.066   9.541   5.453  0.00  0.00    +0.163 HD
ENDBRANCH  20  27
ENDBRANCH  15  19
ENDBRANCH  14  15
ENDBRANCH   1  14
BRANCH   3  30
ATOM     30  C   UNL     1      -1.649   5.968  -1.116  0.00  0.00    +0.143 C 
BRANCH  30  31
ATOM     31  C   UNL     1      -3.126   6.237  -0.988  0.00  0.00    -0.030 A 
ATOM     32  C   UNL     1      -4.040   5.321  -1.475  0.00  0.00    +0.008 A 
ATOM     33  C   UNL     1      -5.395   5.564  -1.353  0.00  0.00    +0.038 A 
ATOM     34  C   UNL     1      -5.837   6.731  -0.753  0.00  0.00    +0.123 A 
ATOM     35  C   UNL     1      -4.921   7.650  -0.270  0.00  0.00    +0.038 A 
ATOM     36  C   UNL     1      -3.567   7.402  -0.388  0.00  0.00    +0.008 A 
ATOM     37  F   UNL     1      -7.162   6.971  -0.638  0.00  0.00    -0.205 F 
ENDBRANCH  30  31
ENDBRANCH   3  30
TORSDOF 8
