REMARK  Name = ZINC39687308
REMARK  7 active torsions:
REMARK  status: ('A' for Active; 'I' for Inactive)
REMARK    1  A    between atoms: C_1  and  C_2
REMARK    2  A    between atoms: C_6  and  C_7
REMARK    3  A    between atoms: C_11  and  C_20
REMARK    4  A    between atoms: N_22  and  C_23
REMARK    5  A    between atoms: C_23  and  C_25
REMARK    6  A    between atoms: C_23  and  C_32
REMARK    7  A    between atoms: C_25  and  C_26
REMARK                            x       y       z     vdW  Elec       q    Type
REMARK                         _______ _______ _______ _____ _____    ______ ____
ROOT
ATOM      1  C   UNL     1       0.294   0.515   6.696  0.00  0.00    +0.254 C 
ATOM      2  O   UNL     1       1.167   1.339   6.898  0.00  0.00    -0.269 OA
ATOM      3  N   UNL     1       0.580  -0.800   6.763  0.00  0.00    -0.296 N 
ATOM      4  C   UNL     1      -0.306  -1.940   6.428  0.00  0.00    +0.121 C 
ATOM      5  C   UNL     1       0.618  -2.958   5.721  0.00  0.00    +0.100 C 
ATOM      6  C   UNL     1       2.031  -2.621   6.226  0.00  0.00    -0.004 C 
ATOM      7  C   UNL     1       1.853  -1.433   7.182  0.00  0.00    +0.115 C 
ATOM      8  C   UNL     1       2.928  -2.220   5.058  0.00  0.00    -0.010 C 
ATOM      9  C   UNL     1       4.342  -1.945   5.577  0.00  0.00    -0.082 C 
ATOM     10  N   UNL     1       4.867  -3.149   6.232  0.00  0.00    +0.379 N 
ATOM     11  C   UNL     1       4.053  -3.475   7.409  0.00  0.00    -0.082 C 
ATOM     12  C   UNL     1       2.626  -3.814   6.968  0.00  0.00    -0.010 C 
ATOM     13  H   UNL     1       4.842  -3.922   5.583  0.00  0.00    -0.086 HD
ATOM     14  H   UNL     1       5.820  -2.986   6.519  0.00  0.00    -0.086 HD
ENDROOT
BRANCH   1  20
ATOM     15  C   UNL     1      -0.642   3.444   6.198  0.00  0.00    +0.045 C 
ATOM     16  C   UNL     1      -1.542   2.236   6.148  0.00  0.00    -0.031 A 
ATOM     17  C   UNL     1      -2.883   2.336   5.865  0.00  0.00    +0.011 A 
ATOM     18  C   UNL     1      -3.635   1.208   5.835  0.00  0.00    +0.046 A 
ATOM     19  S   UNL     1      -2.548  -0.022   6.190  0.00  0.00    -0.092 S 
ATOM     20  C   UNL     1      -1.068   0.954   6.378  0.00  0.00    +0.077 A 
ENDBRANCH   1  20
BRANCH   5  21
ATOM     21  C   UNL     1       0.242  -4.365   6.108  0.00  0.00    +0.219 C 
ATOM     22  O   UNL     1      -0.202  -4.592   7.214  0.00  0.00    -0.275 OA
ATOM     23  N   UNL     1       0.398  -5.371   5.225  0.00  0.00    -0.303 N 
ATOM     24  H   UNL     1       0.753  -5.189   4.341  0.00  0.00    +0.149 HD
BRANCH  23  25
ATOM     25  C   UNL     1       0.033  -6.739   5.601  0.00  0.00    +0.163 C 
BRANCH  25  26
ATOM     26  C   UNL     1       1.186  -7.387   6.324  0.00  0.00    +0.236 C 
ATOM     27  O   UNL     1       2.323  -7.038   6.086  0.00  0.00    -0.274 OA
ATOM     28  N   UNL     1       0.953  -8.353   7.234  0.00  0.00    -0.300 N 
ATOM     29  C   UNL     1      -0.405  -8.870   7.446  0.00  0.00    +0.108 C 
ATOM     30  C   UNL     1      -0.381 -10.395   7.301  0.00  0.00    +0.019 C 
ATOM     31  C   UNL     1       0.669 -10.977   8.252  0.00  0.00    +0.003 C 
ATOM     32  C   UNL     1       2.051 -10.434   7.881  0.00  0.00    +0.019 C 
ATOM     33  C   UNL     1       2.055  -8.914   8.028  0.00  0.00    +0.108 C 
ENDBRANCH  25  26
BRANCH  25  34
ATOM     34  C   UNL     1      -0.296  -7.543   4.342  0.00  0.00    +0.067 C 
BRANCH  34  35
ATOM     35  C   UNL     1      -1.538  -6.982   3.697  0.00  0.00    -0.045 A 
ATOM     36  C   UNL     1      -2.782  -7.465   4.058  0.00  0.00    +0.004 A 
ATOM     37  C   UNL     1      -3.921  -6.950   3.467  0.00  0.00    +0.000 A 
ATOM     38  C   UNL     1      -3.815  -5.952   2.516  0.00  0.00    +0.000 A 
ATOM     39  C   UNL     1      -2.571  -5.469   2.156  0.00  0.00    +0.000 A 
ATOM     40  C   UNL     1      -1.433  -5.981   2.751  0.00  0.00    +0.004 A 
ENDBRANCH  34  35
ENDBRANCH  25  34
ENDBRANCH  23  25
ENDBRANCH   5  21
TORSDOF 6
