REMARK  Name = ZINC12570082
REMARK  11 active torsions:
REMARK  status: ('A' for Active; 'I' for Inactive)
REMARK    1  A    between atoms: C_1  and  C_2
REMARK    2  A    between atoms: C_5  and  O_8
REMARK    3  A    between atoms: O_8  and  C_9
REMARK    4  A    between atoms: C_9  and  C_10
REMARK    5  A    between atoms: N_12  and  N_13
REMARK    6  A    between atoms: N_13  and  C_14
REMARK    7  A    between atoms: C_14  and  N_16
REMARK    8  A    between atoms: C_17  and  C_19
REMARK    9  A    between atoms: C_19  and  C_21
REMARK   10  A    between atoms: C_19  and  O_22
REMARK   11  A    between atoms: O_22  and  C_23
REMARK                            x       y       z     vdW  Elec       q    Type
REMARK                         _______ _______ _______ _____ _____    ______ ____
ROOT
ATOM      1  C   UNL     1       4.384  -7.204   0.429  0.00  0.00    +0.153 C 
ATOM      2  S   UNL     1       4.234  -8.894   0.659  0.00  0.00    -0.017 S 
ENDROOT
BRANCH   1   3
ATOM      3  N   UNL     1       5.595  -6.661   0.196  0.00  0.00    -0.264 N 
ATOM      4  C   UNL     1       6.688  -7.448   0.143  0.00  0.00    +0.259 C 
ATOM      5  O   UNL     1       6.582  -8.644   0.306  0.00  0.00    -0.271 OA
ATOM      6  H   UNL     1       5.680  -5.703   0.065  0.00  0.00    +0.157 HD
BRANCH   4   7
ATOM      7  C   UNL     1       8.042  -6.840  -0.119  0.00  0.00    +0.256 C 
ATOM      8  C   UNL     1       8.422  -5.922   1.045  0.00  0.00    +0.062 C 
BRANCH   7   9
ATOM      9  O   UNL     1       9.014  -7.880  -0.243  0.00  0.00    -0.478 OA
BRANCH   9  10
ATOM     10  C   UNL     1      10.130  -7.598  -0.967  0.00  0.00    +0.140 A 
ATOM     11  C   UNL     1      10.339  -6.314  -1.450  0.00  0.00    +0.048 A 
ATOM     12  C   UNL     1      11.475  -6.028  -2.181  0.00  0.00    +0.023 A 
ATOM     13  C   UNL     1      12.401  -7.023  -2.441  0.00  0.00    +0.043 A 
ATOM     14  C   UNL     1      12.193  -8.306  -1.964  0.00  0.00    +0.043 A 
ATOM     15  C   UNL     1      11.060  -8.595  -1.228  0.00  0.00    +0.084 A 
ATOM     16 CL   UNL     1      10.798 -10.204  -0.631  0.00  0.00    -0.080 Cl
ATOM     17 CL   UNL     1      13.826  -6.662  -3.365  0.00  0.00    -0.083 Cl
ENDBRANCH   9  10
ENDBRANCH   7   9
ENDBRANCH   4   7
ENDBRANCH   1   3
BRANCH   1  18
ATOM     18  N   UNL     1       3.291  -6.417   0.482  0.00  0.00    -0.245 N 
ATOM     19  H   UNL     1       2.420  -6.808   0.650  0.00  0.00    +0.172 HD
BRANCH  18  22
ATOM     20  C   UNL     1       2.321  -4.247   0.347  0.00  0.00    +0.267 C 
ATOM     21  O   UNL     1       1.231  -4.736   0.557  0.00  0.00    -0.271 OA
ATOM     22  N   UNL     1       3.414  -5.034   0.294  0.00  0.00    -0.232 N 
ATOM     23  H   UNL     1       4.285  -4.643   0.126  0.00  0.00    +0.173 HD
BRANCH  20  24
ATOM     24  C   UNL     1       2.453  -2.760   0.144  0.00  0.00    +0.326 C 
BRANCH  24  25
ATOM     25  O   UNL     1       1.165  -2.149   0.246  0.00  0.00    -0.483 OA
BRANCH  25  30
ATOM     26  C   UNL     1       0.927   3.440  -0.412  0.00  0.00    +0.044 C 
ATOM     27  C   UNL     1       0.990   1.945  -0.236  0.00  0.00    -0.050 A 
ATOM     28  C   UNL     1      -0.166   1.229   0.011  0.00  0.00    +0.007 A 
ATOM     29  C   UNL     1      -0.111  -0.142   0.173  0.00  0.00    +0.046 A 
ATOM     30  C   UNL     1       1.108  -0.800   0.087  0.00  0.00    +0.121 A 
ATOM     31  C   UNL     1       2.267  -0.080  -0.162  0.00  0.00    +0.046 A 
ATOM     32  C   UNL     1       2.206   1.291  -0.322  0.00  0.00    +0.007 A 
ENDBRANCH  25  30
ENDBRANCH  24  25
ENDBRANCH  20  24
ENDBRANCH  18  22
ENDBRANCH   1  18
TORSDOF 9
