REMARK  Name = ZINC09673338
REMARK  11 active torsions:
REMARK  status: ('A' for Active; 'I' for Inactive)
REMARK    1  A    between atoms: C_4  and  C_7
REMARK    2  A    between atoms: C_7  and  C_8
REMARK    3  A    between atoms: C_8  and  C_10
REMARK    4  A    between atoms: C_8  and  N_28
REMARK    5  A    between atoms: N_12  and  C_13
REMARK    6  A    between atoms: C_13  and  C_14
REMARK    7  A    between atoms: C_14  and  C_15
REMARK    8  A    between atoms: C_15  and  N_67
REMARK    9  A    between atoms: N_18  and  C_21
REMARK   10  A    between atoms: N_28  and  S_29
REMARK   11  A    between atoms: S_29  and  C_32
REMARK                            x       y       z     vdW  Elec       q    Type
REMARK                         _______ _______ _______ _____ _____    ______ ____
ROOT
ATOM      1  C   UNL     1      -4.119  -0.371   1.564  0.00  0.00    +0.232 C 
ATOM      2  O   UNL     1      -5.120  -0.044   2.166  0.00  0.00    -0.274 OA
ATOM      3  N   UNL     1      -4.052  -1.581   0.975  0.00  0.00    -0.314 N 
ATOM      4  H   UNL     1      -3.251  -1.843   0.494  0.00  0.00    +0.149 HD
ENDROOT
BRANCH   1   5
ATOM      5  C   UNL     1      -2.950   0.575   1.477  0.00  0.00    +0.166 C 
BRANCH   5   6
ATOM      6  N   UNL     1      -3.268   1.813   2.192  0.00  0.00    -0.177 NA
ATOM      7  H   UNL     1      -3.761   2.519   1.745  0.00  0.00    +0.149 HD
BRANCH   6   8
ATOM      8  S   UNL     1      -2.788   2.008   3.765  0.00  0.00    +0.065 S 
ATOM      9  O   UNL     1      -3.190   3.314   4.154  0.00  0.00    -0.153 OA
ATOM     10  O   UNL     1      -3.205   0.843   4.464  0.00  0.00    -0.153 OA
BRANCH   8  11
ATOM     11  C   UNL     1      -1.026   1.998   3.776  0.00  0.00    +0.142 A 
ATOM     12  C   UNL     1      -0.167   3.046   3.739  0.00  0.00    +0.036 A 
ATOM     13  C   UNL     1       1.193   2.798   3.758  0.00  0.00    +0.010 A 
ATOM     14  C   UNL     1       1.627   1.516   3.814  0.00  0.00    +0.047 A 
ATOM     15  S   UNL     1       0.091   0.607   3.848  0.00  0.00    -0.077 S 
ENDBRANCH   8  11
ENDBRANCH   6   8
ENDBRANCH   5   6
BRANCH   5  16
ATOM     16  C   UNL     1      -2.661   0.895   0.009  0.00  0.00    +0.065 C 
BRANCH  16  20
ATOM     17  C   UNL     1       0.800   3.385  -0.259  0.00  0.00    +0.000 A 
ATOM     18  C   UNL     1       0.940   2.011  -0.188  0.00  0.00    +0.000 A 
ATOM     19  C   UNL     1      -0.180   1.206  -0.097  0.00  0.00    +0.004 A 
ATOM     20  C   UNL     1      -1.440   1.774  -0.084  0.00  0.00    -0.045 A 
ATOM     21  C   UNL     1      -1.580   3.147  -0.150  0.00  0.00    +0.004 A 
ATOM     22  C   UNL     1      -0.461   3.953  -0.240  0.00  0.00    +0.000 A 
ENDBRANCH  16  20
ENDBRANCH   5  16
ENDBRANCH   1   5
BRANCH   3  23
ATOM     23  C   UNL     1      -5.189  -2.501   1.060  0.00  0.00    +0.102 C 
BRANCH  23  24
ATOM     24  C   UNL     1      -4.856  -3.794   0.312  0.00  0.00    +0.000 C 
BRANCH  24  25
ATOM     25  C   UNL     1      -6.043  -4.755   0.402  0.00  0.00    -0.077 C 
BRANCH  25  31
ATOM     26  C   UNL     1      -5.585  -5.750  -1.758  0.00  0.00    -0.060 C 
ATOM     27  C   UNL     1      -5.174  -7.048  -2.458  0.00  0.00    +0.086 C 
ATOM     28  N   UNL     1      -6.186  -8.082  -2.198  0.00  0.00    -0.331 N 
ATOM     29  C   UNL     1      -6.325  -8.328  -0.756  0.00  0.00    +0.086 C 
ATOM     30  C   UNL     1      -6.735  -7.030  -0.057  0.00  0.00    -0.060 C 
ATOM     31  N   UNL     1      -5.699  -6.006  -0.307  0.00  0.00    +0.382 N 
ATOM     32  H   UNL     1      -4.797  -6.351   0.043  0.00  0.00    -0.082 HD
BRANCH  28  33
ATOM     33  C   UNL     1      -5.881  -9.264  -2.881  0.00  0.00    +0.065 A 
ATOM     34  C   UNL     1      -6.753 -10.343  -2.827  0.00  0.00    +0.026 A 
ATOM     35  C   UNL     1      -6.452 -11.508  -3.506  0.00  0.00    +0.002 A 
ATOM     36  C   UNL     1      -5.279 -11.603  -4.232  0.00  0.00    +0.003 A 
ATOM     37  C   UNL     1      -4.405 -10.533  -4.285  0.00  0.00    +0.040 A 
ATOM     38  C   UNL     1      -4.702  -9.363  -3.611  0.00  0.00    +0.144 A 
ATOM     39  F   UNL     1      -3.848  -8.317  -3.662  0.00  0.00    -0.204 F 
ENDBRANCH  28  33
ENDBRANCH  25  31
ENDBRANCH  24  25
ENDBRANCH  23  24
ENDBRANCH   3  23
TORSDOF 11
