REMARK  Name = ZINC18744533
REMARK  11 active torsions:
REMARK  status: ('A' for Active; 'I' for Inactive)
REMARK    1  A    between atoms: C_1  and  C_2
REMARK    2  A    between atoms: C_4  and  C_31
REMARK    3  A    between atoms: C_6  and  O_8
REMARK    4  A    between atoms: O_8  and  C_9
REMARK    5  A    between atoms: C_9  and  C_10
REMARK    6  A    between atoms: C_13  and  S_16
REMARK    7  A    between atoms: N_14  and  N_15
REMARK    8  A    between atoms: S_16  and  C_17
REMARK    9  A    between atoms: C_17  and  C_19
REMARK   10  A    between atoms: C_17  and  C_20
REMARK   11  A    between atoms: N_22  and  C_23
REMARK                            x       y       z     vdW  Elec       q    Type
REMARK                         _______ _______ _______ _____ _____    ______ ____
ROOT
ATOM      1  C   UNL     1       3.654   0.142   2.971  0.00  0.00    +0.189 A 
ATOM      2  N   UNL     1       2.472  -0.391   3.101  0.00  0.00    -0.128 NA
ATOM      3  N   UNL     1       1.690   0.040   2.177  0.00  0.00    -0.121 NA
ATOM      4  C   UNL     1       2.338   0.872   1.395  0.00  0.00    +0.209 A 
ATOM      5  N   UNL     1       3.611   0.965   1.880  0.00  0.00    -0.225 N 
ENDROOT
BRANCH   5   6
ATOM      6  N   UNL     1       4.631   1.724   1.379  0.00  0.00    -0.295 N 
ATOM      7  H   UNL     1       4.638   2.642   1.797  0.00  0.00    +0.163 HD
ATOM      8  H   UNL     1       5.520   1.263   1.503  0.00  0.00    +0.163 HD
ENDBRANCH   5   6
BRANCH   1   9
ATOM      9  C   UNL     1       4.847  -0.103   3.858  0.00  0.00    +0.306 C 
BRANCH   9  10
ATOM     10  O   UNL     1       4.848   0.845   4.928  0.00  0.00    -0.484 OA
BRANCH  10  16
ATOM     11  C   UNL     1       8.936  -1.355   6.436  0.00  0.00    +0.044 C 
ATOM     12  C   UNL     1       7.874  -0.297   6.593  0.00  0.00    -0.047 A 
ATOM     13  C   UNL     1       7.935   0.590   7.652  0.00  0.00    +0.007 A 
ATOM     14  C   UNL     1       6.963   1.563   7.800  0.00  0.00    -0.047 A 
ATOM     15  C   UNL     1       5.928   1.650   6.888  0.00  0.00    +0.049 A 
ATOM     16  C   UNL     1       5.865   0.761   5.825  0.00  0.00    +0.122 A 
ATOM     17  C   UNL     1       6.838  -0.217   5.683  0.00  0.00    +0.049 A 
ATOM     18  C   UNL     1       7.033   2.528   8.954  0.00  0.00    +0.044 C 
ENDBRANCH  10  16
ENDBRANCH   9  10
ENDBRANCH   1   9
BRANCH   4  19
ATOM     19  S   UNL     1       1.687   1.714  -0.009  0.00  0.00    -0.072 S 
BRANCH  19  20
ATOM     20  C   UNL     1      -0.009   1.082   0.004  0.00  0.00    +0.137 C 
ATOM     21  C   UNL     1      -0.724   1.565   1.268  0.00  0.00    +0.029 C 
BRANCH  20  22
ATOM     22  C   UNL     1      -0.743   1.586  -1.212  0.00  0.00    +0.230 C 
ATOM     23  O   UNL     1      -0.333   2.561  -1.806  0.00  0.00    -0.274 OA
ATOM     24  N   UNL     1      -1.854   0.954  -1.639  0.00  0.00    -0.284 N 
ATOM     25  H   UNL     1      -2.143   0.136  -1.205  0.00  0.00    +0.155 HD
BRANCH  24  26
ATOM     26  C   UNL     1      -2.590   1.478  -2.709  0.00  0.00    +0.036 A 
ATOM     27  C   UNL     1      -3.973   1.357  -2.726  0.00  0.00    +0.026 A 
ATOM     28  C   UNL     1      -4.699   1.879  -3.779  0.00  0.00    +0.043 A 
ATOM     29  C   UNL     1      -4.047   2.512  -4.824  0.00  0.00    +0.159 A 
ATOM     30  C   UNL     1      -2.666   2.629  -4.812  0.00  0.00    +0.160 A 
ATOM     31  C   UNL     1      -1.937   2.113  -3.756  0.00  0.00    +0.064 A 
ATOM     32  F   UNL     1      -2.032   3.248  -5.832  0.00  0.00    -0.202 F 
ATOM     33  F   UNL     1      -4.759   3.017  -5.855  0.00  0.00    -0.202 F 
ENDBRANCH  24  26
ENDBRANCH  20  22
ENDBRANCH  19  20
ENDBRANCH   4  19
TORSDOF 8
