REMARK  Name = ZINC40282028
REMARK  2 active torsions:
REMARK  status: ('A' for Active; 'I' for Inactive)
REMARK    1  A    between atoms: C_6  and  C_7
REMARK    2  A    between atoms: C_7  and  C_9
REMARK                            x       y       z     vdW  Elec       q    Type
REMARK                         _______ _______ _______ _____ _____    ______ ____
ROOT
ATOM      1  C   UNL     1      -0.017   1.380   0.010  0.00  0.00    +0.007 A 
ATOM      2  C   UNL     1       1.166   2.092   0.002  0.00  0.00    +0.028 A 
ATOM      3  C   UNL     1       2.382   1.419  -0.014  0.00  0.00    +0.066 A 
ATOM      4  C   UNL     1       2.401   0.023  -0.022  0.00  0.00    +0.066 A 
ATOM      5  C   UNL     1       1.204  -0.683  -0.014  0.00  0.00    +0.033 A 
ATOM      6  C   UNL     1       0.002  -0.004   0.002  0.00  0.00    -0.025 A 
ATOM      7  N   UNL     1       3.609  -0.669  -0.038  0.00  0.00    -0.316 N 
ATOM      8  H   UNL     1       3.612  -1.639  -0.044  0.00  0.00    +0.169 HD
ATOM      9  C   UNL     1       4.776   0.007  -0.046  0.00  0.00    +0.314 A 
ATOM     10  O   UNL     1       5.832  -0.592  -0.061  0.00  0.00    -0.262 OA
ATOM     11  C   UNL     1       4.756   1.499  -0.037  0.00  0.00    +0.314 A 
ATOM     12  O   UNL     1       5.795   2.126  -0.044  0.00  0.00    -0.262 OA
ATOM     13  N   UNL     1       3.571   2.143  -0.021  0.00  0.00    -0.316 N 
ATOM     14  H   UNL     1       3.547   3.113  -0.016  0.00  0.00    +0.169 HD
ENDROOT
BRANCH   6  15
ATOM     15  C   UNL     1      -1.294  -0.772   0.011  0.00  0.00    +0.152 C 
ATOM     16 BR   UNL     1      -2.415  -0.184  -1.493  0.00  0.00    -0.075 Br
BRANCH  15  17
ATOM     17  C   UNL     1      -2.020  -0.519   1.307  0.00  0.00    +0.124 A 
ATOM     18  C   UNL     1      -2.275  -1.436   2.258  0.00  0.00    +0.047 A 
ATOM     19  C   UNL     1      -2.970  -0.770   3.293  0.00  0.00    +0.057 A 
ATOM     20  C   UNL     1      -3.099   0.515   2.913  0.00  0.00    +0.170 A 
ATOM     21  O   UNL     1      -2.516   0.662   1.712  0.00  0.00    -0.452 OA
ATOM     22 BR   UNL     1      -3.949   1.883   3.904  0.00  0.00    -0.008 Br
ENDBRANCH  15  17
ENDBRANCH   6  15
TORSDOF 2
