REMARK  Name = ZINC54967866
REMARK  6 active torsions:
REMARK  status: ('A' for Active; 'I' for Inactive)
REMARK    1  A    between atoms: C_1  and  C_2
REMARK    2  A    between atoms: C_10  and  C_16
REMARK    3  A    between atoms: C_11  and  C_13
REMARK    4  A    between atoms: C_16  and  C_17
REMARK    5  A    between atoms: C_16  and  C_18
REMARK    6  A    between atoms: C_16  and  C_19
REMARK                            x       y       z     vdW  Elec       q    Type
REMARK                         _______ _______ _______ _____ _____    ______ ____
ROOT
ATOM      1  C   UNL     1       2.283   1.515  -1.875  0.00  0.00    +0.028 C 
ATOM      2  C   UNL     1       2.201   0.014  -1.593  0.00  0.00    +0.072 C 
ATOM      3  C   UNL     1       0.860  -0.545  -2.115  0.00  0.00    +0.024 C 
ATOM      4  C   UNL     1       0.465  -1.575  -1.024  0.00  0.00    +0.021 C 
ATOM      5  C   UNL     1       0.981  -0.881   0.261  0.00  0.00    +0.107 C 
ATOM      6  N   UNL     1       2.243  -0.226  -0.143  0.00  0.00    -0.307 N 
ATOM      7  C   UNL     1       3.284   0.104   0.695  0.00  0.00    +0.162 A 
ATOM      8  N   UNL     1       3.377  -0.092   2.000  0.00  0.00    -0.228 NA
ATOM      9  C   UNL     1       4.436   0.277   2.672  0.00  0.00    +0.070 A 
ATOM     10  C   UNL     1       5.452   0.883   1.940  0.00  0.00    +0.125 A 
ATOM     11  S   UNL     1       4.742   0.847   0.301  0.00  0.00    -0.045 S 
ENDROOT
BRANCH   9  12
ATOM     12  C   UNL     1       4.550   0.057   4.159  0.00  0.00    +0.006 C 
ATOM     13  C   UNL     1       3.201  -0.406   4.711  0.00  0.00    +0.017 C 
ATOM     14  C   UNL     1       5.609  -1.012   4.436  0.00  0.00    +0.017 C 
ATOM     15  C   UNL     1       4.957   1.366   4.838  0.00  0.00    +0.017 C 
ENDBRANCH   9  12
BRANCH  10  16
ATOM     16  C   UNL     1       6.700   1.385   2.371  0.00  0.00    +0.395 C 
ATOM     17  O   UNL     1       7.232   0.924   3.374  0.00  0.00    -0.240 OA
ATOM     18  O   UNL     1       7.250   2.282   1.743  0.00  0.00    -0.240 OA
ENDBRANCH  10  16
TORSDOF 2
