REMARK  Name = ZINC06134319
REMARK  15 active torsions:
REMARK  status: ('A' for Active; 'I' for Inactive)
REMARK    1  A    between atoms: C_1  and  C_2
REMARK    2  A    between atoms: C_2  and  C_3
REMARK    3  A    between atoms: C_2  and  C_4
REMARK    4  A    between atoms: C_4  and  C_5
REMARK    5  A    between atoms: C_5  and  N_6
REMARK    6  A    between atoms: C_7  and  C_9
REMARK    7  A    between atoms: C_9  and  C_11
REMARK    8  A    between atoms: C_9  and  N_16
REMARK    9  A    between atoms: N_16  and  C_17
REMARK   10  A    between atoms: C_20  and  C_23
REMARK   11  A    between atoms: C_23  and  C_24
REMARK   12  A    between atoms: C_23  and  C_25
REMARK   13  A    between atoms: C_26  and  C_28
REMARK   14  A    between atoms: C_29  and  N_36
REMARK   15  A    between atoms: C_30  and  C_33
REMARK                            x       y       z     vdW  Elec       q    Type
REMARK                         _______ _______ _______ _____ _____    ______ ____
ROOT
ATOM      1  N   UNL     1       0.208   1.591   5.059  0.00  0.00    -0.250 N 
ATOM      2  C   UNL     1       0.360   0.323   5.489  0.00  0.00    +0.262 C 
ATOM      3  O   UNL     1       0.840   0.105   6.586  0.00  0.00    -0.269 OA
ENDROOT
BRANCH   1   4
ATOM      4  C   UNL     1       0.307   2.653   5.965  0.00  0.00    +0.038 A 
ATOM      5  C   UNL     1       0.039   3.950   5.549  0.00  0.00    +0.024 A 
ATOM      6  C   UNL     1       0.133   4.995   6.447  0.00  0.00    +0.006 A 
ATOM      7  C   UNL     1       0.505   4.752   7.756  0.00  0.00    -0.045 A 
ATOM      8  C   UNL     1       0.778   3.462   8.172  0.00  0.00    +0.006 A 
ATOM      9  C   UNL     1       0.681   2.412   7.281  0.00  0.00    +0.024 A 
BRANCH   7  10
ATOM     10  C   UNL     1       0.612   5.896   8.732  0.00  0.00    +0.013 C 
ATOM     11  C   UNL     1       1.654   6.898   8.231  0.00  0.00    +0.012 C 
ATOM     12  C   UNL     1      -0.746   6.590   8.854  0.00  0.00    +0.012 C 
ENDBRANCH   7  10
ENDBRANCH   1   4
BRANCH   2  13
ATOM     13  C   UNL     1      -0.052  -0.793   4.635  0.00  0.00    +0.116 A 
ATOM     14  C   UNL     1       0.149  -2.163   4.812  0.00  0.00    +0.076 A 
ATOM     15  C   UNL     1      -0.397  -2.921   3.776  0.00  0.00    +0.155 A 
ATOM     16  N   UNL     1      -1.006  -2.310   2.783  0.00  0.00    -0.203 NA
ATOM     17  S   UNL     1      -0.936  -0.765   3.090  0.00  0.00    +0.019 S 
BRANCH  15  18
ATOM     18  C   UNL     1      -0.287  -4.391   3.790  0.00  0.00    +0.262 C 
ATOM     19  O   UNL     1       0.278  -4.950   4.711  0.00  0.00    -0.269 OA
ATOM     20  N   UNL     1      -0.813  -5.116   2.783  0.00  0.00    -0.324 N 
ATOM     21  H   UNL     1      -1.264  -4.670   2.048  0.00  0.00    +0.145 HD
ATOM     22  H   UNL     1      -0.741  -6.083   2.792  0.00  0.00    +0.145 HD
ENDBRANCH  15  18
BRANCH  14  23
ATOM     23  N   UNL     1       0.816  -2.711   5.899  0.00  0.00    -0.355 N 
ATOM     24  H   UNL     1       1.173  -2.132   6.591  0.00  0.00    +0.142 HD
ATOM     25  H   UNL     1       0.925  -3.673   5.968  0.00  0.00    +0.142 HD
ENDBRANCH  14  23
ENDBRANCH   2  13
BRANCH   1  26
ATOM     26  C   UNL     1      -0.061   1.859   3.644  0.00  0.00    +0.204 C 
BRANCH  26  27
ATOM     27  C   UNL     1       1.007   2.767   3.092  0.00  0.00    +0.019 A 
ATOM     28  C   UNL     1       1.461   2.876   1.820  0.00  0.00    +0.013 A 
ATOM     29  C   UNL     1       2.458   3.791   1.539  0.00  0.00    +0.008 A 
ATOM     30  C   UNL     1       2.961   4.544   2.548  0.00  0.00    +0.045 A 
ATOM     31  S   UNL     1       2.010   3.972   3.946  0.00  0.00    -0.099 S 
ENDBRANCH  26  27
BRANCH  26  33
ATOM     32  N   UNL     1      -1.867   2.865   2.287  0.00  0.00    -0.313 N 
ATOM     33  C   UNL     1      -1.407   2.524   3.506  0.00  0.00    +0.239 C 
ATOM     34  O   UNL     1      -2.074   2.753   4.493  0.00  0.00    -0.273 OA
ATOM     35  H   UNL     1      -1.333   2.683   1.498  0.00  0.00    +0.149 HD
BRANCH  32  36
ATOM     36  C   UNL     1      -3.175   3.513   2.152  0.00  0.00    +0.104 C 
BRANCH  36  37
ATOM     37  C   UNL     1      -3.456   3.792   0.674  0.00  0.00    +0.022 C 
BRANCH  37  39
ATOM     38  C   UNL     1      -4.782   5.842   1.205  0.00  0.00    +0.007 C 
ATOM     39  C   UNL     1      -4.822   4.467   0.534  0.00  0.00    -0.016 C 
ATOM     40  C   UNL     1      -5.159   4.633  -0.949  0.00  0.00    +0.007 C 
ENDBRANCH  37  39
ENDBRANCH  36  37
ENDBRANCH  32  36
ENDBRANCH  26  33
ENDBRANCH   1  26
TORSDOF 11
