REMARK  Name = ZINC14457252
REMARK  9 active torsions:
REMARK  status: ('A' for Active; 'I' for Inactive)
REMARK    1  A    between atoms: C_1  and  C_2
REMARK    2  A    between atoms: C_6  and  C_37
REMARK    3  A    between atoms: C_7  and  N_8
REMARK    4  A    between atoms: N_8  and  S_9
REMARK    5  A    between atoms: S_9  and  C_12
REMARK    6  A    between atoms: C_25  and  C_28
REMARK    7  A    between atoms: C_31  and  O_35
REMARK    8  A    between atoms: C_32  and  O_34
REMARK    9  A    between atoms: O_35  and  C_36
REMARK                            x       y       z     vdW  Elec       q    Type
REMARK                         _______ _______ _______ _____ _____    ______ ____
ROOT
ATOM      1  C   UNL     1       1.129   1.409   5.014  0.00  0.00    +0.109 A 
ATOM      2  C   UNL     1       1.999   0.348   5.189  0.00  0.00    +0.030 A 
ATOM      3  C   UNL     1       1.779  -0.556   6.209  0.00  0.00    +0.025 A 
ATOM      4  C   UNL     1       0.688  -0.398   7.055  0.00  0.00    +0.031 A 
ATOM      5  C   UNL     1      -0.188   0.663   6.882  0.00  0.00    -0.018 A 
ATOM      6  C   UNL     1       0.048   1.568   5.856  0.00  0.00    +0.034 A 
ATOM      7  C   UNL     1      -1.377   0.871   7.765  0.00  0.00    +0.049 C 
ATOM      8  C   UNL     1      -1.151   2.005   8.737  0.00  0.00    -0.023 C 
ATOM      9  C   UNL     1      -1.712   1.732   9.890  0.00  0.00    -0.030 C 
ATOM     10  C   UNL     1      -2.396   0.379   9.841  0.00  0.00    +0.033 C 
ATOM     11  C   UNL     1      -1.680  -0.344   8.663  0.00  0.00    +0.029 C 
ATOM     12  C   UNL     1      -0.372  -0.938   9.195  0.00  0.00    +0.105 C 
ATOM     13  N   UNL     1       0.481  -1.320   8.086  0.00  0.00    -0.336 N 
ATOM     14  H   UNL     1       0.891  -2.198   8.058  0.00  0.00    +0.147 HD
ENDROOT
BRANCH  12  15
ATOM     15  C   UNL     1       0.351   0.094  10.022  0.00  0.00    -0.023 A 
ATOM     16  C   UNL     1       1.274   0.932   9.426  0.00  0.00    +0.009 A 
ATOM     17  C   UNL     1       1.936   1.883  10.179  0.00  0.00    +0.050 A 
ATOM     18  C   UNL     1       1.682   1.992  11.537  0.00  0.00    +0.161 A 
ATOM     19  C   UNL     1       0.757   1.144  12.138  0.00  0.00    +0.159 A 
ATOM     20  C   UNL     1       0.093   0.196  11.377  0.00  0.00    +0.054 A 
BRANCH  19  21
ATOM     21  O   UNL     1       0.504   1.247  13.471  0.00  0.00    -0.503 OA
ATOM     22  H   UNL     1       1.072   0.693  14.023  0.00  0.00    +0.292 HD
ENDBRANCH  19  21
BRANCH  18  23
ATOM     23  O   UNL     1       2.337   2.923  12.281  0.00  0.00    -0.491 OA
ATOM     24  C   UNL     1       3.273   3.759  11.597  0.00  0.00    +0.277 C 
ENDBRANCH  18  23
ENDBRANCH  12  15
BRANCH   1  25
ATOM     25  S   UNL     1       1.407   2.565   3.714  0.00  0.00    +0.072 S 
ATOM     26  O   UNL     1       2.770   2.430   3.335  0.00  0.00    -0.150 OA
ATOM     27  O   UNL     1       0.855   3.801   4.145  0.00  0.00    -0.150 OA
BRANCH  25  28
ATOM     28  N   UNL     1       0.504   2.070   2.417  0.00  0.00    -0.216 N 
ATOM     29  H   UNL     1       0.943   1.740   1.618  0.00  0.00    +0.174 HD
BRANCH  28  36
ATOM     30  C   UNL     1      -0.926  -0.364   2.771  0.00  0.00    +0.046 C 
ATOM     31  C   UNL     1      -1.629   0.963   2.646  0.00  0.00    -0.028 A 
ATOM     32  C   UNL     1      -3.008   1.023   2.697  0.00  0.00    +0.005 A 
ATOM     33  C   UNL     1      -3.653   2.241   2.587  0.00  0.00    +0.001 A 
ATOM     34  C   UNL     1      -2.921   3.402   2.416  0.00  0.00    +0.005 A 
ATOM     35  C   UNL     1      -1.542   3.349   2.360  0.00  0.00    -0.028 A 
ATOM     36  C   UNL     1      -0.891   2.127   2.474  0.00  0.00    +0.054 A 
ATOM     37  C   UNL     1      -0.746   4.614   2.173  0.00  0.00    +0.046 C 
ENDBRANCH  28  36
ENDBRANCH  25  28
ENDBRANCH   1  25
TORSDOF 6
