REMARK  Name = ZINC03534228
REMARK  13 active torsions:
REMARK  status: ('A' for Active; 'I' for Inactive)
REMARK    1  A    between atoms: C_1  and  C_2
REMARK    2  A    between atoms: C_2  and  N_58
REMARK    3  A    between atoms: C_3  and  C_4
REMARK    4  A    between atoms: C_3  and  N_58
REMARK    5  A    between atoms: C_5  and  C_6
REMARK    6  A    between atoms: C_5  and  N_58
REMARK    7  A    between atoms: C_10  and  C_14
REMARK    8  A    between atoms: C_11  and  C_13
REMARK    9  A    between atoms: C_15  and  S_17
REMARK   10  A    between atoms: S_17  and  C_18
REMARK   11  A    between atoms: C_18  and  C_19
REMARK   12  A    between atoms: C_25  and  C_31
REMARK   13  A    between atoms: C_26  and  C_30
REMARK                            x       y       z     vdW  Elec       q    Type
REMARK                         _______ _______ _______ _____ _____    ______ ____
ROOT
ATOM      1  C   UNL     1      -1.174  -1.617  -0.713  0.00  0.00    +0.115 A 
ATOM      2  N   UNL     1      -1.823  -0.468  -0.713  0.00  0.00    -0.227 NA
ATOM      3  C   UNL     1      -1.165   0.670  -0.608  0.00  0.00    +0.113 A 
ATOM      4  C   UNL     1       0.242   0.699  -0.494  0.00  0.00    +0.043 A 
ATOM      5  C   UNL     1       0.819   2.027  -0.388  0.00  0.00    -0.029 A 
ATOM      6  C   UNL     1       0.008   3.096  -0.403  0.00  0.00    -0.008 A 
ATOM      7  S   UNL     1      -1.618   2.384  -0.566  0.00  0.00    -0.074 S 
ATOM      8  C   UNL     1       0.383   4.553  -0.307  0.00  0.00    +0.052 C 
ATOM      9  C   UNL     1       2.310   2.203  -0.261  0.00  0.00    +0.045 C 
ATOM     10  C   UNL     1       0.881  -0.572  -0.502  0.00  0.00    +0.109 A 
ATOM     11  N   UNL     1       0.141  -1.665  -0.611  0.00  0.00    -0.227 NA
ENDROOT
BRANCH   1  12
ATOM     12  C   UNL     1      -1.952  -2.902  -0.834  0.00  0.00    -0.001 C 
BRANCH  12  13
ATOM     13  N   UNL     1      -2.105  -3.234  -2.267  0.00  0.00    +0.384 N 
ATOM     14  H   UNL     1      -2.484  -2.416  -2.760  0.00  0.00    -0.081 HD
BRANCH  13  16
ATOM     15  C   UNL     1      -0.195  -4.798  -2.142  0.00  0.00    -0.017 C 
ATOM     16  C   UNL     1      -0.791  -3.579  -2.848  0.00  0.00    -0.082 C 
ENDBRANCH  13  16
BRANCH  13  17
ATOM     17  C   UNL     1      -3.042  -4.366  -2.425  0.00  0.00    -0.082 C 
ATOM     18  C   UNL     1      -3.402  -4.504  -3.906  0.00  0.00    -0.017 C 
ENDBRANCH  13  17
ENDBRANCH  12  13
ENDBRANCH   1  12
BRANCH  10  19
ATOM     19  S   UNL     1       2.634  -0.691  -0.369  0.00  0.00    -0.097 S 
BRANCH  19  20
ATOM     20  C   UNL     1       2.833  -2.488  -0.436  0.00  0.00    +0.150 C 
BRANCH  20  21
ATOM     21  C   UNL     1       4.296  -2.835  -0.336  0.00  0.00    +0.121 A 
ATOM     22  N   UNL     1       4.676  -4.139  -0.361  0.00  0.00    -0.310 N 
ATOM     23  H   UNL     1       3.999  -4.829  -0.443  0.00  0.00    +0.170 HD
ATOM     24  C   UNL     1       5.972  -4.492  -0.281  0.00  0.00    +0.260 A 
ATOM     25  O   UNL     1       6.296  -5.667  -0.309  0.00  0.00    -0.267 OA
ATOM     26  C   UNL     1       6.964  -3.466  -0.154  0.00  0.00    +0.075 A 
ATOM     27  C   UNL     1       8.406  -3.588  -0.046  0.00  0.00    -0.026 A 
ATOM     28  C   UNL     1       9.151  -2.477   0.064  0.00  0.00    -0.008 A 
ATOM     29  S   UNL     1       7.944  -1.165   0.029  0.00  0.00    -0.073 S 
ATOM     30  C   UNL     1       6.476  -2.148  -0.132  0.00  0.00    +0.116 A 
ATOM     31  N   UNL     1       5.177  -1.877  -0.223  0.00  0.00    -0.226 NA
ATOM     32  C   UNL     1      10.649  -2.365   0.188  0.00  0.00    +0.052 C 
ATOM     33  C   UNL     1       9.059  -4.946  -0.057  0.00  0.00    +0.045 C 
ENDBRANCH  20  21
ENDBRANCH  19  20
ENDBRANCH  10  19
TORSDOF 7
