REMARK  Name = ZINC58304194
REMARK  3 active torsions:
REMARK  status: ('A' for Active; 'I' for Inactive)
REMARK    1  A    between atoms: C_11  and  C_13
REMARK    2  A    between atoms: C_13  and  C_14
REMARK    3  A    between atoms: C_14  and  N_15
REMARK                            x       y       z     vdW  Elec       q    Type
REMARK                         _______ _______ _______ _____ _____    ______ ____
ROOT
ATOM      1  C   UNL     1       6.100   1.967  -1.120  0.00  0.00    +0.127 C 
ENDROOT
BRANCH   1   2
ATOM      2  N   UNL     1       6.037   3.376  -1.516  0.00  0.00    -0.224 N 
ATOM      3  C   UNL     1       5.816   3.800  -2.777  0.00  0.00    +0.247 C 
ATOM      4  O   UNL     1       5.637   3.115  -3.761  0.00  0.00    -0.273 OA
ATOM      5  C   UNL     1       5.837   5.310  -2.704  0.00  0.00    +0.113 C 
ATOM      6  C   UNL     1       4.489   5.881  -3.132  0.00  0.00    +0.035 C 
ATOM      7  C   UNL     1       4.522   7.408  -3.023  0.00  0.00    +0.003 C 
ATOM      8  C   UNL     1       5.636   7.958  -3.916  0.00  0.00    +0.000 C 
ATOM      9  C   UNL     1       6.983   7.395  -3.460  0.00  0.00    +0.003 C 
ATOM     10  C   UNL     1       6.960   5.868  -3.571  0.00  0.00    +0.035 C 
ATOM     11  N   UNL     1       6.090   5.595  -1.286  0.00  0.00    -0.285 N 
ATOM     12  C   UNL     1       6.188   4.402  -0.669  0.00  0.00    +0.309 C 
ATOM     13  O   UNL     1       6.393   4.272   0.521  0.00  0.00    -0.252 OA
ATOM     14  H   UNL     1       6.168   6.470  -0.875  0.00  0.00    +0.151 HD
ENDBRANCH   1   2
BRANCH   1  15
ATOM     15  C   UNL     1       4.700   1.482  -0.737  0.00  0.00    +0.116 C 
BRANCH  15  26
ATOM     16  C   UNL     1       3.777  -4.737   0.697  0.00  0.00    +0.000 A 
ATOM     17  C   UNL     1       4.869  -4.093   0.143  0.00  0.00    +0.002 A 
ATOM     18  C   UNL     1       4.814  -2.736  -0.105  0.00  0.00    +0.024 A 
ATOM     19  C   UNL     1       3.663  -2.019   0.201  0.00  0.00    +0.039 A 
ATOM     20  C   UNL     1       2.569  -2.665   0.753  0.00  0.00    -0.026 A 
ATOM     21  C   UNL     1       2.633  -4.027   1.000  0.00  0.00    +0.005 A 
ATOM     22  C   UNL     1       1.302  -1.923   1.087  0.00  0.00    +0.038 C 
ATOM     23  C   UNL     1       1.580  -0.426   1.227  0.00  0.00    +0.024 C 
ATOM     24  C   UNL     1       2.337   0.057  -0.017  0.00  0.00    +0.114 C 
ATOM     25  N   UNL     1       3.630  -0.641  -0.055  0.00  0.00    -0.271 N 
ATOM     26  C   UNL     1       4.764   0.033  -0.330  0.00  0.00    +0.221 C 
ATOM     27  O   UNL     1       5.837  -0.528  -0.250  0.00  0.00    -0.275 OA
ENDBRANCH  15  26
ENDBRANCH   1  15
TORSDOF 3
