REMARK  Name = ZINC37578153
REMARK  8 active torsions:
REMARK  status: ('A' for Active; 'I' for Inactive)
REMARK    1  A    between atoms: C_6  and  C_7
REMARK    2  A    between atoms: C_7  and  N_8
REMARK    3  A    between atoms: C_15  and  C_17
REMARK    4  A    between atoms: N_19  and  C_20
REMARK    5  A    between atoms: C_20  and  C_21
REMARK    6  A    between atoms: N_23  and  C_24
REMARK    7  A    between atoms: C_24  and  C_25
REMARK    8  A    between atoms: C_25  and  N_26
REMARK                            x       y       z     vdW  Elec       q    Type
REMARK                         _______ _______ _______ _____ _____    ______ ____
ROOT
ATOM      1  N   UNL     1      -1.726  -1.017  -1.368  0.00  0.00    -0.292 N 
ATOM      2  C   UNL     1      -2.580  -0.058  -2.051  0.00  0.00    +0.110 C 
ATOM      3  C   UNL     1      -1.808   0.943  -2.909  0.00  0.00    +0.042 C 
ATOM      4  C   UNL     1      -0.728   0.212  -3.716  0.00  0.00    +0.146 C 
ATOM      5  N   UNL     1      -1.268  -1.037  -4.260  0.00  0.00    -0.258 N 
ATOM      6  C   UNL     1      -1.559  -2.130  -3.485  0.00  0.00    +0.124 A 
ATOM      7  C   UNL     1      -2.045  -3.099  -4.298  0.00  0.00    +0.067 A 
ATOM      8  C   UNL     1      -2.025  -2.533  -5.593  0.00  0.00    +0.148 A 
ATOM      9  N   UNL     1      -1.547  -1.305  -5.483  0.00  0.00    -0.166 NA
ATOM     10  C   UNL     1      -1.331  -2.135  -2.025  0.00  0.00    +0.265 C 
ATOM     11  O   UNL     1      -0.826  -3.081  -1.452  0.00  0.00    -0.268 OA
ENDROOT
BRANCH   8  12
ATOM     12  C   UNL     1      -2.458  -3.193  -6.841  0.00  0.00    +0.265 C 
ATOM     13  O   UNL     1      -2.883  -4.332  -6.811  0.00  0.00    -0.268 OA
ATOM     14  N   UNL     1      -2.384  -2.532  -8.014  0.00  0.00    -0.301 N 
ATOM     15  H   UNL     1      -2.046  -1.624  -8.038  0.00  0.00    +0.150 HD
BRANCH  14  16
ATOM     16  C   UNL     1      -2.814  -3.187  -9.252  0.00  0.00    +0.200 C 
BRANCH  16  17
ATOM     17  C   UNL     1      -2.630  -2.241 -10.410  0.00  0.00    +0.230 C 
ATOM     18  O   UNL     1      -2.184  -1.129 -10.220  0.00  0.00    -0.274 OA
ATOM     19  N   UNL     1      -2.962  -2.630 -11.657  0.00  0.00    -0.316 N 
ATOM     20  H   UNL     1      -3.319  -3.519 -11.809  0.00  0.00    +0.149 HD
BRANCH  19  21
ATOM     21  C   UNL     1      -2.783  -1.710 -12.784  0.00  0.00    +0.086 C 
BRANCH  21  22
ATOM     22  C   UNL     1      -3.232  -2.393 -14.077  0.00  0.00    -0.060 C 
BRANCH  22  23
ATOM     23  N   UNL     1      -3.053  -1.471 -15.206  0.00  0.00    +0.381 N 
ATOM     24  C   UNL     1      -3.942  -0.316 -15.038  0.00  0.00    -0.079 C 
ATOM     25  C   UNL     1      -3.702   0.687 -16.169  0.00  0.00    -0.019 C 
ATOM     26  C   UNL     1      -3.988   0.011 -17.513  0.00  0.00    -0.004 C 
ATOM     27  C   UNL     1      -3.107  -1.235 -17.644  0.00  0.00    -0.019 C 
ATOM     28  C   UNL     1      -3.370  -2.167 -16.459  0.00  0.00    -0.079 C 
ATOM     29  H   UNL     1      -2.095  -1.155 -15.231  0.00  0.00    -0.082 HD
ENDBRANCH  22  23
ENDBRANCH  21  22
ENDBRANCH  19  21
ENDBRANCH  16  17
ENDBRANCH  14  16
ENDBRANCH   8  12
BRANCH   1  30
ATOM     30  C   UNL     1      -1.293  -0.775   0.010  0.00  0.00    +0.143 C 
BRANCH  30  36
ATOM     31  C   UNL     1      -0.017   1.378   0.010  0.00  0.00    +0.008 A 
ATOM     32  C   UNL     1       1.170   2.086   0.002  0.00  0.00    +0.038 A 
ATOM     33  C   UNL     1       2.379   1.410  -0.013  0.00  0.00    +0.123 A 
ATOM     34  C   UNL     1       2.396   0.026  -0.021  0.00  0.00    +0.038 A 
ATOM     35  C   UNL     1       1.208  -0.680  -0.013  0.00  0.00    +0.008 A 
ATOM     36  C   UNL     1       0.002  -0.004   0.002  0.00  0.00    -0.030 A 
ATOM     37  F   UNL     1       3.540   2.101  -0.021  0.00  0.00    -0.205 F 
ENDBRANCH  30  36
ENDBRANCH   1  30
TORSDOF 8
