REMARK  Name = ZINC38783397
REMARK  7 active torsions:
REMARK  status: ('A' for Active; 'I' for Inactive)
REMARK    1  A    between atoms: C_1  and  C_2
REMARK    2  A    between atoms: C_4  and  N_8
REMARK    3  A    between atoms: C_9  and  C_11
REMARK    4  A    between atoms: N_13  and  C_14
REMARK    5  A    between atoms: C_14  and  C_16
REMARK    6  A    between atoms: C_14  and  C_17
REMARK    7  A    between atoms: C_17  and  C_18
REMARK                            x       y       z     vdW  Elec       q    Type
REMARK                         _______ _______ _______ _____ _____    ______ ____
ROOT
ATOM      1  C   UNL     1      -1.441  -4.635   2.815  0.00  0.00    +0.299 C 
ATOM      2  O   UNL     1      -1.047  -4.030   3.790  0.00  0.00    -0.265 OA
ATOM      3  N   UNL     1      -1.991  -5.857   2.957  0.00  0.00    -0.305 N 
ATOM      4  H   UNL     1      -2.306  -6.341   2.177  0.00  0.00    +0.149 HD
ENDROOT
BRANCH   1   6
ATOM      5  N   UNL     1      -0.767  -2.803   1.314  0.00  0.00    -0.286 N 
ATOM      6  C   UNL     1      -1.317  -4.025   1.456  0.00  0.00    +0.300 C 
ATOM      7  O   UNL     1      -1.710  -4.630   0.481  0.00  0.00    -0.265 OA
ATOM      8  H   UNL     1      -0.452  -2.319   2.094  0.00  0.00    +0.151 HD
BRANCH   5  12
ATOM      9  C   UNL     1      -0.018   1.503   0.010  0.00  0.00    +0.088 C 
ATOM     10  C   UNL     1       0.002  -0.004   0.002  0.00  0.00    +0.121 C 
ATOM     11  C   UNL     1      -1.081  -0.752   0.003  0.00  0.00    +0.057 C 
ATOM     12  C   UNL     1      -0.645  -2.204  -0.017  0.00  0.00    +0.205 C 
ATOM     13  N   UNL     1       0.780  -2.110  -0.429  0.00  0.00    -0.131 NA
ATOM     14  O   UNL     1       1.137  -0.743  -0.013  0.00  0.00    -0.409 OA
ATOM     15  H   UNL     1       1.342  -2.796   0.054  0.00  0.00    +0.170 HD
ENDBRANCH   5  12
ENDBRANCH   1   6
BRANCH   3  16
ATOM     16  C   UNL     1      -2.113  -6.455   4.289  0.00  0.00    +0.075 C 
ATOM     17  C   UNL     1      -3.399  -5.961   4.954  0.00  0.00    +0.028 C 
BRANCH  16  18
ATOM     18  C   UNL     1      -2.158  -7.979   4.161  0.00  0.00    +0.059 C 
BRANCH  18  19
ATOM     19  C   UNL     1      -0.843  -8.477   3.619  0.00  0.00    -0.021 A 
ATOM     20  C   UNL     1       0.363  -8.773   4.396  0.00  0.00    +0.003 A 
ATOM     21  C   UNL     1       0.685  -8.706   5.753  0.00  0.00    +0.010 A 
ATOM     22  C   UNL     1       1.936  -9.062   6.172  0.00  0.00    +0.001 A 
ATOM     23  C   UNL     1       2.890  -9.488   5.260  0.00  0.00    +0.002 A 
ATOM     24  C   UNL     1       2.595  -9.562   3.916  0.00  0.00    +0.026 A 
ATOM     25  C   UNL     1       1.327  -9.205   3.467  0.00  0.00    +0.047 A 
ATOM     26  N   UNL     1       0.737  -9.170   2.223  0.00  0.00    -0.360 N 
ATOM     27  C   UNL     1      -0.557  -8.740   2.334  0.00  0.00    +0.087 A 
ATOM     28  H   UNL     1       1.173  -9.418   1.393  0.00  0.00    +0.165 HD
ENDBRANCH  18  19
ENDBRANCH  16  18
ENDBRANCH   3  16
TORSDOF 5
