REMARK  Name = ZINC12496718
REMARK  9 active torsions:
REMARK  status: ('A' for Active; 'I' for Inactive)
REMARK    1  A    between atoms: C_1  and  C_2
REMARK    2  A    between atoms: C_2  and  C_3
REMARK    3  A    between atoms: C_3  and  C_4
REMARK    4  A    between atoms: C_4  and  C_30
REMARK    5  A    between atoms: C_9  and  C_11
REMARK    6  A    between atoms: N_20  and  C_23
REMARK    7  A    between atoms: C_30  and  O_32
REMARK    8  A    between atoms: O_32  and  C_33
REMARK    9  A    between atoms: C_33  and  C_34
REMARK                            x       y       z     vdW  Elec       q    Type
REMARK                         _______ _______ _______ _____ _____    ______ ____
ROOT
ATOM      1  C   UNL     1       2.484   6.203  -0.831  0.00  0.00    +0.044 C 
ATOM      2  C   UNL     1       2.145   5.508  -2.156  0.00  0.00    +0.086 C 
ATOM      3  C   UNL     1       2.952   4.180  -1.860  0.00  0.00    +0.077 C 
ATOM      4  C   UNL     1       2.495   3.816  -0.510  0.00  0.00    -0.024 C 
ATOM      5  C   UNL     1       3.037   3.600  -3.183  0.00  0.00    +0.229 C 
ATOM      6  O   UNL     1       2.997   2.426  -3.482  0.00  0.00    -0.275 OA
ATOM      7  N   UNL     1       3.176   4.677  -4.023  0.00  0.00    -0.210 N 
ATOM      8  C   UNL     1       2.895   5.865  -3.410  0.00  0.00    +0.229 C 
ATOM      9  O   UNL     1       3.189   6.976  -3.796  0.00  0.00    -0.275 OA
ATOM     10  N   UNL     1       2.289   5.131   0.165  0.00  0.00    +0.395 N 
ATOM     11  H   UNL     1       1.336   5.180   0.545  0.00  0.00    -0.083 HD
ATOM     12  H   UNL     1       2.968   5.239   0.928  0.00  0.00    -0.083 HD
ENDROOT
BRANCH   4  13
ATOM     13  C   UNL     1       1.201   3.047  -0.581  0.00  0.00    -0.025 A 
ATOM     14  C   UNL     1      -0.006   3.715  -0.495  0.00  0.00    +0.005 A 
ATOM     15  C   UNL     1      -1.193   3.010  -0.560  0.00  0.00    +0.000 A 
ATOM     16  C   UNL     1      -1.175   1.637  -0.718  0.00  0.00    +0.003 A 
ATOM     17  C   UNL     1       0.030   0.966  -0.799  0.00  0.00    +0.038 A 
ATOM     18  C   UNL     1       1.220   1.671  -0.733  0.00  0.00    +0.125 A 
ATOM     19  F   UNL     1       2.399   1.016  -0.817  0.00  0.00    -0.205 F 
ENDBRANCH   4  13
BRANCH   7  20
ATOM     20  C   UNL     1       3.562   4.569  -5.367  0.00  0.00    +0.044 A 
ATOM     21  C   UNL     1       3.672   5.709  -6.153  0.00  0.00    +0.027 A 
ATOM     22  C   UNL     1       4.058   5.601  -7.474  0.00  0.00    +0.040 A 
ATOM     23  C   UNL     1       4.324   4.356  -8.019  0.00  0.00    +0.124 A 
ATOM     24  C   UNL     1       4.210   3.218  -7.239  0.00  0.00    +0.040 A 
ATOM     25  C   UNL     1       3.830   3.322  -5.915  0.00  0.00    +0.027 A 
ATOM     26  F   UNL     1       4.696   4.252  -9.314  0.00  0.00    -0.205 F 
ENDBRANCH   7  20
BRANCH   1  27
ATOM     27  C   UNL     1       1.558   7.366  -0.585  0.00  0.00    +0.297 C 
ATOM     28  O   UNL     1       1.021   7.918  -1.516  0.00  0.00    -0.252 OA
BRANCH  27  29
ATOM     29  O   UNL     1       1.328   7.788   0.668  0.00  0.00    -0.466 OA
BRANCH  29  30
ATOM     30  C   UNL     1       0.425   8.913   0.830  0.00  0.00    +0.228 C 
ATOM     31  C   UNL     1       0.288   9.247   2.317  0.00  0.00    +0.048 C 
ENDBRANCH  29  30
ENDBRANCH  27  29
ENDBRANCH   1  27
BRANCH   1  32
ATOM     32  C   UNL     1       3.943   6.662  -0.817  0.00  0.00    -0.001 C 
BRANCH  32  34
ATOM     33  C   UNL     1       5.687   7.878   0.497  0.00  0.00    +0.004 C 
ATOM     34  C   UNL     1       4.228   7.418   0.482  0.00  0.00    -0.004 C 
ENDBRANCH  32  34
ENDBRANCH   1  32
TORSDOF 7
