REMARK  Name = ZINC43668926
REMARK  6 active torsions:
REMARK  status: ('A' for Active; 'I' for Inactive)
REMARK    1  A    between atoms: C_1  and  C_2
REMARK    2  A    between atoms: C_4  and  N_19
REMARK    3  A    between atoms: N_5  and  C_7
REMARK    4  A    between atoms: C_7  and  C_8
REMARK    5  A    between atoms: C_11  and  S_14
REMARK    6  A    between atoms: S_14  and  C_15
REMARK                            x       y       z     vdW  Elec       q    Type
REMARK                         _______ _______ _______ _____ _____    ______ ____
ROOT
ATOM      1  C   UNL     1       0.054  -3.291   1.500  0.00  0.00    +0.180 C 
ENDROOT
BRANCH   1   6
ATOM      2  C   UNL     1      -0.018   1.503   0.010  0.00  0.00    +0.068 C 
ATOM      3  C   UNL     1       0.002  -0.004   0.002  0.00  0.00    +0.075 A 
ATOM      4  C   UNL     1       0.008  -0.815  -1.136  0.00  0.00    +0.075 A 
ATOM      5  C   UNL     1       0.028  -2.113  -0.724  0.00  0.00    +0.128 A 
ATOM      6  N   UNL     1       0.034  -2.109   0.634  0.00  0.00    -0.245 N 
ATOM      7  N   UNL     1       0.023  -0.775   1.059  0.00  0.00    -0.173 NA
ATOM      8  I   UNL     1      -0.011  -0.152  -3.124  0.00  0.00    -0.038 I 
BRANCH   5   9
ATOM      9  N   UNL     1       0.040  -3.238  -1.545  0.00  0.00    -0.342 N 
ATOM     10  H   UNL     1       0.034  -3.135  -2.509  0.00  0.00    +0.144 HD
ATOM     11  H   UNL     1       0.053  -4.125  -1.152  0.00  0.00    +0.144 HD
ENDBRANCH   5   9
ENDBRANCH   1   6
BRANCH   1  12
ATOM     12  C   UNL     1       1.482  -3.676   1.790  0.00  0.00    -0.026 A 
ATOM     13  C   UNL     1       2.142  -4.557   0.953  0.00  0.00    +0.006 A 
ATOM     14  C   UNL     1       3.450  -4.913   1.216  0.00  0.00    +0.015 A 
ATOM     15  C   UNL     1       4.103  -4.385   2.324  0.00  0.00    +0.016 A 
ATOM     16  C   UNL     1       3.437  -3.500   3.162  0.00  0.00    +0.015 A 
ATOM     17  C   UNL     1       2.130  -3.144   2.890  0.00  0.00    +0.006 A 
BRANCH  15  18
ATOM     18  S   UNL     1       5.772  -4.837   2.663  0.00  0.00    -0.016 S 
BRANCH  18  19
ATOM     19  C   UNL     1       6.178  -3.915   4.172  0.00  0.00    +0.448 C 
ATOM     20  F   UNL     1       5.309  -4.297   5.200  0.00  0.00    -0.160 F 
ATOM     21  F   UNL     1       7.496  -4.194   4.549  0.00  0.00    -0.160 F 
ATOM     22  F   UNL     1       6.042  -2.544   3.931  0.00  0.00    -0.160 F 
ENDBRANCH  18  19
ENDBRANCH  15  18
ENDBRANCH   1  12
TORSDOF 5
