REMARK  Name = ZINC11652257
REMARK  11 active torsions:
REMARK  status: ('A' for Active; 'I' for Inactive)
REMARK    1  A    between atoms: C_1  and  C_2
REMARK    2  A    between atoms: C_2  and  N_64
REMARK    3  A    between atoms: C_3  and  C_4
REMARK    4  A    between atoms: C_3  and  N_64
REMARK    5  A    between atoms: C_5  and  C_7
REMARK    6  A    between atoms: C_5  and  C_28
REMARK    7  A    between atoms: C_5  and  N_64
REMARK    8  A    between atoms: C_7  and  N_8
REMARK    9  A    between atoms: C_9  and  C_11
REMARK   10  A    between atoms: C_11  and  C_12
REMARK   11  A    between atoms: C_12  and  C_13
REMARK                            x       y       z     vdW  Elec       q    Type
REMARK                         _______ _______ _______ _____ _____    ______ ____
ROOT
ATOM      1  N   UNL     1       2.489   3.171  -2.689  0.00  0.00    -0.317 N 
ATOM      2  C   UNL     1       2.468   4.206  -1.827  0.00  0.00    +0.213 C 
ATOM      3  O   UNL     1       1.429   4.529  -1.291  0.00  0.00    -0.276 OA
ATOM      4  H   UNL     1       3.320   2.913  -3.117  0.00  0.00    +0.149 HD
ENDROOT
BRANCH   1   5
ATOM      5  C   UNL     1       1.256   2.434  -2.978  0.00  0.00    +0.093 C 
BRANCH   5   6
ATOM      6  C   UNL     1       1.552   1.316  -3.980  0.00  0.00    -0.020 C 
BRANCH   6   7
ATOM      7  C   UNL     1       0.260   0.678  -4.418  0.00  0.00    -0.059 A 
ATOM      8  C   UNL     1      -0.636   1.391  -5.192  0.00  0.00    +0.002 A 
ATOM      9  C   UNL     1      -1.820   0.803  -5.598  0.00  0.00    +0.000 A 
ATOM     10  C   UNL     1      -2.112  -0.494  -5.220  0.00  0.00    +0.000 A 
ATOM     11  C   UNL     1      -1.219  -1.205  -4.441  0.00  0.00    +0.000 A 
ATOM     12  C   UNL     1      -0.033  -0.619  -4.040  0.00  0.00    +0.002 A 
ENDBRANCH   6   7
BRANCH   6  13
ATOM     13  N   UNL     1       2.263   1.894  -5.140  0.00  0.00    +0.385 N 
ATOM     14  H   UNL     1       3.008   2.514  -4.800  0.00  0.00    -0.081 HD
BRANCH  13  16
ATOM     15  C   UNL     1       3.991   0.163  -5.143  0.00  0.00    -0.017 C 
ATOM     16  C   UNL     1       2.867   0.816  -5.950  0.00  0.00    -0.081 C 
ENDBRANCH  13  16
BRANCH  13  17
ATOM     17  C   UNL     1       1.324   2.682  -5.966  0.00  0.00    -0.081 C 
ATOM     18  C   UNL     1       0.829   3.877  -5.149  0.00  0.00    -0.017 C 
ENDBRANCH  13  17
ENDBRANCH   6  13
ENDBRANCH   5   6
ENDBRANCH   1   5
BRANCH   2  19
ATOM     19  C   UNL     1       3.736   4.964  -1.529  0.00  0.00    +0.103 C 
BRANCH  19  20
ATOM     20  C   UNL     1       3.439   6.082  -0.527  0.00  0.00    +0.083 C 
BRANCH  20  21
ATOM     21  C   UNL     1       4.708   6.839  -0.229  0.00  0.00    +0.111 A 
ATOM     22  N   UNL     1       4.673   7.881   0.641  0.00  0.00    -0.310 N 
ATOM     23  H   UNL     1       3.832   8.123   1.059  0.00  0.00    +0.170 HD
ATOM     24  C   UNL     1       5.783   8.584   0.935  0.00  0.00    +0.260 A 
ATOM     25  O   UNL     1       5.736   9.517   1.719  0.00  0.00    -0.267 OA
ATOM     26  C   UNL     1       7.021   8.218   0.312  0.00  0.00    +0.075 A 
ATOM     27  C   UNL     1       8.337   8.832   0.478  0.00  0.00    -0.023 A 
ATOM     28  C   UNL     1       9.356   8.297  -0.228  0.00  0.00    -0.004 A 
ATOM     29  S   UNL     1       8.630   6.963  -1.142  0.00  0.00    -0.073 S 
ATOM     30  C   UNL     1       6.957   7.129  -0.571  0.00  0.00    +0.116 A 
ATOM     31  N   UNL     1       5.822   6.479  -0.809  0.00  0.00    -0.227 NA
ATOM     32  C   UNL     1      10.787   8.739  -0.233  0.00  0.00    +0.043 C 
ATOM     33  C   UNL     1      10.865  10.134   0.403  0.00  0.00    +0.005 C 
ATOM     34  C   UNL     1      10.066  10.124   1.709  0.00  0.00    +0.005 C 
ATOM     35  C   UNL     1       8.571  10.023   1.403  0.00  0.00    +0.037 C 
ENDBRANCH  20  21
ENDBRANCH  19  20
ENDBRANCH   2  19
TORSDOF 9
