REMARK  Name = ZINC15303564
REMARK  3 active torsions:
REMARK  status: ('A' for Active; 'I' for Inactive)
REMARK    1  A    between atoms: C_4  and  N_7
REMARK    2  A    between atoms: C_12  and  C_29
REMARK    3  A    between atoms: C_29  and  C_30
REMARK                            x       y       z     vdW  Elec       q    Type
REMARK                         _______ _______ _______ _____ _____    ______ ____
ROOT
ATOM      1  N   UNL     1       3.624  -0.652  -0.037  0.00  0.00    -0.210 N 
ATOM      2  C   UNL     1       4.838  -0.027  -0.041  0.00  0.00    +0.232 C 
ATOM      3  O   UNL     1       5.067   1.129   0.243  0.00  0.00    -0.274 OA
ATOM      4  C   UNL     1       5.833  -1.071  -0.470  0.00  0.00    +0.108 C 
ATOM      5  C   UNL     1       7.177  -1.170   0.263  0.00  0.00    +0.072 C 
ATOM      6  N   UNL     1       7.455  -2.644   0.245  0.00  0.00    -0.295 NA
ATOM      7  C   UNL     1       6.135  -3.345   0.183  0.00  0.00    +0.136 C 
ATOM      8  C   UNL     1       5.119  -2.282   0.255  0.00  0.00    +0.123 C 
ATOM      9  C   UNL     1       3.731  -2.021  -0.046  0.00  0.00    +0.233 C 
ATOM     10  O   UNL     1       2.855  -2.831  -0.261  0.00  0.00    -0.274 OA
ATOM     11  C   UNL     1       6.058  -4.158  -1.083  0.00  0.00    +0.003 A 
ATOM     12  C   UNL     1       6.075  -3.826  -2.420  0.00  0.00    +0.008 A 
ATOM     13  C   UNL     1       5.984  -4.817  -3.381  0.00  0.00    +0.000 A 
ATOM     14  C   UNL     1       5.878  -6.141  -2.995  0.00  0.00    +0.002 A 
ATOM     15  C   UNL     1       5.863  -6.478  -1.658  0.00  0.00    +0.023 A 
ATOM     16  C   UNL     1       5.954  -5.486  -0.684  0.00  0.00    +0.039 A 
ATOM     17  N   UNL     1       5.960  -5.573   0.709  0.00  0.00    -0.283 N 
ATOM     18  C   UNL     1       6.064  -4.366   1.293  0.00  0.00    +0.243 C 
ATOM     19  O   UNL     1       6.095  -4.140   2.485  0.00  0.00    -0.273 OA
ATOM     20  H   UNL     1       8.034  -2.894  -0.542  0.00  0.00    +0.124 HD
ATOM     21  H   UNL     1       5.897  -6.408   1.199  0.00  0.00    +0.155 HD
ENDROOT
BRANCH   1  25
ATOM     22  C   UNL     1      -0.017   1.379   0.010  0.00  0.00    +0.000 A 
ATOM     23  C   UNL     1       1.170   2.089   0.002  0.00  0.00    +0.002 A 
ATOM     24  C   UNL     1       2.377   1.419  -0.013  0.00  0.00    +0.024 A 
ATOM     25  C   UNL     1       2.399   0.031  -0.021  0.00  0.00    +0.044 A 
ATOM     26  C   UNL     1       1.207  -0.680  -0.013  0.00  0.00    +0.024 A 
ATOM     27  C   UNL     1       0.002  -0.004   0.002  0.00  0.00    +0.002 A 
ENDBRANCH   1  25
BRANCH   5  28
ATOM     28  C   UNL     1       8.264  -0.400  -0.491  0.00  0.00    +0.056 C 
BRANCH  28  29
ATOM     29  C   UNL     1       9.538  -0.413   0.314  0.00  0.00    -0.021 A 
ATOM     30  C   UNL     1       9.952   0.535   1.169  0.00  0.00    +0.087 A 
ATOM     31  N   UNL     1      11.155   0.179   1.714  0.00  0.00    -0.360 N 
ATOM     32  H   UNL     1      11.652   0.706   2.359  0.00  0.00    +0.165 HD
ATOM     33  C   UNL     1      11.556  -1.038   1.209  0.00  0.00    +0.047 A 
ATOM     34  C   UNL     1      10.557  -1.465   0.315  0.00  0.00    +0.003 A 
ATOM     35  C   UNL     1      10.693  -2.685  -0.350  0.00  0.00    +0.010 A 
ATOM     36  C   UNL     1      11.796  -3.460  -0.126  0.00  0.00    +0.001 A 
ATOM     37  C   UNL     1      12.782  -3.045   0.759  0.00  0.00    +0.002 A 
ATOM     38  C   UNL     1      12.672  -1.841   1.419  0.00  0.00    +0.026 A 
ENDBRANCH  28  29
ENDBRANCH   5  28
TORSDOF 3
