REMARK  Name = ZINC10398869
REMARK  11 active torsions:
REMARK  status: ('A' for Active; 'I' for Inactive)
REMARK    1  A    between atoms: C_1  and  C_2
REMARK    2  A    between atoms: C_2  and  C_4
REMARK    3  A    between atoms: C_2  and  N_30
REMARK    4  A    between atoms: C_7  and  S_17
REMARK    5  A    between atoms: N_8  and  C_9
REMARK    6  A    between atoms: C_12  and  O_15
REMARK    7  A    between atoms: O_15  and  C_16
REMARK    8  A    between atoms: S_17  and  C_18
REMARK    9  A    between atoms: C_18  and  C_20
REMARK   10  A    between atoms: C_18  and  C_21
REMARK   11  A    between atoms: N_26  and  C_27
REMARK                            x       y       z     vdW  Elec       q    Type
REMARK                         _______ _______ _______ _____ _____    ______ ____
ROOT
ATOM      1  C   UNL     1      -1.412  -0.526   0.013  0.00  0.00    +0.125 A 
ATOM      2  N   UNL     1      -2.238  -0.538  -0.995  0.00  0.00    -0.135 NA
ATOM      3  N   UNL     1      -3.361  -1.052  -0.640  0.00  0.00    -0.122 NA
ATOM      4  C   UNL     1      -3.313  -1.400   0.625  0.00  0.00    +0.197 A 
ATOM      5  N   UNL     1      -2.064  -1.080   1.081  0.00  0.00    -0.275 N 
ENDROOT
BRANCH   5   6
ATOM      6  C   UNL     1      -1.558  -1.276   2.376  0.00  0.00    +0.050 A 
ATOM      7  C   UNL     1      -0.499  -2.150   2.582  0.00  0.00    +0.030 A 
ATOM      8  C   UNL     1      -0.001  -2.342   3.856  0.00  0.00    +0.047 A 
ATOM      9  C   UNL     1      -0.559  -1.663   4.929  0.00  0.00    +0.120 A 
ATOM     10  C   UNL     1      -1.617  -0.789   4.723  0.00  0.00    +0.047 A 
ATOM     11  C   UNL     1      -2.111  -0.592   3.449  0.00  0.00    +0.030 A 
BRANCH   9  12
ATOM     12  O   UNL     1      -0.068  -1.852   6.182  0.00  0.00    -0.495 OA
ATOM     13  C   UNL     1      -0.690  -1.120   7.240  0.00  0.00    +0.277 C 
ENDBRANCH   9  12
ENDBRANCH   5   6
BRANCH   1  15
ATOM     14  C   UNL     1      -0.019   1.526   0.010  0.00  0.00    -0.005 C 
ATOM     15  C   UNL     1       0.002  -0.004   0.002  0.00  0.00    -0.002 C 
BRANCH  15  16
ATOM     16  N   UNL     1       0.690  -0.478  -1.207  0.00  0.00    +0.386 N 
ATOM     17  C   UNL     1       0.701  -1.946  -1.218  0.00  0.00    -0.078 C 
ATOM     18  C   UNL     1       1.344  -2.445  -2.514  0.00  0.00    -0.019 C 
ATOM     19  C   UNL     1       2.781  -1.921  -2.599  0.00  0.00    -0.004 C 
ATOM     20  C   UNL     1       2.762  -0.392  -2.511  0.00  0.00    -0.019 C 
ATOM     21  C   UNL     1       2.067   0.031  -1.216  0.00  0.00    -0.078 C 
ATOM     22  H   UNL     1       0.202  -0.141  -2.023  0.00  0.00    -0.081 HD
ENDBRANCH  15  16
ENDBRANCH   1  15
BRANCH   4  23
ATOM     23  S   UNL     1      -4.610  -2.145   1.557  0.00  0.00    -0.073 S 
BRANCH  23  24
ATOM     24  C   UNL     1      -5.971  -2.301   0.368  0.00  0.00    +0.137 C 
ATOM     25  C   UNL     1      -5.570  -3.278  -0.740  0.00  0.00    +0.029 C 
BRANCH  24  26
ATOM     26  C   UNL     1      -7.198  -2.819   1.074  0.00  0.00    +0.233 C 
ATOM     27  O   UNL     1      -7.089  -3.393   2.136  0.00  0.00    -0.274 OA
ATOM     28  N   UNL     1      -8.416  -2.642   0.525  0.00  0.00    -0.239 N 
ATOM     29  C   UNL     1      -9.513  -3.105   1.156  0.00  0.00    +0.306 C 
ATOM     30  O   UNL     1      -9.404  -3.681   2.220  0.00  0.00    -0.252 OA
ATOM     31  N   UNL     1     -10.731  -2.929   0.606  0.00  0.00    -0.296 N 
ATOM     32  H   UNL     1      -8.503  -2.183  -0.325  0.00  0.00    +0.159 HD
ATOM     33  H   UNL     1     -10.818  -2.469  -0.243  0.00  0.00    +0.151 HD
BRANCH  31  34
ATOM     34  C   UNL     1     -11.924  -3.432   1.293  0.00  0.00    +0.075 C 
ATOM     35  C   UNL     1     -12.978  -4.147   0.445  0.00  0.00    +0.024 C 
ATOM     36  C   UNL     1     -13.257  -2.745   0.988  0.00  0.00    +0.024 C 
ENDBRANCH  31  34
ENDBRANCH  24  26
ENDBRANCH  23  24
ENDBRANCH   4  23
TORSDOF 8
