REMARK  Name = ZINC05357407
REMARK  7 active torsions:
REMARK  status: ('A' for Active; 'I' for Inactive)
REMARK    1  A    between atoms: C_1  and  C_2
REMARK    2  A    between atoms: C_9  and  S_12
REMARK    3  A    between atoms: S_12  and  C_13
REMARK    4  A    between atoms: C_13  and  C_15
REMARK    5  A    between atoms: C_13  and  C_16
REMARK    6  A    between atoms: C_16  and  C_18
REMARK    7  A    between atoms: C_19  and  C_28
REMARK                            x       y       z     vdW  Elec       q    Type
REMARK                         _______ _______ _______ _____ _____    ______ ____
ROOT
ATOM      1  C   UNL     1      -0.769   1.676   1.477  0.00  0.00    +0.122 C 
ATOM      2  C   UNL     1       0.187   1.104   0.428  0.00  0.00    +0.028 C 
ENDROOT
BRANCH   1   3
ATOM      3  C   UNL     1      -2.161   1.159   1.223  0.00  0.00    +0.178 C 
ATOM      4  O   UNL     1      -2.937   1.807   0.551  0.00  0.00    -0.291 OA
BRANCH   3   5
ATOM      5  C   UNL     1      -2.566  -0.085   1.770  0.00  0.00    +0.046 A 
ATOM      6  C   UNL     1      -3.068  -0.309   3.034  0.00  0.00    +0.024 A 
ATOM      7  N   UNL     1      -3.340  -1.620   3.186  0.00  0.00    -0.358 N 
ATOM      8  H   UNL     1      -3.701  -2.018   3.994  0.00  0.00    +0.166 HD
ATOM      9  C   UNL     1      -3.032  -2.319   2.037  0.00  0.00    +0.047 A 
ATOM     10  C   UNL     1      -2.541  -1.399   1.097  0.00  0.00    +0.010 A 
ATOM     11  C   UNL     1      -2.144  -1.831  -0.164  0.00  0.00    +0.011 A 
ATOM     12  C   UNL     1      -2.244  -3.167  -0.490  0.00  0.00    +0.001 A 
ATOM     13  C   UNL     1      -2.733  -4.078   0.435  0.00  0.00    +0.002 A 
ATOM     14  C   UNL     1      -3.126  -3.663   1.689  0.00  0.00    +0.026 A 
ATOM     15  C   UNL     1      -3.281   0.750   4.085  0.00  0.00    +0.064 C 
ENDBRANCH   3   5
ENDBRANCH   1   3
BRANCH   1  16
ATOM     16  S   UNL     1      -0.768   3.483   1.373  0.00  0.00    -0.077 S 
BRANCH  16  25
ATOM     17  C   UNL     1       6.584   3.388   3.559  0.00  0.00    +0.044 C 
ATOM     18  C   UNL     1       5.237   3.909   3.130  0.00  0.00    -0.048 A 
ATOM     19  C   UNL     1       5.039   5.275   2.992  0.00  0.00    +0.005 A 
ATOM     20  C   UNL     1       3.812   5.768   2.600  0.00  0.00    +0.028 A 
ATOM     21  C   UNL     1       2.768   4.894   2.341  0.00  0.00    +0.067 A 
ATOM     22  C   UNL     1       2.962   3.509   2.478  0.00  0.00    +0.090 A 
ATOM     23  C   UNL     1       4.211   3.026   2.876  0.00  0.00    +0.033 A 
ATOM     24  N   UNL     1       1.785   2.907   2.163  0.00  0.00    -0.222 NA
ATOM     25  C   UNL     1       0.896   3.816   1.847  0.00  0.00    +0.168 A 
ATOM     26  N   UNL     1       1.454   5.060   1.935  0.00  0.00    -0.333 N 
ATOM     27  H   UNL     1       0.998   5.929   1.742  0.00  0.00    +0.168 HD
ENDBRANCH  16  25
ENDBRANCH   1  16
TORSDOF 4
