REMARK  Name = ZINC31040533
REMARK  11 active torsions:
REMARK  status: ('A' for Active; 'I' for Inactive)
REMARK    1  A    between atoms: C_1  and  C_2
REMARK    2  A    between atoms: C_2  and  C_4
REMARK    3  A    between atoms: C_2  and  N_17
REMARK    4  A    between atoms: N_6  and  C_7
REMARK    5  A    between atoms: C_12  and  N_13
REMARK    6  A    between atoms: N_17  and  C_18
REMARK    7  A    between atoms: N_17  and  C_19
REMARK    8  A    between atoms: C_19  and  C_20
REMARK    9  A    between atoms: N_22  and  C_23
REMARK   10  A    between atoms: C_28  and  S_29
REMARK   11  A    between atoms: S_29  and  C_30
REMARK                            x       y       z     vdW  Elec       q    Type
REMARK                         _______ _______ _______ _____ _____    ______ ____
ROOT
ATOM      1  C   UNL     1       0.679   3.668   1.332  0.00  0.00    -0.004 C 
ATOM      2  C   UNL     1      -0.727   3.064   1.337  0.00  0.00    +0.017 C 
ENDROOT
BRANCH   2   3
ATOM      3  C   UNL     1      -1.436   3.454   2.609  0.00  0.00    +0.203 C 
ATOM      4  O   UNL     1      -1.794   2.598   3.390  0.00  0.00    -0.277 OA
ATOM      5  N   UNL     1      -1.673   4.753   2.878  0.00  0.00    -0.285 N 
ATOM      6  H   UNL     1      -1.425   5.523   2.132  0.00  0.00    +0.155 HD
BRANCH   5   7
ATOM      7  C   UNL     1      -2.234   5.123   4.105  0.00  0.00    +0.064 A 
ATOM      8  C   UNL     1      -1.916   4.415   5.257  0.00  0.00    +0.027 A 
ATOM      9  C   UNL     1      -2.471   4.782   6.467  0.00  0.00    +0.022 A 
ATOM     10  C   UNL     1      -3.344   5.854   6.533  0.00  0.00    +0.043 A 
ATOM     11  C   UNL     1      -3.663   6.561   5.387  0.00  0.00    +0.054 A 
ATOM     12  C   UNL     1      -3.106   6.201   4.175  0.00  0.00    +0.149 A 
ATOM     13 CL   UNL     1      -4.041   6.312   8.055  0.00  0.00    -0.083 Cl
BRANCH  12  14
ATOM     14  N   UNL     1      -3.442   6.962   2.950  0.00  0.00    +0.058 N 
ATOM     15  O   UNL     1      -4.125   7.967   3.026  0.00  0.00    -0.126 OA
ATOM     16  O   UNL     1      -3.037   6.582   1.867  0.00  0.00    -0.126 OA
ENDBRANCH  12  14
ENDBRANCH   5   7
ENDBRANCH   2   3
BRANCH   2  17
ATOM     17  N   UNL     1      -0.632   1.601   1.258  0.00  0.00    +0.391 N 
ATOM     18  C   UNL     1      -0.212   1.172  -0.083  0.00  0.00    -0.094 C 
ATOM     19  H   UNL     1      -1.633   1.186   1.448  0.00  0.00    -0.080 HD
BRANCH  17  20
ATOM     20  C   UNL     1       0.277   1.076   2.287  0.00  0.00    +0.020 C 
BRANCH  20  21
ATOM     21  C   UNL     1       0.163  -0.426   2.338  0.00  0.00    +0.201 C 
ATOM     22  O   UNL     1      -0.600  -1.002   1.592  0.00  0.00    -0.278 OA
ATOM     23  N   UNL     1       0.908  -1.128   3.214  0.00  0.00    -0.286 N 
ATOM     24  H   UNL     1       1.544  -0.602   3.941  0.00  0.00    +0.155 HD
BRANCH  23  25
ATOM     25  C   UNL     1       0.874  -2.529   3.198  0.00  0.00    +0.047 A 
ATOM     26  C   UNL     1      -0.303  -3.192   2.885  0.00  0.00    +0.024 A 
ATOM     27  C   UNL     1      -0.334  -4.574   2.865  0.00  0.00    +0.002 A 
ATOM     28  C   UNL     1       0.804  -5.300   3.166  0.00  0.00    +0.001 A 
ATOM     29  C   UNL     1       1.980  -4.648   3.485  0.00  0.00    +0.016 A 
ATOM     30  C   UNL     1       2.022  -3.261   3.502  0.00  0.00    +0.029 A 
BRANCH  30  31
ATOM     31  S   UNL     1       3.520  -2.427   3.909  0.00  0.00    -0.127 S 
ATOM     32  C   UNL     1       4.699  -3.770   4.219  0.00  0.00    +0.090 C 
ENDBRANCH  30  31
ENDBRANCH  23  25
ENDBRANCH  20  21
ENDBRANCH  17  20
ENDBRANCH   2  17
TORSDOF 8
