REMARK  Name = ZINC36597723
REMARK  19 active torsions:
REMARK  status: ('A' for Active; 'I' for Inactive)
REMARK    1  A    between atoms: C_1  and  C_2
REMARK    2  A    between atoms: C_5  and  C_7
REMARK    3  A    between atoms: C_7  and  N_8
REMARK    4  A    between atoms: N_8  and  C_9
REMARK    5  A    between atoms: C_9  and  C_11
REMARK    6  A    between atoms: C_9  and  C_20
REMARK    7  A    between atoms: C_11  and  C_13
REMARK    8  A    between atoms: C_11  and  C_14
REMARK    9  A    between atoms: N_22  and  C_23
REMARK   10  A    between atoms: C_23  and  C_24
REMARK   11  A    between atoms: C_23  and  C_25
REMARK   12  A    between atoms: C_23  and  C_26
REMARK   13  A    between atoms: C_26  and  C_27
REMARK   14  A    between atoms: C_27  and  C_28
REMARK   15  A    between atoms: C_27  and  C_29
REMARK   16  A    between atoms: C_27  and  C_30
REMARK   17  A    between atoms: C_31  and  C_33
REMARK   18  A    between atoms: C_37  and  O_40
REMARK   19  A    between atoms: C_38  and  O_39
REMARK                            x       y       z     vdW  Elec       q    Type
REMARK                         _______ _______ _______ _____ _____    ______ ____
ROOT
ATOM      1  C   UNL     1       2.244  -2.463  -4.343  0.00  0.00    +0.170 C 
ENDROOT
BRANCH   1   2
ATOM      2  C   UNL     1       2.717  -3.886  -4.193  0.00  0.00    +0.235 C 
ATOM      3  O   UNL     1       2.014  -4.704  -3.639  0.00  0.00    -0.274 OA
ATOM      4  N   UNL     1       3.922  -4.249  -4.675  0.00  0.00    -0.309 N 
ATOM      5  H   UNL     1       4.482  -3.597  -5.125  0.00  0.00    +0.149 HD
BRANCH   4   6
ATOM      6  C   UNL     1       4.387  -5.630  -4.519  0.00  0.00    +0.030 C 
ATOM      7  C   UNL     1       4.341  -6.020  -3.041  0.00  0.00    +0.031 C 
ATOM      8  C   UNL     1       3.482  -6.566  -5.322  0.00  0.00    +0.031 C 
BRANCH   6   9
ATOM      9  C   UNL     1       5.824  -5.745  -5.033  0.00  0.00    +0.031 C 
BRANCH   9  10
ATOM     10  C   UNL     1       6.763  -4.985  -4.094  0.00  0.00    -0.036 C 
ATOM     11  C   UNL     1       7.081  -5.856  -2.877  0.00  0.00    +0.010 C 
ATOM     12  C   UNL     1       8.060  -4.649  -4.833  0.00  0.00    +0.010 C 
ATOM     13  C   UNL     1       6.088  -3.692  -3.634  0.00  0.00    +0.010 C 
ENDBRANCH   9  10
ENDBRANCH   6   9
ENDBRANCH   4   6
ENDBRANCH   1   2
BRANCH   1  14
ATOM     14  N   UNL     1       0.941  -2.310  -3.689  0.00  0.00    -0.278 N 
ATOM     15  C   UNL     1      -0.027  -3.225  -3.894  0.00  0.00    +0.251 C 
ATOM     16  O   UNL     1      -1.085  -3.134  -3.302  0.00  0.00    -0.270 OA
BRANCH  15  17
ATOM     17  C   UNL     1       0.197  -4.337  -4.839  0.00  0.00    +0.082 A 
ATOM     18  C   UNL     1       1.340  -4.356  -5.642  0.00  0.00    +0.017 A 
ATOM     19  C   UNL     1       1.546  -5.396  -6.522  0.00  0.00    +0.005 A 
ATOM     20  C   UNL     1       0.624  -6.426  -6.617  0.00  0.00    +0.049 A 
ATOM     21  C   UNL     1      -0.514  -6.420  -5.828  0.00  0.00    +0.159 A 
ATOM     22  C   UNL     1      -0.733  -5.379  -4.930  0.00  0.00    +0.171 A 
BRANCH  22  23
ATOM     23  O   UNL     1      -1.844  -5.373  -4.151  0.00  0.00    -0.503 OA
ATOM     24  H   UNL     1      -2.603  -4.927  -4.551  0.00  0.00    +0.292 HD
ENDBRANCH  22  23
BRANCH  21  25
ATOM     25  O   UNL     1      -1.415  -7.434  -5.927  0.00  0.00    -0.503 OA
ATOM     26  H   UNL     1      -1.242  -8.173  -5.328  0.00  0.00    +0.292 HD
ENDBRANCH  21  25
ENDBRANCH  15  17
BRANCH  14  27
ATOM     27  C   UNL     1       0.692  -1.163  -2.813  0.00  0.00    +0.183 C 
BRANCH  27  32
ATOM     28  C   UNL     1      -0.025   3.012  -5.550  0.00  0.00    +0.086 C 
ATOM     29  C   UNL     1      -0.303   1.744  -4.786  0.00  0.00    +0.102 A 
ATOM     30  C   UNL     1      -1.514   1.188  -4.598  0.00  0.00    +0.045 A 
ATOM     31  C   UNL     1      -1.313   0.018  -3.831  0.00  0.00    +0.046 A 
ATOM     32  C   UNL     1       0.008  -0.072  -3.596  0.00  0.00    +0.122 A 
ATOM     33  O   UNL     1       0.615   0.973  -4.181  0.00  0.00    -0.463 OA
ENDBRANCH  27  32
ENDBRANCH  14  27
ENDBRANCH   1  14
BRANCH   1  34
ATOM     34  C   UNL     1       2.112  -2.123  -5.828  0.00  0.00    +0.045 C 
ATOM     35  C   UNL     1       1.770  -0.639  -5.984  0.00  0.00    +0.015 C 
BRANCH  34  36
ATOM     36  C   UNL     1       3.414  -2.413  -6.528  0.00  0.00    -0.042 A 
ATOM     37  C   UNL     1       4.581  -1.812  -6.095  0.00  0.00    +0.004 A 
ATOM     38  C   UNL     1       5.776  -2.078  -6.736  0.00  0.00    +0.000 A 
ATOM     39  C   UNL     1       5.805  -2.947  -7.811  0.00  0.00    +0.000 A 
ATOM     40  C   UNL     1       4.638  -3.550  -8.244  0.00  0.00    +0.000 A 
ATOM     41  C   UNL     1       3.444  -3.286  -7.599  0.00  0.00    +0.004 A 
ENDBRANCH  34  36
ENDBRANCH   1  34
TORSDOF 12
