REMARK  Name = ZINC39838311
REMARK  10 active torsions:
REMARK  status: ('A' for Active; 'I' for Inactive)
REMARK    1  A    between atoms: C_1  and  C_2
REMARK    2  A    between atoms: C_2  and  C_3
REMARK    3  A    between atoms: C_3  and  C_4
REMARK    4  A    between atoms: C_4  and  C_5
REMARK    5  A    between atoms: C_5  and  O_6
REMARK    6  A    between atoms: O_6  and  C_7
REMARK    7  A    between atoms: C_11  and  C_13
REMARK    8  A    between atoms: C_32  and  C_34
REMARK    9  A    between atoms: C_34  and  C_35
REMARK   10  A    between atoms: C_35  and  C_36
REMARK                            x       y       z     vdW  Elec       q    Type
REMARK                         _______ _______ _______ _____ _____    ______ ____
ROOT
ATOM      1  C   UNL     1       2.909  -8.102   4.674  0.00  0.00    +0.152 C 
ATOM      2  C   UNL     1       1.881  -8.627   5.622  0.00  0.00    +0.072 A 
ATOM      3  C   UNL     1       0.419  -8.515   5.622  0.00  0.00    +0.199 A 
ATOM      4  O   UNL     1      -0.216  -8.075   4.679  0.00  0.00    -0.287 OA
ATOM      5  C   UNL     1      -0.214  -8.988   6.879  0.00  0.00    +0.066 A 
ATOM      6  C   UNL     1      -1.570  -8.764   7.114  0.00  0.00    +0.035 A 
ATOM      7  C   UNL     1      -2.140  -9.205   8.288  0.00  0.00    +0.042 A 
ATOM      8  C   UNL     1      -1.365  -9.867   9.231  0.00  0.00    +0.023 A 
ATOM      9  C   UNL     1      -0.026 -10.095   9.009  0.00  0.00    +0.048 A 
ATOM     10  C   UNL     1       0.574  -9.661   7.827  0.00  0.00    +0.140 A 
ATOM     11  O   UNL     1       1.889  -9.907   7.630  0.00  0.00    -0.450 OA
ATOM     12  C   UNL     1       2.535  -9.303   6.613  0.00  0.00    +0.199 A 
ATOM     13  C   UNL     1       3.981  -9.230   6.345  0.00  0.00    +0.289 C 
ATOM     14  O   UNL     1       4.844  -9.728   7.041  0.00  0.00    -0.266 OA
ATOM     15  N   UNL     1       4.210  -8.532   5.212  0.00  0.00    -0.230 N 
ATOM     16  C   UNL     1       5.452  -8.266   4.652  0.00  0.00    +0.191 A 
ATOM     17  N   UNL     1       5.767  -7.590   3.555  0.00  0.00    -0.125 NA
ATOM     18  N   UNL     1       6.964  -7.441   3.186  0.00  0.00    -0.145 NA
ATOM     19  C   UNL     1       7.976  -7.946   3.864  0.00  0.00    +0.104 A 
ATOM     20  S   UNL     1       7.090  -8.731   5.208  0.00  0.00    -0.035 S 
ATOM     21 CL   UNL     1      -3.828  -8.932   8.590  0.00  0.00    -0.084 Cl
ENDROOT
BRANCH   1  26
ATOM     22  C   UNL     1       2.146  -4.591   3.504  0.00  0.00    +0.121 A 
ATOM     23  C   UNL     1       2.722  -3.834   4.514  0.00  0.00    +0.045 A 
ATOM     24  C   UNL     1       3.355  -4.461   5.570  0.00  0.00    +0.004 A 
ATOM     25  C   UNL     1       3.415  -5.841   5.621  0.00  0.00    +0.006 A 
ATOM     26  C   UNL     1       2.842  -6.598   4.615  0.00  0.00    -0.019 A 
ATOM     27  C   UNL     1       2.202  -5.976   3.560  0.00  0.00    +0.051 A 
BRANCH  22  28
ATOM     28  O   UNL     1       1.522  -3.976   2.465  0.00  0.00    -0.492 OA
BRANCH  28  29
ATOM     29  C   UNL     1       1.503  -2.548   2.473  0.00  0.00    +0.229 C 
BRANCH  29  30
ATOM     30  C   UNL     1       0.763  -2.041   1.233  0.00  0.00    +0.041 C 
BRANCH  30  31
ATOM     31  C   UNL     1       0.742  -0.511   1.242  0.00  0.00    +0.003 C 
BRANCH  31  33
ATOM     32  C   UNL     1      -0.019   1.526   0.010  0.00  0.00    +0.004 C 
ATOM     33  C   UNL     1       0.002  -0.004   0.002  0.00  0.00    -0.003 C 
ENDBRANCH  31  33
ENDBRANCH  30  31
ENDBRANCH  29  30
ENDBRANCH  28  29
ENDBRANCH  22  28
ENDBRANCH   1  26
BRANCH  19  34
ATOM     34  C   UNL     1       9.456  -7.879   3.589  0.00  0.00    +0.064 C 
BRANCH  34  35
ATOM     35  C   UNL     1      10.045  -6.642   4.269  0.00  0.00    +0.003 C 
ATOM     36  C   UNL     1      11.548  -6.573   3.990  0.00  0.00    +0.004 C 
ENDBRANCH  34  35
ENDBRANCH  19  34
TORSDOF 8
