REMARK  Name = ZINC12199980
REMARK  4 active torsions:
REMARK  status: ('A' for Active; 'I' for Inactive)
REMARK    1  A    between atoms: C_1  and  C_2
REMARK    2  A    between atoms: N_11  and  N_12
REMARK    3  A    between atoms: C_13  and  C_14
REMARK    4  A    between atoms: C_19  and  O_20
REMARK                            x       y       z     vdW  Elec       q    Type
REMARK                         _______ _______ _______ _____ _____    ______ ____
ROOT
ATOM      1  C   UNL     1      -0.244   3.747  -0.931  0.00  0.00    +0.008 C 
ATOM      2  C   UNL     1       0.294   2.940   0.252  0.00  0.00    -0.009 C 
ATOM      3  C   UNL     1       1.820   2.853   0.163  0.00  0.00    +0.010 C 
ATOM      4  C   UNL     1       2.350   1.849   1.188  0.00  0.00    +0.056 C 
ATOM      5  C   UNL     1       1.797   2.212   2.561  0.00  0.00    +0.054 A 
ATOM      6  C   UNL     1       0.708   3.015   2.670  0.00  0.00    +0.015 A 
ATOM      7  S   UNL     1       0.479   3.127   4.424  0.00  0.00    -0.056 S 
ATOM      8  C   UNL     1       1.820   2.118   4.878  0.00  0.00    +0.178 A 
ATOM      9  N   UNL     1       2.323   1.784   3.707  0.00  0.00    -0.228 NA
ATOM     10  N   UNL     1       2.249   1.758   6.145  0.00  0.00    -0.215 N 
ATOM     11  C   UNL     1      -0.084   3.636   1.570  0.00  0.00    +0.047 C 
ATOM     12  H   UNL     1       1.776   2.082   6.927  0.00  0.00    +0.176 HD
ENDROOT
BRANCH  10  13
ATOM     13  N   UNL     1       3.366   0.926   6.296  0.00  0.00    -0.188 NA
ATOM     14  C   UNL     1       3.704   0.501   7.475  0.00  0.00    +0.141 C 
BRANCH  14  15
ATOM     15  C   UNL     1       2.784   0.675   8.613  0.00  0.00    +0.036 A 
ATOM     16  C   UNL     1       1.408   0.777   8.394  0.00  0.00    +0.013 A 
ATOM     17  C   UNL     1       0.552   0.935   9.464  0.00  0.00    +0.001 A 
ATOM     18  C   UNL     1       1.051   1.003  10.754  0.00  0.00    +0.004 A 
ATOM     19  C   UNL     1       2.411   0.908  10.982  0.00  0.00    +0.046 A 
ATOM     20  C   UNL     1       3.284   0.745   9.920  0.00  0.00    +0.125 A 
BRANCH  20  21
ATOM     21  O   UNL     1       4.621   0.652  10.144  0.00  0.00    -0.506 OA
ATOM     22  H   UNL     1       5.093   1.492  10.060  0.00  0.00    +0.292 HD
ENDBRANCH  20  21
ENDBRANCH  14  15
ENDBRANCH  10  13
TORSDOF 3
