REMARK  Name = ZINC01431637
REMARK  4 active torsions:
REMARK  status: ('A' for Active; 'I' for Inactive)
REMARK    1  A    between atoms: C_1  and  C_2
REMARK    2  A    between atoms: C_12  and  C_15
REMARK    3  A    between atoms: C_15  and  N_16
REMARK    4  A    between atoms: N_16  and  C_17
REMARK                            x       y       z     vdW  Elec       q    Type
REMARK                         _______ _______ _______ _____ _____    ______ ____
ROOT
ATOM      1  C   UNL     1      -1.397   6.058   0.047  0.00  0.00    +0.068 C 
ATOM      2  C   UNL     1      -0.089   5.310   0.030  0.00  0.00    +0.067 A 
ATOM      3  C   UNL     1      -0.089   3.847   0.023  0.00  0.00    +0.008 A 
ATOM      4  C   UNL     1      -1.277   3.112   0.030  0.00  0.00    +0.010 A 
ATOM      5  C   UNL     1      -1.229   1.747   0.017  0.00  0.00    +0.001 A 
ATOM      6  C   UNL     1      -0.013   1.076   0.008  0.00  0.00    +0.001 A 
ATOM      7  C   UNL     1       1.175   1.774   0.000  0.00  0.00    +0.012 A 
ATOM      8  C   UNL     1       1.151   3.168   0.008  0.00  0.00    +0.030 A 
ATOM      9  C   UNL     1       2.377   3.969  -0.000  0.00  0.00    +0.186 A 
ATOM     10  N   UNL     1       3.661   3.677  -0.014  0.00  0.00    -0.127 NA
ATOM     11  N   UNL     1       4.348   4.764  -0.016  0.00  0.00    -0.131 NA
ATOM     12  C   UNL     1       3.552   5.802  -0.003  0.00  0.00    +0.172 A 
ATOM     13  N   UNL     1       2.274   5.338   0.007  0.00  0.00    -0.195 N 
ATOM     14  N   UNL     1       1.031   5.969   0.022  0.00  0.00    -0.168 NA
ENDROOT
BRANCH  12  15
ATOM     15  C   UNL     1       3.974   7.249  -0.001  0.00  0.00    +0.179 C 
BRANCH  15  16
ATOM     16  N   UNL     1       4.098   7.724  -1.382  0.00  0.00    -0.337 N 
ATOM     17  H   UNL     1       3.914   7.122  -2.120  0.00  0.00    +0.147 HD
BRANCH  16  18
ATOM     18  C   UNL     1       4.480   9.043  -1.635  0.00  0.00    +0.027 A 
ATOM     19  C   UNL     1       4.738   9.908  -0.579  0.00  0.00    +0.023 A 
ATOM     20  C   UNL     1       5.120  11.210  -0.833  0.00  0.00    +0.002 A 
ATOM     21  C   UNL     1       5.236  11.657  -2.137  0.00  0.00    +0.000 A 
ATOM     22  C   UNL     1       4.975  10.800  -3.190  0.00  0.00    +0.002 A 
ATOM     23  C   UNL     1       4.598   9.495  -2.943  0.00  0.00    +0.023 A 
ENDBRANCH  16  18
ENDBRANCH  15  16
ENDBRANCH  12  15
TORSDOF 3
