REMARK  Name = ZINC09430635
REMARK  11 active torsions:
REMARK  status: ('A' for Active; 'I' for Inactive)
REMARK    1  A    between atoms: C_1  and  C_2
REMARK    2  A    between atoms: C_7  and  N_12
REMARK    3  A    between atoms: C_9  and  C_11
REMARK    4  A    between atoms: C_13  and  C_15
REMARK    5  A    between atoms: C_18  and  C_21
REMARK    6  A    between atoms: C_21  and  N_22
REMARK    7  A    between atoms: N_22  and  S_23
REMARK    8  A    between atoms: S_23  and  C_26
REMARK    9  A    between atoms: C_32  and  C_37
REMARK   10  A    between atoms: C_32  and  C_38
REMARK   11  A    between atoms: N_35  and  C_36
REMARK                            x       y       z     vdW  Elec       q    Type
REMARK                         _______ _______ _______ _____ _____    ______ ____
ROOT
ATOM      1  C   UNL     1      -5.420   2.697   8.374  0.00  0.00    +0.141 C 
ENDROOT
BRANCH   1   5
ATOM      2  C   UNL     1      -3.419   1.317   4.856  0.00  0.00    +0.037 A 
ATOM      3  C   UNL     1      -4.196   2.476   4.811  0.00  0.00    +0.013 A 
ATOM      4  C   UNL     1      -4.843   2.913   5.949  0.00  0.00    +0.006 A 
ATOM      5  C   UNL     1      -4.715   2.211   7.134  0.00  0.00    -0.032 A 
ATOM      6  C   UNL     1      -3.942   1.064   7.186  0.00  0.00    +0.006 A 
ATOM      7  C   UNL     1      -3.294   0.614   6.055  0.00  0.00    +0.013 A 
BRANCH   2   9
ATOM      8  N   UNL     1      -2.850   1.522   2.483  0.00  0.00    -0.308 N 
ATOM      9  C   UNL     1      -2.727   0.841   3.639  0.00  0.00    +0.244 C 
ATOM     10  O   UNL     1      -2.047  -0.166   3.682  0.00  0.00    -0.270 OA
ATOM     11  H   UNL     1      -3.393   2.325   2.449  0.00  0.00    +0.149 HD
BRANCH   8  17
ATOM     12  C   UNL     1      -2.167  -0.467  -1.229  0.00  0.00    +0.008 C 
ATOM     13  C   UNL     1      -2.188   1.063  -1.221  0.00  0.00    -0.009 C 
ATOM     14  C   UNL     1      -0.753   1.593  -1.232  0.00  0.00    +0.003 C 
ATOM     15  C   UNL     1      -0.013   1.086   0.008  0.00  0.00    +0.002 C 
ATOM     16  C   UNL     1      -0.729   1.579   1.267  0.00  0.00    +0.022 C 
ATOM     17  C   UNL     1      -2.164   1.050   1.278  0.00  0.00    +0.076 C 
ATOM     18  C   UNL     1      -2.904   1.556   0.038  0.00  0.00    +0.009 C 
ATOM     19  C   UNL     1      -4.340   1.027   0.049  0.00  0.00    +0.009 C 
ENDBRANCH   8  17
ENDBRANCH   2   9
ENDBRANCH   1   5
BRANCH   1  20
ATOM     20  N   UNL     1      -4.543   3.615   9.106  0.00  0.00    -0.186 NA
ATOM     21  H   UNL     1      -3.597   3.653   8.896  0.00  0.00    +0.148 HD
BRANCH  20  22
ATOM     22  S   UNL     1      -5.168   4.587  10.293  0.00  0.00    +0.059 S 
ATOM     23  O   UNL     1      -4.079   5.329  10.824  0.00  0.00    -0.153 OA
ATOM     24  O   UNL     1      -6.319   5.211   9.742  0.00  0.00    -0.153 OA
BRANCH  22  25
ATOM     25  C   UNL     1      -5.736   3.532  11.584  0.00  0.00    +0.106 A 
ATOM     26  C   UNL     1      -7.038   3.065  11.576  0.00  0.00    +0.030 A 
ATOM     27  C   UNL     1      -7.487   2.234  12.581  0.00  0.00    +0.026 A 
ATOM     28  C   UNL     1      -6.634   1.868  13.620  0.00  0.00    +0.040 A 
ATOM     29  C   UNL     1      -5.331   2.349  13.621  0.00  0.00    -0.010 A 
ATOM     30  C   UNL     1      -4.883   3.173  12.613  0.00  0.00    +0.035 A 
ATOM     31  C   UNL     1      -4.670   1.784  14.857  0.00  0.00    +0.068 C 
ATOM     32  C   UNL     1      -5.756   0.956  15.510  0.00  0.00    +0.230 C 
ATOM     33  O   UNL     1      -5.658   0.320  16.538  0.00  0.00    -0.274 OA
ATOM     34  N   UNL     1      -6.850   1.059  14.736  0.00  0.00    -0.273 N 
ATOM     35  C   UNL     1      -8.123   0.397  15.030  0.00  0.00    +0.138 C 
ATOM     36  C   UNL     1      -3.481   0.901  14.473  0.00  0.00    +0.025 C 
ATOM     37  C   UNL     1      -4.222   2.912  15.789  0.00  0.00    +0.025 C 
ENDBRANCH  22  25
ENDBRANCH  20  22
ENDBRANCH   1  20
TORSDOF 6
