REMARK  Name = ZINC23486348
REMARK  10 active torsions:
REMARK  status: ('A' for Active; 'I' for Inactive)
REMARK    1  A    between atoms: C_1  and  C_2
REMARK    2  A    between atoms: C_2  and  C_3
REMARK    3  A    between atoms: C_3  and  C_4
REMARK    4  A    between atoms: C_4  and  C_5
REMARK    5  A    between atoms: C_5  and  N_6
REMARK    6  A    between atoms: C_19  and  S_20
REMARK    7  A    between atoms: S_20  and  C_21
REMARK    8  A    between atoms: C_21  and  C_22
REMARK    9  A    between atoms: C_28  and  C_34
REMARK   10  A    between atoms: C_29  and  C_33
REMARK                            x       y       z     vdW  Elec       q    Type
REMARK                         _______ _______ _______ _____ _____    ______ ____
ROOT
ATOM      1  N   UNL     1       1.475  -3.986  -2.532  0.00  0.00    -0.277 N 
ATOM      2  C   UNL     1       2.503  -4.638  -1.954  0.00  0.00    +0.263 A 
ATOM      3  O   UNL     1       3.410  -4.022  -1.427  0.00  0.00    -0.267 OA
ATOM      4  C   UNL     1       2.509  -6.113  -1.969  0.00  0.00    +0.064 A 
ATOM      5  C   UNL     1       3.546  -6.839  -1.386  0.00  0.00    +0.015 A 
ATOM      6  C   UNL     1       3.515  -8.217  -1.421  0.00  0.00    +0.001 A 
ATOM      7  C   UNL     1       2.462  -8.880  -2.031  0.00  0.00    +0.002 A 
ATOM      8  C   UNL     1       1.429  -8.171  -2.612  0.00  0.00    +0.027 A 
ATOM      9  C   UNL     1       1.443  -6.785  -2.586  0.00  0.00    +0.064 A 
ATOM     10  N   UNL     1       0.413  -6.046  -3.165  0.00  0.00    -0.256 N 
ATOM     11  C   UNL     1       0.433  -4.679  -3.129  0.00  0.00    +0.240 A 
ATOM     12  N   UNL     1      -0.649  -4.246  -3.736  0.00  0.00    -0.109 NA
ATOM     13  N   UNL     1      -1.383  -5.358  -4.165  0.00  0.00    -0.120 NA
ATOM     14  C   UNL     1      -0.724  -6.437  -3.819  0.00  0.00    +0.198 A 
ENDROOT
BRANCH   1  15
ATOM     15  C   UNL     1       1.455  -2.521  -2.524  0.00  0.00    +0.128 C 
BRANCH  15  16
ATOM     16  C   UNL     1       0.739  -2.027  -1.265  0.00  0.00    +0.022 C 
BRANCH  16  17
ATOM     17  C   UNL     1       0.718  -0.497  -1.257  0.00  0.00    +0.001 C 
BRANCH  17  19
ATOM     18  C   UNL     1      -0.019   1.526   0.010  0.00  0.00    +0.004 C 
ATOM     19  C   UNL     1       0.002  -0.004   0.002  0.00  0.00    -0.003 C 
ENDBRANCH  17  19
ENDBRANCH  16  17
ENDBRANCH  15  16
ENDBRANCH   1  15
BRANCH  14  20
ATOM     20  S   UNL     1      -1.224  -8.099  -4.126  0.00  0.00    -0.078 S 
BRANCH  20  21
ATOM     21  C   UNL     1      -2.793  -7.927  -5.019  0.00  0.00    +0.151 C 
BRANCH  21  22
ATOM     22  C   UNL     1      -3.336  -9.294  -5.348  0.00  0.00    +0.121 A 
ATOM     23  N   UNL     1      -4.508  -9.401  -6.024  0.00  0.00    -0.310 N 
ATOM     24  H   UNL     1      -4.981  -8.596  -6.287  0.00  0.00    +0.170 HD
ATOM     25  C   UNL     1      -5.029 -10.602  -6.338  0.00  0.00    +0.260 A 
ATOM     26  O   UNL     1      -6.082 -10.681  -6.947  0.00  0.00    -0.267 OA
ATOM     27  C   UNL     1      -4.324 -11.787  -5.946  0.00  0.00    +0.075 A 
ATOM     28  C   UNL     1      -4.672 -13.179  -6.162  0.00  0.00    -0.026 A 
ATOM     29  C   UNL     1      -3.853 -14.139  -5.702  0.00  0.00    -0.008 A 
ATOM     30  S   UNL     1      -2.534 -13.220  -4.930  0.00  0.00    -0.073 S 
ATOM     31  C   UNL     1      -3.121 -11.576  -5.249  0.00  0.00    +0.116 A 
ATOM     32  N   UNL     1      -2.668 -10.355  -4.981  0.00  0.00    -0.226 NA
ATOM     33  C   UNL     1      -4.012 -15.633  -5.811  0.00  0.00    +0.052 C 
ATOM     34  C   UNL     1      -5.937 -13.544  -6.896  0.00  0.00    +0.045 C 
ENDBRANCH  21  22
ENDBRANCH  20  21
ENDBRANCH  14  20
TORSDOF 7
