REMARK  Name = ZINC44577572
REMARK  8 active torsions:
REMARK  status: ('A' for Active; 'I' for Inactive)
REMARK    1  A    between atoms: C_2  and  C_3
REMARK    2  A    between atoms: C_3  and  N_4
REMARK    3  A    between atoms: C_5  and  C_29
REMARK    4  A    between atoms: C_8  and  S_9
REMARK    5  A    between atoms: S_9  and  C_10
REMARK    6  A    between atoms: C_10  and  C_11
REMARK    7  A    between atoms: C_16  and  C_19
REMARK    8  A    between atoms: C_32  and  O_35
REMARK                            x       y       z     vdW  Elec       q    Type
REMARK                         _______ _______ _______ _____ _____    ______ ____
ROOT
ATOM      1  C   UNL     1       0.080  -6.555  -1.263  0.00  0.00    +0.229 C 
ATOM      2  O   UNL     1       0.345  -6.184  -2.387  0.00  0.00    -0.275 OA
ATOM      3  N   UNL     1      -0.455  -7.776  -1.065  0.00  0.00    -0.264 N 
ATOM      4  C   UNL     1      -0.704  -8.610  -2.149  0.00  0.00    +0.165 A 
ATOM      5  N   UNL     1      -1.221  -9.817  -2.145  0.00  0.00    -0.225 NA
ATOM      6  C   UNL     1      -1.397 -10.492  -3.274  0.00  0.00    +0.082 A 
ATOM      7  C   UNL     1      -1.014  -9.865  -4.427  0.00  0.00    +0.077 A 
ATOM      8  S   UNL     1      -0.420  -8.311  -3.780  0.00  0.00    -0.060 S 
ATOM      9  H   UNL     1      -0.667  -8.072  -0.167  0.00  0.00    +0.157 HD
ENDROOT
BRANCH   6  10
ATOM     10  C   UNL     1      -1.979 -11.856  -3.284  0.00  0.00    +0.026 A 
ATOM     11  C   UNL     1      -2.196 -12.634  -4.372  0.00  0.00    +0.093 A 
ATOM     12  N   UNL     1      -2.747 -13.825  -3.985  0.00  0.00    -0.360 N 
ATOM     13  H   UNL     1      -2.990 -14.546  -4.587  0.00  0.00    +0.165 HD
ATOM     14  C   UNL     1      -2.903 -13.853  -2.617  0.00  0.00    +0.047 A 
ATOM     15  C   UNL     1      -2.426 -12.629  -2.115  0.00  0.00    +0.009 A 
ATOM     16  C   UNL     1      -2.457 -12.379  -0.744  0.00  0.00    +0.010 A 
ATOM     17  C   UNL     1      -2.949 -13.327   0.109  0.00  0.00    +0.001 A 
ATOM     18  C   UNL     1      -3.417 -14.539  -0.380  0.00  0.00    +0.002 A 
ATOM     19  C   UNL     1      -3.403 -14.803  -1.732  0.00  0.00    +0.026 A 
ENDBRANCH   6  10
BRANCH   1  20
ATOM     20  C   UNL     1       0.349  -5.651  -0.088  0.00  0.00    +0.173 C 
BRANCH  20  21
ATOM     21  S   UNL     1       1.066  -4.091  -0.677  0.00  0.00    -0.077 S 
BRANCH  21  26
ATOM     22  N   UNL     1       1.844  -1.898   0.875  0.00  0.00    -0.298 N 
ATOM     23  C   UNL     1       1.843  -1.580   2.214  0.00  0.00    +0.165 A 
ATOM     24  N   UNL     1       1.347  -2.612   2.854  0.00  0.00    -0.128 NA
ATOM     25  N   UNL     1       1.042  -3.541   2.020  0.00  0.00    -0.122 NA
ATOM     26  C   UNL     1       1.319  -3.156   0.795  0.00  0.00    +0.193 A 
BRANCH  23  27
ATOM     27  C   UNL     1       2.314  -0.315   2.817  0.00  0.00    +0.020 A 
ATOM     28  C   UNL     1       2.928  -0.323   4.070  0.00  0.00    +0.015 A 
ATOM     29  C   UNL     1       3.365   0.859   4.629  0.00  0.00    +0.046 A 
ATOM     30  C   UNL     1       3.196   2.056   3.947  0.00  0.00    +0.117 A 
ATOM     31  C   UNL     1       2.585   2.069   2.700  0.00  0.00    +0.046 A 
ATOM     32  C   UNL     1       2.150   0.890   2.132  0.00  0.00    +0.015 A 
BRANCH  30  33
ATOM     33  O   UNL     1       3.628   3.219   4.501  0.00  0.00    -0.507 OA
ATOM     34  H   UNL     1       4.540   3.447   4.275  0.00  0.00    +0.292 HD
ENDBRANCH  30  33
ENDBRANCH  23  27
BRANCH  22  35
ATOM     35  C   UNL     1       2.306  -1.059  -0.234  0.00  0.00    +0.152 C 
BRANCH  35  37
ATOM     36  C   UNL     1       1.162   0.965  -0.982  0.00  0.00    +0.005 C 
ATOM     37  C   UNL     1       1.130  -0.338  -0.841  0.00  0.00    -0.013 C 
ENDBRANCH  35  37
ENDBRANCH  22  35
ENDBRANCH  21  26
ENDBRANCH  20  21
ENDBRANCH   1  20
TORSDOF 8
