REMARK  Name = ZINC36313709
REMARK  15 active torsions:
REMARK  status: ('A' for Active; 'I' for Inactive)
REMARK    1  A    between atoms: C_1  and  C_2
REMARK    2  A    between atoms: C_2  and  C_3
REMARK    3  A    between atoms: C_3  and  C_4
REMARK    4  A    between atoms: C_4  and  C_5
REMARK    5  A    between atoms: C_5  and  C_7
REMARK    6  A    between atoms: C_5  and  O_37
REMARK    7  A    between atoms: C_7  and  N_8
REMARK    8  A    between atoms: N_8  and  C_9
REMARK    9  A    between atoms: N_8  and  C_30
REMARK   10  A    between atoms: C_9  and  C_10
REMARK   11  A    between atoms: C_11  and  C_29
REMARK   12  A    between atoms: N_13  and  C_23
REMARK   13  A    between atoms: C_14  and  O_15
REMARK   14  A    between atoms: O_15  and  C_16
REMARK   15  A    between atoms: C_30  and  C_31
REMARK                            x       y       z     vdW  Elec       q    Type
REMARK                         _______ _______ _______ _____ _____    ______ ____
ROOT
ATOM      1  C   UNL     1      -3.557  -6.103   1.313  0.00  0.00    +0.021 A 
ATOM      2  C   UNL     1      -2.202  -6.096   1.658  0.00  0.00    +0.065 A 
ATOM      3  N   UNL     1      -2.107  -6.141   2.962  0.00  0.00    -0.168 NA
ATOM      4  N   UNL     1      -3.400  -6.178   3.499  0.00  0.00    -0.200 N 
ATOM      5  C   UNL     1      -4.281  -6.149   2.463  0.00  0.00    +0.225 A 
ATOM      6  C   UNL     1      -1.047  -6.045   0.691  0.00  0.00    +0.068 C 
ENDROOT
BRANCH   4   7
ATOM      7  C   UNL     1      -3.728  -6.231   4.861  0.00  0.00    +0.069 A 
ATOM      8  C   UNL     1      -4.783  -5.475   5.352  0.00  0.00    +0.028 A 
ATOM      9  C   UNL     1      -5.104  -5.529   6.694  0.00  0.00    +0.002 A 
ATOM     10  C   UNL     1      -4.375  -6.336   7.549  0.00  0.00    +0.000 A 
ATOM     11  C   UNL     1      -3.324  -7.091   7.062  0.00  0.00    +0.002 A 
ATOM     12  C   UNL     1      -3.001  -7.045   5.720  0.00  0.00    +0.028 A 
ENDBRANCH   4   7
BRANCH   1  13
ATOM     13  C   UNL     1      -4.116  -6.061  -0.086  0.00  0.00    -0.036 C 
BRANCH  13  14
ATOM     14  N   UNL     1      -4.463  -4.677  -0.433  0.00  0.00    +0.386 N 
ATOM     15  H   UNL     1      -5.086  -4.300   0.265  0.00  0.00    -0.081 HD
BRANCH  14  16
ATOM     16  C   UNL     1      -3.240  -3.865  -0.487  0.00  0.00    -0.047 C 
BRANCH  16  17
ATOM     17  C   UNL     1      -3.610  -2.400  -0.726  0.00  0.00    +0.098 C 
BRANCH  17  18
ATOM     18  O   UNL     1      -4.343  -1.905   0.396  0.00  0.00    -0.394 OA
ATOM     19  H   UNL     1      -3.858  -1.944   1.232  0.00  0.00    +0.210 HD
ENDBRANCH  17  18
BRANCH  17  20
ATOM     20  C   UNL     1      -2.335  -1.574  -0.906  0.00  0.00    +0.029 C 
BRANCH  20  21
ATOM     21  C   UNL     1      -2.706  -0.134  -1.268  0.00  0.00    +0.002 C 
BRANCH  21  23
ATOM     22  C   UNL     1      -1.802   2.131  -1.810  0.00  0.00    +0.004 C 
ATOM     23  C   UNL     1      -1.431   0.691  -1.448  0.00  0.00    -0.003 C 
ENDBRANCH  21  23
ENDBRANCH  20  21
ENDBRANCH  17  20
ENDBRANCH  16  17
ENDBRANCH  14  16
BRANCH  14  24
ATOM     24  C   UNL     1      -5.125  -4.652  -1.745  0.00  0.00    -0.046 C 
BRANCH  24  25
ATOM     25  C   UNL     1      -6.473  -5.370  -1.649  0.00  0.00    +0.102 C 
ATOM     26  C   UNL     1      -7.180  -5.341  -3.021  0.00  0.00    +0.032 C 
ATOM     27  C   UNL     1      -8.662  -5.104  -2.623  0.00  0.00    +0.030 C 
ATOM     28  C   UNL     1      -8.491  -4.198  -1.377  0.00  0.00    +0.160 C 
ATOM     29  O   UNL     1      -7.317  -4.695  -0.710  0.00  0.00    -0.378 OA
ENDBRANCH  24  25
ENDBRANCH  14  24
ENDBRANCH  13  14
ENDBRANCH   1  13
BRANCH   5  30
ATOM     30  O   UNL     1      -5.635  -6.165   2.560  0.00  0.00    -0.436 OA
BRANCH  30  31
ATOM     31  C   UNL     1      -6.253  -7.372   2.645  0.00  0.00    +0.149 A 
ATOM     32  C   UNL     1      -5.501  -8.534   2.740  0.00  0.00    +0.048 A 
ATOM     33  C   UNL     1      -6.132  -9.760   2.826  0.00  0.00    +0.004 A 
ATOM     34  C   UNL     1      -7.513  -9.830   2.819  0.00  0.00    +0.002 A 
ATOM     35  C   UNL     1      -8.266  -8.675   2.725  0.00  0.00    +0.024 A 
ATOM     36  C   UNL     1      -7.640  -7.445   2.644  0.00  0.00    +0.083 A 
ATOM     37 CL   UNL     1      -8.586  -5.994   2.533  0.00  0.00    -0.080 Cl
ENDBRANCH  30  31
ENDBRANCH   5  30
TORSDOF 13
