REMARK  Name = ZINC11841006
REMARK  7 active torsions:
REMARK  status: ('A' for Active; 'I' for Inactive)
REMARK    1  A    between atoms: C_4  and  C_7
REMARK    2  A    between atoms: C_8  and  C_13
REMARK    3  A    between atoms: C_13  and  N_65
REMARK    4  A    between atoms: C_20  and  C_22
REMARK    5  A    between atoms: N_24  and  C_25
REMARK    6  A    between atoms: C_25  and  C_26
REMARK    7  A    between atoms: C_26  and  C_27
REMARK                            x       y       z     vdW  Elec       q    Type
REMARK                         _______ _______ _______ _____ _____    ______ ____
ROOT
ATOM      1  C   UNL     1       6.222   1.803   0.422  0.00  0.00    -0.078 C 
ATOM      2  C   UNL     1       6.248   2.926   1.463  0.00  0.00    -0.011 C 
ATOM      3  C   UNL     1       6.534   4.251   0.748  0.00  0.00    -0.021 C 
ATOM      4  C   UNL     1       5.625   4.541  -0.452  0.00  0.00    -0.011 C 
ATOM      5  C   UNL     1       5.635   3.321  -1.380  0.00  0.00    -0.078 C 
ATOM      6  C   UNL     1       7.985   4.721   0.670  0.00  0.00    +0.020 C 
ATOM      7  C   UNL     1       6.996   5.434   1.595  0.00  0.00    +0.082 C 
ATOM      8  N   UNL     1       5.213   2.131  -0.609  0.00  0.00    +0.382 N 
ATOM      9  H   UNL     1       4.319   2.336  -0.146  0.00  0.00    -0.081 HD
ENDROOT
BRANCH   7  10
ATOM     10  C   UNL     1       7.145   5.213   3.078  0.00  0.00    +0.217 C 
ATOM     11  O   UNL     1       6.900   4.125   3.556  0.00  0.00    -0.275 OA
ATOM     12  N   UNL     1       7.549   6.223   3.873  0.00  0.00    -0.315 N 
ATOM     13  H   UNL     1       7.745   7.093   3.490  0.00  0.00    +0.149 HD
BRANCH  12  14
ATOM     14  C   UNL     1       7.694   6.008   5.315  0.00  0.00    +0.108 C 
BRANCH  14  15
ATOM     15  C   UNL     1       8.162   7.304   5.980  0.00  0.00    +0.049 C 
BRANCH  15  16
ATOM     16  C   UNL     1       8.311   7.082   7.463  0.00  0.00    -0.072 C 
ATOM     17  C   UNL     1       9.483   6.770   7.915  0.00  0.00    -0.028 C 
ATOM     18  C   UNL     1       9.785   6.515   9.363  0.00  0.00    +0.027 C 
ATOM     19  C   UNL     1       8.661   7.066  10.242  0.00  0.00    +0.004 C 
ATOM     20  C   UNL     1       7.321   6.571   9.684  0.00  0.00    +0.005 C 
ATOM     21  C   UNL     1       7.090   7.231   8.322  0.00  0.00    +0.030 C 
ENDBRANCH  15  16
ENDBRANCH  14  15
ENDBRANCH  12  14
ENDBRANCH   7  10
BRANCH   8  22
ATOM     22  C   UNL     1       5.029   0.982  -1.518  0.00  0.00    -0.039 C 
BRANCH  22  24
ATOM     23  C   UNL     1       3.699  -0.689  -0.037  0.00  0.00    +0.094 A 
ATOM     24  C   UNL     1       4.870  -0.273  -0.700  0.00  0.00    -0.019 A 
ATOM     25  C   UNL     1       5.826  -1.200  -0.471  0.00  0.00    +0.107 A 
ATOM     26  N   UNL     1       5.291  -2.168   0.304  0.00  0.00    -0.284 N 
ATOM     27  H   UNL     1       5.764  -2.986   0.631  0.00  0.00    +0.188 HD
ATOM     28  N   UNL     1       3.959  -1.828   0.569  0.00  0.00    -0.174 NA
BRANCH  23  32
ATOM     29  C   UNL     1      -0.017   1.379   0.010  0.00  0.00    +0.000 A 
ATOM     30  C   UNL     1       1.169   2.092   0.002  0.00  0.00    +0.001 A 
ATOM     31  C   UNL     1       2.377   1.426  -0.013  0.00  0.00    +0.010 A 
ATOM     32  C   UNL     1       2.402   0.033  -0.021  0.00  0.00    +0.002 A 
ATOM     33  C   UNL     1       1.205  -0.680  -0.013  0.00  0.00    +0.010 A 
ATOM     34  C   UNL     1       0.002  -0.004   0.002  0.00  0.00    +0.001 A 
ENDBRANCH  23  32
ENDBRANCH  22  24
ENDBRANCH   8  22
TORSDOF 7
