REMARK  Name = ZINC20764508
REMARK  7 active torsions:
REMARK  status: ('A' for Active; 'I' for Inactive)
REMARK    1  A    between atoms: C_1  and  C_2
REMARK    2  A    between atoms: C_2  and  O_3
REMARK    3  A    between atoms: O_3  and  C_4
REMARK    4  A    between atoms: C_8  and  C_11
REMARK    5  A    between atoms: C_9  and  O_10
REMARK    6  A    between atoms: C_14  and  C_26
REMARK    7  A    between atoms: C_16  and  C_19
REMARK                            x       y       z     vdW  Elec       q    Type
REMARK                         _______ _______ _______ _____ _____    ______ ____
ROOT
ATOM      1  C   UNL     1       1.147   1.523  -2.506  0.00  0.00    -0.028 C 
ATOM      2  C   UNL     1       0.209   2.676  -2.876  0.00  0.00    +0.044 C 
ATOM      3  C   UNL     1      -0.236   2.522  -4.304  0.00  0.00    +0.040 C 
ATOM      4  N   UNL     1       0.347   1.745  -5.138  0.00  0.00    -0.299 NA
ATOM      5  C   UNL     1       1.498   0.912  -4.813  0.00  0.00    +0.081 C 
ATOM      6  N   UNL     1       2.145   1.379  -3.580  0.00  0.00    +0.401 N 
ATOM      7  H   UNL     1       2.622   2.351  -3.770  0.00  0.00    -0.081 HD
ATOM      8  H   UNL     1       2.909   0.648  -3.276  0.00  0.00    -0.081 HD
ENDROOT
BRANCH   3   9
ATOM      9  C   UNL     1      -1.399   3.302  -4.765  0.00  0.00    -0.001 A 
ATOM     10  C   UNL     1      -2.065   4.155  -3.881  0.00  0.00    +0.013 A 
ATOM     11  C   UNL     1      -3.149   4.887  -4.316  0.00  0.00    +0.050 A 
ATOM     12  C   UNL     1      -3.589   4.772  -5.627  0.00  0.00    +0.166 A 
ATOM     13  C   UNL     1      -2.933   3.917  -6.513  0.00  0.00    +0.167 A 
ATOM     14  C   UNL     1      -1.842   3.185  -6.085  0.00  0.00    +0.059 A 
ATOM     15  O   UNL     1      -3.555   3.986  -7.726  0.00  0.00    -0.453 OA
ATOM     16  C   UNL     1      -4.340   5.192  -7.688  0.00  0.00    +0.466 C 
ATOM     17  O   UNL     1      -4.621   5.373  -6.287  0.00  0.00    -0.453 OA
ENDBRANCH   3   9
BRANCH   5  18
ATOM     18  C   UNL     1       1.043  -0.512  -4.626  0.00  0.00    -0.038 A 
ATOM     19  C   UNL     1      -0.053  -0.985  -5.324  0.00  0.00    +0.004 A 
ATOM     20  C   UNL     1      -0.472  -2.291  -5.153  0.00  0.00    +0.003 A 
ATOM     21  C   UNL     1       0.206  -3.127  -4.285  0.00  0.00    +0.038 A 
ATOM     22  C   UNL     1       1.304  -2.655  -3.587  0.00  0.00    +0.124 A 
ATOM     23  C   UNL     1       1.726  -1.348  -3.762  0.00  0.00    +0.042 A 
ATOM     24  F   UNL     1       1.967  -3.471  -2.739  0.00  0.00    -0.205 F 
ENDBRANCH   5  18
BRANCH   1  29
ATOM     25  C   UNL     1       1.866   1.824   1.198  0.00  0.00    +0.162 A 
ATOM     26  C   UNL     1       3.126   2.399   1.184  0.00  0.00    +0.049 A 
ATOM     27  C   UNL     1       3.738   2.693  -0.020  0.00  0.00    +0.004 A 
ATOM     28  C   UNL     1       3.098   2.410  -1.212  0.00  0.00    +0.006 A 
ATOM     29  C   UNL     1       1.843   1.830  -1.205  0.00  0.00    -0.016 A 
ATOM     30  C   UNL     1       1.224   1.533  -0.001  0.00  0.00    +0.160 A 
BRANCH  30  31
ATOM     31  O   UNL     1      -0.011   0.963   0.007  0.00  0.00    -0.503 OA
ATOM     32  H   UNL     1      -0.517   0.733  -0.942  0.00  0.00    +0.292 HD
ENDBRANCH  30  31
BRANCH  25  33
ATOM     33  O   UNL     1       1.260   1.539   2.382  0.00  0.00    -0.489 OA
BRANCH  33  35
ATOM     34  C   UNL     1       1.144   1.475   4.795  0.00  0.00    +0.048 C 
ATOM     35  C   UNL     1       1.978   1.865   3.574  0.00  0.00    +0.226 C 
ENDBRANCH  33  35
ENDBRANCH  25  33
ENDBRANCH   1  29
TORSDOF 6
