REMARK  Name = ZINC43865393
REMARK  7 active torsions:
REMARK  status: ('A' for Active; 'I' for Inactive)
REMARK    1  A    between atoms: C_1  and  C_2
REMARK    2  A    between atoms: C_6  and  C_7
REMARK    3  A    between atoms: C_7  and  N_8
REMARK    4  A    between atoms: N_8  and  C_9
REMARK    5  A    between atoms: N_12  and  C_13
REMARK    6  A    between atoms: C_13  and  C_15
REMARK    7  A    between atoms: C_13  and  C_16
REMARK                            x       y       z     vdW  Elec       q    Type
REMARK                         _______ _______ _______ _____ _____    ______ ____
ROOT
ATOM      1  N   UNL     1      -1.598  -0.230   2.997  0.00  0.00    -0.284 N 
ATOM      2  C   UNL     1      -2.104  -1.386   3.741  0.00  0.00    +0.134 C 
ATOM      3  C   UNL     1      -2.423   0.791   2.695  0.00  0.00    +0.303 C 
ATOM      4  O   UNL     1      -1.985   1.787   2.152  0.00  0.00    -0.253 OA
ATOM      5  N   UNL     1      -3.735   0.709   2.993  0.00  0.00    -0.290 N 
ATOM      6  H   UNL     1      -4.085  -0.086   3.425  0.00  0.00    +0.151 HD
ENDROOT
BRANCH   5   7
ATOM      7  C   UNL     1      -4.632   1.819   2.664  0.00  0.00    +0.137 C 
ATOM      8  C   UNL     1      -4.592   2.857   3.788  0.00  0.00    +0.036 C 
BRANCH   7   9
ATOM      9  C   UNL     1      -6.038   1.300   2.510  0.00  0.00    +0.126 A 
ATOM     10  C   UNL     1      -6.906   1.700   1.570  0.00  0.00    +0.055 A 
ATOM     11  C   UNL     1      -8.138   0.935   1.798  0.00  0.00    +0.020 A 
ATOM     12  C   UNL     1      -9.385   0.889   1.176  0.00  0.00    +0.011 A 
ATOM     13  C   UNL     1     -10.346   0.040   1.649  0.00  0.00    +0.001 A 
ATOM     14  C   UNL     1     -10.088  -0.775   2.743  0.00  0.00    +0.004 A 
ATOM     15  C   UNL     1      -8.861  -0.742   3.370  0.00  0.00    +0.047 A 
ATOM     16  C   UNL     1      -7.870   0.113   2.905  0.00  0.00    +0.135 A 
ATOM     17  O   UNL     1      -6.603   0.362   3.292  0.00  0.00    -0.458 OA
ENDBRANCH   7   9
ENDBRANCH   5   7
BRANCH   1  18
ATOM     18  C   UNL     1      -0.193  -0.185   2.582  0.00  0.00    +0.151 C 
BRANCH  18  24
ATOM     19  C   UNL     1       0.091  -3.107   1.677  0.00  0.00    +0.044 C 
ATOM     20  C   UNL     1       0.054  -1.951   0.711  0.00  0.00    -0.039 A 
ATOM     21  C   UNL     1       0.143  -2.171  -0.651  0.00  0.00    +0.011 A 
ATOM     22  C   UNL     1       0.107  -1.110  -1.493  0.00  0.00    +0.046 A 
ATOM     23  S   UNL     1      -0.058   0.257  -0.356  0.00  0.00    -0.100 S 
ATOM     24  C   UNL     1      -0.073  -0.679   1.163  0.00  0.00    +0.010 A 
ENDBRANCH  18  24
ENDBRANCH   1  18
TORSDOF 4
