REMARK  Name = ZINC14653752
REMARK  10 active torsions:
REMARK  status: ('A' for Active; 'I' for Inactive)
REMARK    1  A    between atoms: C_1  and  C_2
REMARK    2  A    between atoms: C_2  and  C_3
REMARK    3  A    between atoms: C_2  and  C_4
REMARK    4  A    between atoms: C_4  and  O_5
REMARK    5  A    between atoms: O_5  and  C_6
REMARK    6  A    between atoms: C_9  and  C_13
REMARK    7  A    between atoms: N_15  and  C_16
REMARK    8  A    between atoms: C_16  and  N_18
REMARK    9  A    between atoms: N_18  and  C_19
REMARK   10  A    between atoms: C_21  and  N_26
REMARK                            x       y       z     vdW  Elec       q    Type
REMARK                         _______ _______ _______ _____ _____    ______ ____
ROOT
ATOM      1  C   UNL     1      -1.294   3.287  -0.449  0.00  0.00    +0.250 C 
ATOM      2  O   UNL     1      -0.275   3.905  -0.688  0.00  0.00    -0.270 OA
ATOM      3  N   UNL     1      -1.239   1.962  -0.211  0.00  0.00    -0.264 N 
ATOM      4  H   UNL     1      -2.052   1.469  -0.021  0.00  0.00    +0.157 HD
ENDROOT
BRANCH   1   8
ATOM      5  C   UNL     1      -5.030   5.304  -0.368  0.00  0.00    +0.134 A 
ATOM      6  C   UNL     1      -4.974   3.938  -0.121  0.00  0.00    +0.047 A 
ATOM      7  C   UNL     1      -3.766   3.279  -0.153  0.00  0.00    +0.017 A 
ATOM      8  C   UNL     1      -2.592   3.988  -0.421  0.00  0.00    +0.038 A 
ATOM      9  C   UNL     1      -2.651   5.362  -0.668  0.00  0.00    +0.032 A 
ATOM     10  C   UNL     1      -3.865   6.013  -0.641  0.00  0.00    +0.060 A 
ATOM     11 BR   UNL     1      -3.948   7.873  -0.975  0.00  0.00    -0.046 Br
BRANCH   5  12
ATOM     12  O   UNL     1      -6.224   5.949  -0.342  0.00  0.00    -0.491 OA
BRANCH  12  13
ATOM     13  C   UNL     1      -7.381   5.160  -0.055  0.00  0.00    +0.232 C 
BRANCH  13  15
ATOM     14  C   UNL     1      -9.873   5.190   0.114  0.00  0.00    +0.010 C 
ATOM     15  C   UNL     1      -8.623   6.053  -0.069  0.00  0.00    +0.020 C 
ATOM     16  C   UNL     1      -8.534   7.069   1.071  0.00  0.00    +0.010 C 
ENDBRANCH  13  15
ENDBRANCH  12  13
ENDBRANCH   5  12
ENDBRANCH   1   8
BRANCH   3  17
ATOM     17  C   UNL     1      -0.053   1.321  -0.236  0.00  0.00    +0.141 C 
ATOM     18  S   UNL     1       1.382   2.190  -0.579  0.00  0.00    -0.018 S 
BRANCH  17  19
ATOM     19  N   UNL     1       0.002  -0.004   0.002  0.00  0.00    -0.294 N 
ATOM     20  H   UNL     1      -0.801  -0.485   0.258  0.00  0.00    +0.154 HD
BRANCH  19  21
ATOM     21  C   UNL     1       1.218  -0.687  -0.119  0.00  0.00    +0.070 A 
ATOM     22  C   UNL     1       2.367  -0.170   0.464  0.00  0.00    +0.059 A 
ATOM     23  C   UNL     1       3.565  -0.849   0.347  0.00  0.00    +0.128 A 
ATOM     24  C   UNL     1       3.623  -2.037  -0.358  0.00  0.00    +0.035 A 
ATOM     25  C   UNL     1       2.483  -2.553  -0.945  0.00  0.00    +0.042 A 
ATOM     26  C   UNL     1       1.279  -1.882  -0.828  0.00  0.00    +0.145 A 
ATOM     27  F   UNL     1       0.165  -2.386  -1.401  0.00  0.00    -0.204 F 
BRANCH  23  28
ATOM     28  N   UNL     1       4.789  -0.300   0.973  0.00  0.00    +0.056 N 
ATOM     29  O   UNL     1       5.846  -0.895   0.867  0.00  0.00    -0.126 OA
ATOM     30  O   UNL     1       4.739   0.746   1.595  0.00  0.00    -0.126 OA
ENDBRANCH  23  28
ENDBRANCH  19  21
ENDBRANCH  17  19
ENDBRANCH   3  17
TORSDOF 8
