REMARK  Name = ZINC28052282
REMARK  5 active torsions:
REMARK  status: ('A' for Active; 'I' for Inactive)
REMARK    1  A    between atoms: C_1  and  C_2
REMARK    2  A    between atoms: C_10  and  C_12
REMARK    3  A    between atoms: C_15  and  O_19
REMARK    4  A    between atoms: C_16  and  O_18
REMARK    5  A    between atoms: C_23  and  C_26
REMARK                            x       y       z     vdW  Elec       q    Type
REMARK                         _______ _______ _______ _____ _____    ______ ____
ROOT
ATOM      1  C   UNL     1       1.609   4.653   0.022  0.00  0.00    +0.069 C 
ATOM      2  C   UNL     1       0.730   3.429   0.019  0.00  0.00    +0.087 A 
ATOM      3  C   UNL     1       1.147   2.100   0.002  0.00  0.00    +0.049 A 
ATOM      4  C   UNL     1      -0.017   1.375   0.010  0.00  0.00    +0.226 A 
ATOM      5  O   UNL     1      -1.007   2.261   0.029  0.00  0.00    -0.339 OA
ATOM      6  N   UNL     1      -0.579   3.399   0.032  0.00  0.00    -0.081 NA
ATOM      7  N   UNL     1       0.002  -0.004   0.002  0.00  0.00    -0.286 N 
ATOM      8  C   UNL     1       1.184  -0.647   0.284  0.00  0.00    +0.019 C 
ATOM      9  C   UNL     1       2.374  -0.009   0.288  0.00  0.00    +0.024 C 
ATOM     10  C   UNL     1       2.502   1.469  -0.020  0.00  0.00    +0.091 C 
ATOM     11  C   UNL     1       3.564  -0.701   0.579  0.00  0.00    +0.162 C 
ATOM     12  O   UNL     1       4.616  -0.091   0.599  0.00  0.00    -0.292 OA
ATOM     13  C   UNL     1       3.566  -2.176   0.867  0.00  0.00    +0.088 C 
ATOM     14  C   UNL     1       2.379  -2.823   0.144  0.00  0.00    +0.032 C 
ATOM     15  C   UNL     1       1.099  -2.123   0.601  0.00  0.00    +0.059 C 
ATOM     16  H   UNL     1      -0.916  -0.565  -0.226  0.00  0.00    +0.155 HD
ENDROOT
BRANCH  14  17
ATOM     17  C   UNL     1       2.309  -4.288   0.493  0.00  0.00    -0.043 A 
ATOM     18  C   UNL     1       2.153  -4.678   1.810  0.00  0.00    +0.005 A 
ATOM     19  C   UNL     1       2.083  -6.020   2.130  0.00  0.00    +0.020 A 
ATOM     20  C   UNL     1       2.181  -6.975   1.133  0.00  0.00    +0.041 A 
ATOM     21  C   UNL     1       2.344  -6.584  -0.184  0.00  0.00    +0.020 A 
ATOM     22  C   UNL     1       2.408  -5.241  -0.503  0.00  0.00    +0.005 A 
ATOM     23 CL   UNL     1       2.100  -8.662   1.535  0.00  0.00    -0.084 Cl
ENDBRANCH  14  17
BRANCH  10  24
ATOM     24  C   UNL     1       3.117   1.646  -1.385  0.00  0.00    -0.032 A 
ATOM     25  C   UNL     1       2.485   1.125  -2.499  0.00  0.00    +0.008 A 
ATOM     26  C   UNL     1       3.044   1.286  -3.753  0.00  0.00    +0.049 A 
ATOM     27  C   UNL     1       4.240   1.970  -3.895  0.00  0.00    +0.158 A 
ATOM     28  C   UNL     1       4.877   2.494  -2.774  0.00  0.00    +0.159 A 
ATOM     29  C   UNL     1       4.308   2.334  -1.520  0.00  0.00    +0.053 A 
BRANCH  28  30
ATOM     30  O   UNL     1       6.051   3.166  -2.909  0.00  0.00    -0.503 OA
ATOM     31  H   UNL     1       6.553   3.580  -2.022  0.00  0.00    +0.292 HD
ENDBRANCH  28  30
BRANCH  27  32
ATOM     32  O   UNL     1       4.792   2.130  -5.128  0.00  0.00    -0.503 OA
ATOM     33  H   UNL     1       5.742   2.673  -5.240  0.00  0.00    +0.292 HD
ENDBRANCH  27  32
ENDBRANCH  10  24
TORSDOF 4
