REMARK  Name = ZINC20527691
REMARK  14 active torsions:
REMARK  status: ('A' for Active; 'I' for Inactive)
REMARK    1  A    between atoms: C_1  and  C_2
REMARK    2  A    between atoms: C_2  and  N_3
REMARK    3  A    between atoms: N_3  and  C_4
REMARK    4  A    between atoms: N_3  and  C_6
REMARK    5  A    between atoms: C_4  and  C_5
REMARK    6  A    between atoms: C_9  and  C_12
REMARK    7  A    between atoms: N_13  and  N_14
REMARK    8  A    between atoms: C_18  and  S_21
REMARK    9  A    between atoms: N_19  and  N_20
REMARK   10  A    between atoms: S_21  and  C_22
REMARK   11  A    between atoms: C_22  and  C_23
REMARK   12  A    between atoms: N_25  and  C_26
REMARK   13  A    between atoms: C_26  and  C_27
REMARK   14  A    between atoms: C_30  and  C_33
REMARK                            x       y       z     vdW  Elec       q    Type
REMARK                         _______ _______ _______ _____ _____    ______ ____
ROOT
ATOM      1  N   UNL     1      -0.017   1.383   0.010  0.00  0.00    -0.204 N 
ATOM      2  C   UNL     1       0.002  -0.004   0.002  0.00  0.00    +0.254 A 
ATOM      3  N   UNL     1      -1.048  -0.789   0.013  0.00  0.00    -0.109 NA
ATOM      4  N   UNL     1      -0.597  -2.115  -0.004  0.00  0.00    -0.119 NA
ATOM      5  C   UNL     1       0.715  -2.097  -0.016  0.00  0.00    +0.210 A 
ATOM      6  N   UNL     1       1.119  -0.793  -0.013  0.00  0.00    -0.211 N 
ATOM      7  H   UNL     1       0.928   1.946   0.008  0.00  0.00    +0.177 HD
ENDROOT
BRANCH   6   8
ATOM      8  N   UNL     1       2.412  -0.353  -0.024  0.00  0.00    -0.294 N 
ATOM      9  H   UNL     1       3.240  -1.078  -0.035  0.00  0.00    +0.163 HD
ATOM     10  H   UNL     1       2.626   0.726  -0.020  0.00  0.00    +0.163 HD
ENDBRANCH   6   8
BRANCH   1  12
ATOM     11  C   UNL     1      -1.257   3.366   0.026  0.00  0.00    +0.138 C 
ATOM     12  N   UNL     1      -1.239   2.067   0.019  0.00  0.00    -0.188 NA
BRANCH  11  16
ATOM     13  C   UNL     1      -4.962   5.438   0.054  0.00  0.00    +0.030 A 
ATOM     14  C   UNL     1      -3.769   6.152   0.053  0.00  0.00    +0.024 A 
ATOM     15  C   UNL     1      -2.564   5.483   0.044  0.00  0.00    +0.011 A 
ATOM     16  C   UNL     1      -2.543   4.085   0.036  0.00  0.00    -0.005 A 
ATOM     17  C   UNL     1      -3.745   3.372   0.032  0.00  0.00    +0.011 A 
ATOM     18  C   UNL     1      -4.946   4.048   0.046  0.00  0.00    +0.024 A 
BRANCH  13  19
ATOM     19  N   UNL     1      -6.180   6.120   0.062  0.00  0.00    -0.330 N 
BRANCH  19  21
ATOM     20  C   UNL     1      -7.872   5.101   1.506  0.00  0.00    +0.024 C 
ATOM     21  C   UNL     1      -7.439   5.370   0.063  0.00  0.00    +0.102 C 
ENDBRANCH  19  21
BRANCH  19  22
ATOM     22  C   UNL     1      -6.200   7.584   0.070  0.00  0.00    +0.102 C 
ATOM     23  C   UNL     1      -6.213   8.102  -1.369  0.00  0.00    +0.024 C 
ENDBRANCH  19  22
ENDBRANCH  13  19
ENDBRANCH  11  16
ENDBRANCH   1  12
BRANCH   5  24
ATOM     24  S   UNL     1       1.770  -3.509  -0.034  0.00  0.00    -0.075 S 
BRANCH  24  25
ATOM     25  C   UNL     1       0.623  -4.914  -0.030  0.00  0.00    +0.173 C 
BRANCH  25  26
ATOM     26  C   UNL     1       1.406  -6.202  -0.045  0.00  0.00    +0.224 C 
ATOM     27  O   UNL     1       2.618  -6.174  -0.056  0.00  0.00    -0.275 OA
ATOM     28  N   UNL     1       0.759  -7.384  -0.045  0.00  0.00    -0.311 N 
ATOM     29  H   UNL     1      -0.341  -7.409  -0.035  0.00  0.00    +0.149 HD
BRANCH  28  30
ATOM     30  C   UNL     1       1.520  -8.635  -0.059  0.00  0.00    +0.139 C 
BRANCH  30  31
ATOM     31  C   UNL     1       0.567  -9.803  -0.056  0.00  0.00    -0.030 A 
ATOM     32  C   UNL     1       0.146 -10.348   1.142  0.00  0.00    +0.005 A 
ATOM     33  C   UNL     1      -0.731 -11.417   1.145  0.00  0.00    +0.003 A 
ATOM     34  C   UNL     1      -1.180 -11.945  -0.051  0.00  0.00    -0.050 A 
ATOM     35  C   UNL     1      -0.755 -11.403  -1.249  0.00  0.00    +0.003 A 
ATOM     36  C   UNL     1       0.119 -10.332  -1.252  0.00  0.00    +0.005 A 
ATOM     37  C   UNL     1      -2.133 -13.113  -0.048  0.00  0.00    +0.044 C 
ENDBRANCH  30  31
ENDBRANCH  28  30
ENDBRANCH  25  26
ENDBRANCH  24  25
ENDBRANCH   5  24
TORSDOF 11
