REMARK  Name = ZINC41991306
REMARK  4 active torsions:
REMARK  status: ('A' for Active; 'I' for Inactive)
REMARK    1  A    between atoms: C_9  and  C_10
REMARK    2  A    between atoms: C_9  and  S_13
REMARK    3  A    between atoms: S_13  and  C_14
REMARK    4  A    between atoms: C_18  and  N_20
REMARK                            x       y       z     vdW  Elec       q    Type
REMARK                         _______ _______ _______ _____ _____    ______ ____
ROOT
ATOM      1  S   UNL     1       4.285  -1.085   1.621  0.00  0.00    -0.063 S 
ENDROOT
BRANCH   1  10
ATOM      2  C   UNL     1      -0.034   1.349   0.014  0.00  0.00    +0.000 A 
ATOM      3  C   UNL     1       1.149   2.065   0.011  0.00  0.00    +0.000 A 
ATOM      4  C   UNL     1       2.358   1.397  -0.005  0.00  0.00    +0.006 A 
ATOM      5  C   UNL     1       2.390   0.013  -0.018  0.00  0.00    -0.017 A 
ATOM      6  C   UNL     1       1.207  -0.703  -0.015  0.00  0.00    -0.042 A 
ATOM      7  C   UNL     1      -0.004  -0.032   0.001  0.00  0.00    +0.004 A 
ATOM      8  C   UNL     1       1.506  -2.186  -0.032  0.00  0.00    +0.038 C 
ATOM      9  C   UNL     1       2.978  -2.296  -0.486  0.00  0.00    +0.039 C 
ATOM     10  C   UNL     1       3.565  -0.941  -0.038  0.00  0.00    +0.150 C 
BRANCH  10  11
ATOM     11  C   UNL     1       4.604  -0.471  -1.022  0.00  0.00    +0.376 C 
ATOM     12  O   UNL     1       5.739  -0.235  -0.644  0.00  0.00    -0.244 OA
ATOM     13  O   UNL     1       4.310  -0.325  -2.196  0.00  0.00    -0.244 OA
ENDBRANCH  10  11
ENDBRANCH   1  10
BRANCH   1  14
ATOM     14  C   UNL     1       5.513  -2.337   1.445  0.00  0.00    +0.193 A 
ATOM     15  N   UNL     1       5.761  -2.833   0.241  0.00  0.00    -0.207 NA
ATOM     16  C   UNL     1       6.682  -3.779   0.071  0.00  0.00    +0.122 A 
ATOM     17  C   UNL     1       7.385  -4.247   1.177  0.00  0.00    +0.086 A 
ATOM     18  C   UNL     1       7.096  -3.704   2.425  0.00  0.00    +0.122 A 
ATOM     19  N   UNL     1       6.166  -2.756   2.519  0.00  0.00    -0.207 NA
ATOM     20  N   UNL     1       6.936  -4.292  -1.192  0.00  0.00    -0.343 N 
ATOM     21  H   UNL     1       6.442  -3.961  -1.958  0.00  0.00    +0.144 HD
ATOM     22  H   UNL     1       7.608  -4.981  -1.309  0.00  0.00    +0.144 HD
BRANCH  18  23
ATOM     23  N   UNL     1       7.771  -4.140   3.554  0.00  0.00    -0.343 N 
ATOM     24  H   UNL     1       8.450  -4.828   3.478  0.00  0.00    +0.144 HD
ATOM     25  H   UNL     1       7.565  -3.756   4.421  0.00  0.00    +0.144 HD
ENDBRANCH  18  23
ENDBRANCH   1  14
TORSDOF 4
