REMARK  Name = ZINC39675146
REMARK  9 active torsions:
REMARK  status: ('A' for Active; 'I' for Inactive)
REMARK    1  A    between atoms: C_1  and  C_2
REMARK    2  A    between atoms: C_2  and  C_4
REMARK    3  A    between atoms: C_2  and  N_14
REMARK    4  A    between atoms: C_4  and  C_5
REMARK    5  A    between atoms: C_5  and  C_6
REMARK    6  A    between atoms: C_9  and  O_12
REMARK    7  A    between atoms: O_12  and  C_13
REMARK    8  A    between atoms: C_15  and  C_17
REMARK    9  A    between atoms: C_28  and  C_30
REMARK                            x       y       z     vdW  Elec       q    Type
REMARK                         _______ _______ _______ _____ _____    ______ ____
ROOT
ATOM      1  C   UNL     1       0.374  -1.527   3.259  0.00  0.00    +0.100 C 
ATOM      2  C   UNL     1       1.079  -2.902   3.231  0.00  0.00    +0.121 C 
ATOM      3  N   UNL     1       0.902  -3.441   4.600  0.00  0.00    -0.296 N 
ATOM      4  C   UNL     1      -0.480  -3.053   4.973  0.00  0.00    +0.115 C 
ATOM      5  C   UNL     1      -0.649  -1.631   4.403  0.00  0.00    -0.004 C 
ATOM      6  C   UNL     1      -2.064  -1.443   3.865  0.00  0.00    -0.010 C 
ATOM      7  C   UNL     1      -3.058  -1.492   5.029  0.00  0.00    -0.082 C 
ATOM      8  N   UNL     1      -2.736  -0.435   5.995  0.00  0.00    +0.379 N 
ATOM      9  C   UNL     1      -1.410  -0.675   6.576  0.00  0.00    -0.082 C 
ATOM     10  C   UNL     1      -0.346  -0.592   5.478  0.00  0.00    -0.010 C 
ATOM     11  C   UNL     1       1.794  -4.129   5.338  0.00  0.00    +0.247 C 
ATOM     12  O   UNL     1       2.932  -4.276   4.936  0.00  0.00    -0.270 OA
ATOM     13  H   UNL     1      -2.740   0.459   5.527  0.00  0.00    -0.086 HD
ATOM     14  H   UNL     1      -3.428  -0.430   6.729  0.00  0.00    -0.086 HD
ENDROOT
BRANCH  11  15
ATOM     15  C   UNL     1       1.391  -4.706   6.638  0.00  0.00    +0.038 A 
ATOM     16  C   UNL     1       0.042  -4.946   6.909  0.00  0.00    +0.014 A 
ATOM     17  C   UNL     1      -0.329  -5.483   8.123  0.00  0.00    +0.022 A 
ATOM     18  C   UNL     1       0.632  -5.785   9.074  0.00  0.00    +0.059 A 
ATOM     19  C   UNL     1       1.972  -5.550   8.811  0.00  0.00    +0.060 A 
ATOM     20  C   UNL     1       2.356  -5.017   7.596  0.00  0.00    +0.034 A 
ATOM     21 CL   UNL     1       3.170  -5.931  10.008  0.00  0.00    -0.082 Cl
ATOM     22 CL   UNL     1       0.156  -6.461  10.600  0.00  0.00    -0.082 Cl
ENDBRANCH  11  15
BRANCH   1  24
ATOM     23  N   UNL     1      -0.499  -0.006   1.515  0.00  0.00    -0.312 N 
ATOM     24  C   UNL     1      -0.327  -1.270   1.950  0.00  0.00    +0.218 C 
ATOM     25  O   UNL     1      -0.736  -2.200   1.288  0.00  0.00    -0.275 OA
ATOM     26  H   UNL     1      -0.172   0.738   2.044  0.00  0.00    +0.149 HD
BRANCH  23  28
ATOM     27  C   UNL     1      -2.694   0.272   0.471  0.00  0.00    +0.028 C 
ATOM     28  C   UNL     1      -1.181   0.243   0.242  0.00  0.00    +0.070 C 
BRANCH  28  29
ATOM     29  C   UNL     1      -0.726   1.590  -0.325  0.00  0.00    +0.026 C 
BRANCH  29  30
ATOM     30  C   UNL     1       0.763   1.520  -0.670  0.00  0.00    +0.037 C 
BRANCH  30  31
ATOM     31  C   UNL     1       1.212   2.847  -1.228  0.00  0.00    -0.047 A 
ATOM     32  C   UNL     1       1.138   3.083  -2.588  0.00  0.00    +0.007 A 
ATOM     33  C   UNL     1       1.549   4.298  -3.103  0.00  0.00    +0.046 A 
ATOM     34  C   UNL     1       2.035   5.281  -2.253  0.00  0.00    +0.120 A 
ATOM     35  C   UNL     1       2.107   5.041  -0.888  0.00  0.00    +0.046 A 
ATOM     36  C   UNL     1       1.690   3.827  -0.378  0.00  0.00    +0.007 A 
BRANCH  34  37
ATOM     37  O   UNL     1       2.441   6.476  -2.756  0.00  0.00    -0.495 OA
ATOM     38  C   UNL     1       2.930   7.441  -1.823  0.00  0.00    +0.277 C 
ENDBRANCH  34  37
ENDBRANCH  30  31
ENDBRANCH  29  30
ENDBRANCH  28  29
ENDBRANCH  23  28
ENDBRANCH   1  24
TORSDOF 7
