REMARK  Name = ZINC63941353
REMARK  8 active torsions:
REMARK  status: ('A' for Active; 'I' for Inactive)
REMARK    1  A    between atoms: C_1  and  C_2
REMARK    2  A    between atoms: C_2  and  C_3
REMARK    3  A    between atoms: C_5  and  C_32
REMARK    4  A    between atoms: C_7  and  N_10
REMARK    5  A    between atoms: C_11  and  C_13
REMARK    6  A    between atoms: N_18  and  C_20
REMARK    7  A    between atoms: C_20  and  C_21
REMARK    8  A    between atoms: C_21  and  C_22
REMARK                            x       y       z     vdW  Elec       q    Type
REMARK                         _______ _______ _______ _____ _____    ______ ____
ROOT
ATOM      1  C   UNL     1      -3.081  -4.483   4.682  0.00  0.00    +0.101 C 
ATOM      2  C   UNL     1      -1.599  -4.887   4.859  0.00  0.00    +0.110 C 
ATOM      3  C   UNL     1      -1.658  -6.193   5.620  0.00  0.00    +0.216 C 
ATOM      4  O   UNL     1      -0.723  -6.701   6.202  0.00  0.00    -0.276 OA
ATOM      5  N   UNL     1      -2.898  -6.707   5.559  0.00  0.00    -0.300 N 
ATOM      6  C   UNL     1      -3.793  -5.851   4.772  0.00  0.00    +0.121 C 
ENDROOT
BRANCH   1   8
ATOM      7  N   UNL     1      -2.716  -2.671   3.039  0.00  0.00    -0.285 N 
ATOM      8  C   UNL     1      -3.309  -3.844   3.337  0.00  0.00    +0.220 C 
ATOM      9  O   UNL     1      -4.026  -4.385   2.522  0.00  0.00    -0.275 OA
ATOM     10  H   UNL     1      -2.143  -2.238   3.691  0.00  0.00    +0.152 HD
BRANCH   7  14
ATOM     11  C   UNL     1      -1.469  -0.531  -0.016  0.00  0.00    +0.099 C 
ATOM     12  C   UNL     1      -1.465  -2.047  -0.144  0.00  0.00    +0.059 C 
ATOM     13  N   UNL     1      -2.154  -2.726   0.679  0.00  0.00    -0.254 NA
ATOM     14  C   UNL     1      -2.938  -2.049   1.731  0.00  0.00    +0.252 C 
ATOM     15  S   UNL     1      -2.211  -0.351   1.666  0.00  0.00    -0.106 S 
BRANCH  12  16
ATOM     16  C   UNL     1      -0.680  -2.713  -1.202  0.00  0.00    -0.003 A 
ATOM     17  C   UNL     1      -0.290  -4.046  -1.052  0.00  0.00    +0.010 A 
ATOM     18  C   UNL     1       0.444  -4.662  -2.043  0.00  0.00    +0.001 A 
ATOM     19  C   UNL     1       0.795  -3.963  -3.185  0.00  0.00    +0.000 A 
ATOM     20  C   UNL     1       0.412  -2.642  -3.340  0.00  0.00    +0.001 A 
ATOM     21  C   UNL     1      -0.328  -2.016  -2.359  0.00  0.00    +0.010 A 
ENDBRANCH  12  16
BRANCH  11  23
ATOM     22  C   UNL     1      -0.093   1.546   0.171  0.00  0.00    +0.005 C 
ATOM     23  C   UNL     1      -0.048   0.035  -0.059  0.00  0.00    +0.017 C 
ENDBRANCH  11  23
ENDBRANCH   7  14
ENDBRANCH   1   8
BRANCH   5  24
ATOM     24  C   UNL     1      -3.304  -7.962   6.198  0.00  0.00    +0.112 C 
BRANCH  24  25
ATOM     25  C   UNL     1      -3.806  -7.674   7.614  0.00  0.00    +0.052 C 
BRANCH  25  26
ATOM     26  C   UNL     1      -4.224  -8.964   8.271  0.00  0.00    -0.040 C 
ATOM     27  C   UNL     1      -3.476  -9.741   9.088  0.00  0.00    +0.002 A 
ATOM     28  C   UNL     1      -2.102  -9.620   9.589  0.00  0.00    +0.048 A 
ATOM     29  C   UNL     1      -1.617 -10.580  10.413  0.00  0.00    +0.124 A 
ATOM     30  C   UNL     1      -2.395 -11.684  10.797  0.00  0.00    +0.040 A 
ATOM     31  C   UNL     1      -3.665 -11.861  10.376  0.00  0.00    +0.029 A 
ATOM     32  C   UNL     1      -4.275 -10.914   9.508  0.00  0.00    +0.043 A 
ATOM     33  N   UNL     1      -5.470 -10.865   8.972  0.00  0.00    -0.380 N 
ATOM     34  C   UNL     1      -5.567  -9.650   8.156  0.00  0.00    +0.144 C 
ATOM     35  F   UNL     1      -0.353 -10.473  10.876  0.00  0.00    -0.205 F 
ATOM     36  H   UNL     1      -6.174 -11.520   9.098  0.00  0.00    +0.160 HD
ENDBRANCH  25  26
ENDBRANCH  24  25
ENDBRANCH   5  24
TORSDOF 7
