REMARK  Name = ZINC20695808
REMARK  3 active torsions:
REMARK  status: ('A' for Active; 'I' for Inactive)
REMARK    1  A    between atoms: C_3  and  C_25
REMARK    2  A    between atoms: C_14  and  C_17
REMARK    3  A    between atoms: C_22  and  O_23
REMARK                            x       y       z     vdW  Elec       q    Type
REMARK                         _______ _______ _______ _____ _____    ______ ____
ROOT
ATOM      1  C   UNL     1       1.314  -0.661   0.023  0.00  0.00    +0.002 A 
ATOM      2  C   UNL     1       2.493   0.054   0.040  0.00  0.00    +0.021 A 
ATOM      3  C   UNL     1       2.465   1.446   0.040  0.00  0.00    +0.073 A 
ATOM      4  C   UNL     1       1.235   2.137   0.017  0.00  0.00    +0.049 A 
ATOM      5  C   UNL     1       0.057   1.387   0.020  0.00  0.00    -0.018 A 
ATOM      6  C   UNL     1       0.103   0.009   0.015  0.00  0.00    +0.006 A 
ATOM      7  C   UNL     1      -1.227   2.122   0.050  0.00  0.00    +0.049 C 
ATOM      8  C   UNL     1      -2.478   1.573  -0.527  0.00  0.00    -0.023 C 
ATOM      9  C   UNL     1      -3.212   2.583  -0.982  0.00  0.00    -0.030 C 
ATOM     10  C   UNL     1      -2.469   3.905  -0.769  0.00  0.00    +0.033 C 
ATOM     11  C   UNL     1      -1.009   3.436  -0.762  0.00  0.00    +0.029 C 
ATOM     12  C   UNL     1      -0.011   4.229   0.054  0.00  0.00    +0.108 C 
ATOM     13  N   UNL     1       1.277   3.522  -0.029  0.00  0.00    -0.335 N 
ATOM     14  H   UNL     1       2.213   4.092  -0.123  0.00  0.00    +0.147 HD
ENDROOT
BRANCH  12  15
ATOM     15  C   UNL     1      -0.464   4.303   1.490  0.00  0.00    +0.015 A 
ATOM     16  C   UNL     1      -0.041   3.352   2.398  0.00  0.00    +0.024 A 
ATOM     17  C   UNL     1      -0.453   3.421   3.716  0.00  0.00    +0.018 A 
ATOM     18  C   UNL     1      -1.298   4.438   4.126  0.00  0.00    +0.019 A 
ATOM     19  C   UNL     1      -1.728   5.387   3.220  0.00  0.00    +0.047 A 
ATOM     20  C   UNL     1      -1.312   5.322   1.898  0.00  0.00    +0.122 A 
ATOM     21 BR   UNL     1       0.133   2.122   4.959  0.00  0.00    -0.050 Br
BRANCH  20  22
ATOM     22  O   UNL     1      -1.734   6.255   1.005  0.00  0.00    -0.506 OA
ATOM     23  H   UNL     1      -2.406   7.063   1.330  0.00  0.00    +0.292 HD
ENDBRANCH  20  22
ENDBRANCH  12  15
BRANCH   3  24
ATOM     24  C   UNL     1       3.693   2.182   0.064  0.00  0.00    +0.101 C 
ATOM     25  N   UNL     1       4.668   2.766   0.083  0.00  0.00    -0.191 NA
ENDBRANCH   3  24
TORSDOF 3
