REMARK  Name = ZINC08327710
REMARK  5 active torsions:
REMARK  status: ('A' for Active; 'I' for Inactive)
REMARK    1  A    between atoms: C_1  and  C_2
REMARK    2  A    between atoms: C_2  and  C_4
REMARK    3  A    between atoms: C_7  and  N_10
REMARK    4  A    between atoms: C_11  and  C_13
REMARK    5  A    between atoms: C_13  and  N_14
REMARK                            x       y       z     vdW  Elec       q    Type
REMARK                         _______ _______ _______ _____ _____    ______ ____
ROOT
ATOM      1  N   UNL     1       1.583  -0.416   0.105  0.00  0.00    -0.215 N 
ATOM      2  C   UNL     1       2.613   0.449   0.260  0.00  0.00    +0.251 C 
ATOM      3  O   UNL     1       3.754   0.132   0.518  0.00  0.00    -0.272 OA
ATOM      4  C   UNL     1       2.029   1.815   0.040  0.00  0.00    +0.138 C 
ATOM      5  C   UNL     1       2.315   2.772   1.190  0.00  0.00    +0.040 C 
ATOM      6  C   UNL     1       3.768   2.751   1.616  0.00  0.00    +0.003 C 
ATOM      7  C   UNL     1       4.721   3.378   0.617  0.00  0.00    +0.005 C 
ATOM      8  C   UNL     1       4.903   2.480  -0.604  0.00  0.00    +0.035 C 
ATOM      9  C   UNL     1       3.762   2.718  -1.572  0.00  0.00    -0.042 A 
ATOM     10  C   UNL     1       2.465   2.413  -1.277  0.00  0.00    -0.012 A 
ATOM     11  C   UNL     1       1.472   2.654  -2.223  0.00  0.00    +0.006 A 
ATOM     12  C   UNL     1       1.792   3.201  -3.449  0.00  0.00    +0.000 A 
ATOM     13  C   UNL     1       3.106   3.512  -3.742  0.00  0.00    +0.000 A 
ATOM     14  C   UNL     1       4.090   3.272  -2.804  0.00  0.00    +0.004 A 
ATOM     15  N   UNL     1       0.574   1.564  -0.018  0.00  0.00    -0.281 N 
ATOM     16  C   UNL     1       0.421   0.228  -0.044  0.00  0.00    +0.310 C 
ATOM     17  O   UNL     1      -0.651  -0.331  -0.171  0.00  0.00    -0.252 OA
ATOM     18  H   UNL     1      -0.120   2.239  -0.030  0.00  0.00    +0.152 HD
ENDROOT
BRANCH   1  19
ATOM     19  C   UNL     1       1.730  -1.873   0.103  0.00  0.00    +0.214 C 
BRANCH  19  21
ATOM     20  N   UNL     1       2.138  -3.667  -1.550  0.00  0.00    -0.284 N 
ATOM     21  C   UNL     1       1.972  -2.352  -1.305  0.00  0.00    +0.235 C 
ATOM     22  O   UNL     1       2.016  -1.555  -2.217  0.00  0.00    -0.274 OA
ATOM     23  H   UNL     1       2.176  -4.297  -0.813  0.00  0.00    +0.155 HD
BRANCH  20  27
ATOM     24  C   UNL     1       2.485  -5.025  -5.467  0.00  0.00    +0.017 A 
ATOM     25  C   UNL     1       3.180  -5.669  -4.436  0.00  0.00    +0.013 A 
ATOM     26  C   UNL     1       3.063  -5.218  -3.147  0.00  0.00    +0.024 A 
ATOM     27  C   UNL     1       2.254  -4.122  -2.862  0.00  0.00    +0.033 A 
ATOM     28  C   UNL     1       1.556  -3.482  -3.882  0.00  0.00    +0.024 A 
ATOM     29  C   UNL     1       1.672  -3.922  -5.175  0.00  0.00    +0.013 A 
BRANCH  24  31
ATOM     30  C   UNL     1       1.960  -4.737  -7.973  0.00  0.00    +0.091 C 
ATOM     31  C   UNL     1       2.607  -5.504  -6.850  0.00  0.00    +0.160 C 
ATOM     32  O   UNL     1       3.230  -6.517  -7.088  0.00  0.00    -0.292 OA
ENDBRANCH  24  31
ENDBRANCH  20  27
ENDBRANCH  19  21
ENDBRANCH   1  19
TORSDOF 4
