REMARK  Name = ZINC39404572
REMARK  6 active torsions:
REMARK  status: ('A' for Active; 'I' for Inactive)
REMARK    1  A    between atoms: C_7  and  N_15
REMARK    2  A    between atoms: C_9  and  C_12
REMARK    3  A    between atoms: C_16  and  C_18
REMARK    4  A    between atoms: N_20  and  C_21
REMARK    5  A    between atoms: C_21  and  C_22
REMARK    6  A    between atoms: C_22  and  C_23
REMARK                            x       y       z     vdW  Elec       q    Type
REMARK                         _______ _______ _______ _____ _____    ______ ____
ROOT
ATOM      1  N   UNL     1       1.378  -2.757   1.279  0.00  0.00    -0.297 N 
ATOM      2  C   UNL     1       0.172  -3.221   1.662  0.00  0.00    +0.300 C 
ATOM      3  O   UNL     1      -0.776  -3.138   0.909  0.00  0.00    -0.265 OA
ATOM      4  H   UNL     1       2.136  -2.823   1.881  0.00  0.00    +0.150 HD
ENDROOT
BRANCH   1  11
ATOM      5  C   UNL     1      -0.017   1.379   0.010  0.00  0.00    +0.001 A 
ATOM      6  C   UNL     1       1.174   2.082   0.002  0.00  0.00    +0.004 A 
ATOM      7  C   UNL     1       2.379   1.411  -0.009  0.00  0.00    +0.046 A 
ATOM      8  C   UNL     1       2.407   0.019  -0.014  0.00  0.00    +0.127 A 
ATOM      9  C   UNL     1       1.204  -0.676  -0.014  0.00  0.00    +0.019 A 
ATOM     10  C   UNL     1       0.002  -0.004   0.002  0.00  0.00    +0.009 A 
ATOM     11  C   UNL     1       1.545  -2.154  -0.045  0.00  0.00    +0.157 C 
ATOM     12  C   UNL     1       3.035  -2.130  -0.460  0.00  0.00    +0.283 C 
ATOM     13  O   UNL     1       3.469  -0.834  -0.014  0.00  0.00    -0.477 OA
BRANCH  12  14
ATOM     14  C   UNL     1       3.176  -2.260  -1.954  0.00  0.00    +0.253 C 
ATOM     15  O   UNL     1       3.635  -1.343  -2.602  0.00  0.00    -0.272 OA
ATOM     16  N   UNL     1       2.791  -3.394  -2.571  0.00  0.00    -0.326 N 
ATOM     17  H   UNL     1       2.424  -4.128  -2.053  0.00  0.00    +0.145 HD
ATOM     18  H   UNL     1       2.881  -3.478  -3.534  0.00  0.00    +0.145 HD
ENDBRANCH  12  14
ENDBRANCH   1  11
BRANCH   2  19
ATOM     19  C   UNL     1       0.002  -3.836   3.013  0.00  0.00    +0.299 C 
ATOM     20  O   UNL     1       0.951  -3.919   3.766  0.00  0.00    -0.265 OA
ATOM     21  N   UNL     1      -1.204  -4.300   3.396  0.00  0.00    -0.307 N 
ATOM     22  H   UNL     1      -1.962  -4.234   2.794  0.00  0.00    +0.149 HD
BRANCH  21  23
ATOM     23  C   UNL     1      -1.370  -4.904   4.720  0.00  0.00    +0.109 C 
BRANCH  23  24
ATOM     24  C   UNL     1      -2.825  -5.344   4.901  0.00  0.00    +0.056 C 
BRANCH  24  25
ATOM     25  C   UNL     1      -2.996  -5.965   6.264  0.00  0.00    -0.021 A 
ATOM     26  C   UNL     1      -3.258  -5.255   7.518  0.00  0.00    +0.003 A 
ATOM     27  C   UNL     1      -3.424  -3.910   7.856  0.00  0.00    +0.010 A 
ATOM     28  C   UNL     1      -3.665  -3.562   9.155  0.00  0.00    +0.001 A 
ATOM     29  C   UNL     1      -3.745  -4.534  10.142  0.00  0.00    +0.002 A 
ATOM     30  C   UNL     1      -3.585  -5.867   9.831  0.00  0.00    +0.026 A 
ATOM     31  C   UNL     1      -3.340  -6.244   8.515  0.00  0.00    +0.047 A 
ATOM     32  N   UNL     1      -3.139  -7.459   7.898  0.00  0.00    -0.360 N 
ATOM     33  C   UNL     1      -2.942  -7.273   6.557  0.00  0.00    +0.087 A 
ATOM     34  H   UNL     1      -3.142  -8.319   8.347  0.00  0.00    +0.165 HD
ENDBRANCH  24  25
ENDBRANCH  23  24
ENDBRANCH  21  23
ENDBRANCH   2  19
TORSDOF 6
