REMARK  Name = ZINC08734745
REMARK  8 active torsions:
REMARK  status: ('A' for Active; 'I' for Inactive)
REMARK    1  A    between atoms: C_1  and  C_2
REMARK    2  A    between atoms: C_2  and  C_4
REMARK    3  A    between atoms: C_2  and  N_54
REMARK    4  A    between atoms: C_9  and  C_10
REMARK    5  A    between atoms: C_9  and  N_54
REMARK    6  A    between atoms: N_12  and  C_13
REMARK    7  A    between atoms: C_15  and  S_20
REMARK    8  A    between atoms: S_20  and  N_23
REMARK                            x       y       z     vdW  Elec       q    Type
REMARK                         _______ _______ _______ _____ _____    ______ ____
ROOT
ATOM      1  C   UNL     1       1.185   2.087  -0.007  0.00  0.00    +0.054 A 
ATOM      2  C   UNL     1       2.396   1.410  -0.025  0.00  0.00    +0.053 A 
ATOM      3  C   UNL     1       2.414   0.029  -0.042  0.00  0.00    +0.107 A 
ATOM      4  C   UNL     1       1.226  -0.680  -0.040  0.00  0.00    +0.030 A 
ATOM      5  C   UNL     1       0.018  -0.009  -0.022  0.00  0.00    +0.024 A 
ATOM      6  C   UNL     1      -0.007   1.373  -0.005  0.00  0.00    +0.062 A 
ATOM      7 CL   UNL     1      -1.525   2.215   0.011  0.00  0.00    -0.082 Cl
ENDROOT
BRANCH   1  10
ATOM      8  C   UNL     1       2.119   4.168   0.673  0.00  0.00    +0.200 C 
ATOM      9  O   UNL     1       3.041   3.572   1.188  0.00  0.00    -0.278 OA
ATOM     10  N   UNL     1       1.163   3.487   0.009  0.00  0.00    -0.286 N 
ATOM     11  H   UNL     1       0.461   3.967  -0.457  0.00  0.00    +0.155 HD
BRANCH   8  12
ATOM     12  C   UNL     1       2.040   5.669   0.776  0.00  0.00    +0.016 C 
BRANCH  12  13
ATOM     13  N   UNL     1       3.197   6.162   1.547  0.00  0.00    +0.389 N 
ATOM     14  H   UNL     1       3.180   5.747   2.486  0.00  0.00    -0.084 HD
ATOM     15  H   UNL     1       4.064   5.890   1.068  0.00  0.00    -0.084 HD
BRANCH  13  17
ATOM     16  C   UNL     1       3.782   8.264   0.424  0.00  0.00    -0.008 C 
ATOM     17  C   UNL     1       3.147   7.631   1.664  0.00  0.00    -0.037 C 
BRANCH  17  18
ATOM     18  C   UNL     1       3.909   8.056   2.892  0.00  0.00    -0.024 A 
ATOM     19  C   UNL     1       3.608   9.026   3.791  0.00  0.00    +0.009 A 
ATOM     20  C   UNL     1       4.463   9.241   4.856  0.00  0.00    +0.008 A 
ATOM     21  C   UNL     1       5.581   8.483   4.965  0.00  0.00    +0.045 A 
ATOM     22  S   UNL     1       5.447   7.419   3.537  0.00  0.00    -0.103 S 
ENDBRANCH  17  18
ENDBRANCH  13  17
ENDBRANCH  12  13
ENDBRANCH   8  12
ENDBRANCH   1  10
BRANCH   3  23
ATOM     23  S   UNL     1       3.952  -0.831  -0.065  0.00  0.00    +0.061 S 
ATOM     24  O   UNL     1       4.919   0.051   0.488  0.00  0.00    -0.153 OA
ATOM     25  O   UNL     1       3.703  -2.123   0.472  0.00  0.00    -0.153 OA
BRANCH  23  26
ATOM     26  N   UNL     1       4.366  -1.051  -1.653  0.00  0.00    -0.177 NA
ATOM     27  C   UNL     1       3.924  -2.253  -2.325  0.00  0.00    +0.109 C 
ATOM     28  C   UNL     1       4.971  -3.372  -2.140  0.00  0.00    +0.017 C 
ATOM     29  C   UNL     1       6.176  -3.080  -2.931  0.00  0.00    +0.001 C 
ATOM     30  C   UNL     1       6.906  -1.806  -2.517  0.00  0.00    +0.001 C 
ATOM     31  C   UNL     1       6.277  -0.622  -3.210  0.00  0.00    +0.017 C 
ATOM     32  C   UNL     1       5.175  -0.014  -2.324  0.00  0.00    +0.109 C 
ENDBRANCH  23  26
ENDBRANCH   3  23
TORSDOF 7
