REMARK  Name = ZINC00649223
REMARK  6 active torsions:
REMARK  status: ('A' for Active; 'I' for Inactive)
REMARK    1  A    between atoms: C_5  and  O_7
REMARK    2  A    between atoms: O_7  and  C_8
REMARK    3  A    between atoms: C_8  and  C_9
REMARK    4  A    between atoms: N_11  and  C_12
REMARK    5  A    between atoms: C_13  and  C_25
REMARK    6  A    between atoms: C_14  and  C_17
REMARK                            x       y       z     vdW  Elec       q    Type
REMARK                         _______ _______ _______ _____ _____    ______ ____
ROOT
ATOM      1  C   UNL     1       1.609   5.722  -0.996  0.00  0.00    +0.085 A 
ATOM      2  C   UNL     1       1.672   4.340  -1.110  0.00  0.00    +0.073 A 
ATOM      3  C   UNL     1       1.168   3.569   0.010  0.00  0.00    +0.004 A 
ATOM      4  C   UNL     1       0.677   4.271   1.063  0.00  0.00    +0.056 A 
ATOM      5  S   UNL     1       0.898   5.966   0.563  0.00  0.00    -0.081 S 
ENDROOT
BRANCH   3   6
ATOM      6  C   UNL     1       1.182   2.087   0.002  0.00  0.00    +0.002 A 
ATOM      7  C   UNL     1      -0.017   1.375   0.010  0.00  0.00    +0.011 A 
ATOM      8  C   UNL     1       0.002  -0.004   0.002  0.00  0.00    +0.021 A 
ATOM      9  C   UNL     1       1.209  -0.683  -0.013  0.00  0.00    +0.042 A 
ATOM     10  C   UNL     1       2.403   0.017  -0.020  0.00  0.00    +0.040 A 
ATOM     11  C   UNL     1       2.396   1.398  -0.013  0.00  0.00    +0.050 A 
ATOM     12 CL   UNL     1       3.894   2.276  -0.022  0.00  0.00    -0.083 Cl
ATOM     13 CL   UNL     1       1.224  -2.419  -0.022  0.00  0.00    -0.083 Cl
ENDBRANCH   3   6
BRANCH   2  14
ATOM     14  C   UNL     1       2.221   3.693  -2.304  0.00  0.00    +0.244 C 
ATOM     15  O   UNL     1       1.490   3.416  -3.237  0.00  0.00    -0.270 OA
ATOM     16  N   UNL     1       3.536   3.403  -2.369  0.00  0.00    -0.325 N 
ATOM     17  H   UNL     1       4.118   3.624  -1.626  0.00  0.00    +0.145 HD
ATOM     18  H   UNL     1       3.899   2.974  -3.160  0.00  0.00    +0.145 HD
ENDBRANCH   2  14
BRANCH   1  21
ATOM     19  C   UNL     1       1.879   7.988  -1.626  0.00  0.00    +0.255 C 
ATOM     20  O   UNL     1       1.395   8.330  -0.568  0.00  0.00    -0.272 OA
ATOM     21  N   UNL     1       2.019   6.679  -1.912  0.00  0.00    -0.277 N 
ATOM     22  H   UNL     1       2.406   6.405  -2.758  0.00  0.00    +0.155 HD
BRANCH  19  23
ATOM     23  C   UNL     1       2.325   9.028  -2.622  0.00  0.00    +0.325 C 
BRANCH  23  24
ATOM     24  O   UNL     1       2.074  10.332  -2.093  0.00  0.00    -0.481 OA
BRANCH  24  29
ATOM     25  C   UNL     1       3.341  12.257  -4.909  0.00  0.00    +0.004 A 
ATOM     26  C   UNL     1       3.126  13.546  -4.458  0.00  0.00    +0.002 A 
ATOM     27  C   UNL     1       2.558  13.761  -3.215  0.00  0.00    +0.023 A 
ATOM     28  C   UNL     1       2.205  12.686  -2.421  0.00  0.00    +0.083 A 
ATOM     29  C   UNL     1       2.420  11.391  -2.872  0.00  0.00    +0.139 A 
ATOM     30  C   UNL     1       2.995  11.179  -4.117  0.00  0.00    +0.047 A 
ATOM     31 CL   UNL     1       1.493  12.955  -0.861  0.00  0.00    -0.080 Cl
ENDBRANCH  24  29
ENDBRANCH  23  24
ENDBRANCH  19  23
ENDBRANCH   1  21
TORSDOF 6
