REMARK  Name = ZINC52094975
REMARK  3 active torsions:
REMARK  status: ('A' for Active; 'I' for Inactive)
REMARK    1  A    between atoms: C_3  and  C_9
REMARK    2  A    between atoms: C_9  and  C_11
REMARK    3  A    between atoms: C_9  and  O_24
REMARK                            x       y       z     vdW  Elec       q    Type
REMARK                         _______ _______ _______ _____ _____    ______ ____
ROOT
ATOM      1  C   UNL     1       4.215   2.241  -1.427  0.00  0.00    +0.001 A 
ATOM      2  C   UNL     1       4.033   3.376  -2.192  0.00  0.00    +0.035 A 
ATOM      3  C   UNL     1       4.533   3.425  -3.484  0.00  0.00    +0.067 A 
ATOM      4  C   UNL     1       5.219   2.327  -4.007  0.00  0.00    +0.068 A 
ATOM      5  C   UNL     1       5.397   1.191  -3.232  0.00  0.00    +0.043 A 
ATOM      6  C   UNL     1       4.900   1.153  -1.943  0.00  0.00    +0.026 A 
ATOM      7 BR   UNL     1       5.149  -0.392  -0.882  0.00  0.00    -0.050 Br
ATOM      8  N   UNL     1       5.596   2.667  -5.304  0.00  0.00    -0.306 N 
ATOM      9  H   UNL     1       6.088   2.102  -5.919  0.00  0.00    +0.170 HD
ATOM     10  C   UNL     1       5.159   3.915  -5.559  0.00  0.00    +0.325 A 
ATOM     11  O   UNL     1       5.322   4.515  -6.605  0.00  0.00    -0.247 OA
ATOM     12  N   UNL     1       4.514   4.399  -4.480  0.00  0.00    -0.306 N 
ATOM     13  H   UNL     1       4.106   5.276  -4.409  0.00  0.00    +0.170 HD
ENDROOT
BRANCH   1  14
ATOM     14  C   UNL     1       3.671   2.187  -0.022  0.00  0.00    +0.178 C 
BRANCH  14  17
ATOM     15  C   UNL     1       0.897  -0.345   0.356  0.00  0.00    +0.020 A 
ATOM     16  C   UNL     1       2.150   0.239   0.368  0.00  0.00    +0.011 A 
ATOM     17  C   UNL     1       2.305   1.551  -0.036  0.00  0.00    +0.021 A 
ATOM     18  C   UNL     1       1.205   2.282  -0.454  0.00  0.00    +0.131 A 
ATOM     19  C   UNL     1      -0.049   1.696  -0.467  0.00  0.00    +0.058 A 
ATOM     20  C   UNL     1      -0.203   0.383  -0.062  0.00  0.00    +0.044 A 
ATOM     21 CL   UNL     1      -1.775  -0.352  -0.077  0.00  0.00    -0.083 Cl
ATOM     22  F   UNL     1       1.356   3.565  -0.849  0.00  0.00    -0.205 F 
ENDBRANCH  14  17
BRANCH  14  23
ATOM     23  O   UNL     1       3.573   3.513   0.501  0.00  0.00    -0.382 OA
ATOM     24  H   UNL     1       2.993   4.096  -0.007  0.00  0.00    +0.211 HD
ENDBRANCH  14  23
ENDBRANCH   1  14
TORSDOF 3
