REMARK  Name = ZINC08921871
REMARK  6 active torsions:
REMARK  status: ('A' for Active; 'I' for Inactive)
REMARK    1  A    between atoms: C_7  and  C_16
REMARK    2  A    between atoms: C_16  and  O_18
REMARK    3  A    between atoms: O_18  and  C_19
REMARK    4  A    between atoms: C_19  and  C_20
REMARK    5  A    between atoms: N_22  and  C_23
REMARK    6  A    between atoms: C_24  and  C_31
REMARK                            x       y       z     vdW  Elec       q    Type
REMARK                         _______ _______ _______ _____ _____    ______ ____
ROOT
ATOM      1  O   UNL     1      -0.339   4.883   0.559  0.00  0.00    -0.452 OA
ENDROOT
BRANCH   1   2
ATOM      2  C   UNL     1       0.427   4.031   1.267  0.00  0.00    +0.341 C 
ATOM      3  O   UNL     1       0.188   3.833   2.442  0.00  0.00    -0.245 OA
BRANCH   2  10
ATOM      4  C   UNL     1       4.370   5.668   1.158  0.00  0.00    +0.001 A 
ATOM      5  C   UNL     1       5.401   4.987   0.513  0.00  0.00    +0.002 A 
ATOM      6  C   UNL     1       5.181   3.784  -0.083  0.00  0.00    +0.028 A 
ATOM      7  C   UNL     1       3.896   3.211  -0.048  0.00  0.00    +0.072 A 
ATOM      8  C   UNL     1       2.850   3.912   0.601  0.00  0.00    +0.015 A 
ATOM      9  C   UNL     1       3.112   5.148   1.207  0.00  0.00    +0.011 A 
ATOM     10  C   UNL     1       1.557   3.337   0.616  0.00  0.00    +0.073 A 
ATOM     11  C   UNL     1       1.377   2.096   0.000  0.00  0.00    -0.012 A 
ATOM     12  C   UNL     1       2.459   1.461  -0.586  0.00  0.00    +0.046 A 
ATOM     13  N   UNL     1       3.652   2.027  -0.605  0.00  0.00    -0.251 NA
ATOM     14  C   UNL     1       2.344   0.098  -1.222  0.00  0.00    +0.056 C 
ATOM     15  C   UNL     1       1.173   0.046  -2.206  0.00  0.00    +0.006 C 
ATOM     16  C   UNL     1      -0.047  -0.475  -1.452  0.00  0.00    +0.001 C 
ATOM     17  C   UNL     1       0.002  -0.004   0.002  0.00  0.00    +0.005 C 
ATOM     18  C   UNL     1      -0.019   1.524   0.010  0.00  0.00    +0.038 C 
ENDBRANCH   2  10
ENDBRANCH   1   2
BRANCH   1  19
ATOM     19  C   UNL     1      -1.432   5.529   1.263  0.00  0.00    +0.328 C 
BRANCH  19  20
ATOM     20  C   UNL     1      -2.172   6.439   0.317  0.00  0.00    +0.255 C 
ATOM     21  O   UNL     1      -1.813   6.534  -0.838  0.00  0.00    -0.272 OA
ATOM     22  N   UNL     1      -3.232   7.147   0.753  0.00  0.00    -0.277 N 
ATOM     23  H   UNL     1      -3.519   7.072   1.677  0.00  0.00    +0.155 HD
BRANCH  22  24
ATOM     24  C   UNL     1      -3.913   7.985  -0.117  0.00  0.00    +0.084 A 
ATOM     25  C   UNL     1      -5.016   8.780   0.140  0.00  0.00    +0.068 A 
ATOM     26  C   UNL     1      -5.546   9.581  -0.964  0.00  0.00    -0.023 A 
ATOM     27  C   UNL     1      -4.894   9.444  -2.132  0.00  0.00    -0.004 A 
ATOM     28  S   UNL     1      -3.594   8.283  -1.792  0.00  0.00    -0.077 S 
ATOM     29  C   UNL     1      -5.497  10.295  -3.217  0.00  0.00    +0.043 C 
ATOM     30  C   UNL     1      -6.367  11.326  -2.465  0.00  0.00    +0.010 C 
ATOM     31  C   UNL     1      -6.695  10.570  -1.162  0.00  0.00    +0.037 C 
BRANCH  25  32
ATOM     32  C   UNL     1      -5.628   8.822   1.471  0.00  0.00    +0.244 C 
ATOM     33  O   UNL     1      -5.247   9.636   2.292  0.00  0.00    -0.270 OA
ATOM     34  N   UNL     1      -6.615   7.959   1.786  0.00  0.00    -0.325 N 
ATOM     35  H   UNL     1      -6.919   7.310   1.133  0.00  0.00    +0.145 HD
ATOM     36  H   UNL     1      -7.020   7.986   2.667  0.00  0.00    +0.145 HD
ENDBRANCH  25  32
ENDBRANCH  22  24
ENDBRANCH  19  20
ENDBRANCH   1  19
TORSDOF 6
