REMARK  Name = ZINC20726077
REMARK  9 active torsions:
REMARK  status: ('A' for Active; 'I' for Inactive)
REMARK    1  A    between atoms: C_1  and  C_2
REMARK    2  A    between atoms: C_5  and  C_36
REMARK    3  A    between atoms: N_8  and  C_10
REMARK    4  A    between atoms: C_10  and  C_11
REMARK    5  A    between atoms: C_11  and  C_12
REMARK    6  A    between atoms: C_12  and  N_13
REMARK    7  A    between atoms: C_14  and  C_16
REMARK    8  A    between atoms: C_16  and  N_17
REMARK    9  A    between atoms: C_26  and  C_27
REMARK                            x       y       z     vdW  Elec       q    Type
REMARK                         _______ _______ _______ _____ _____    ______ ____
ROOT
ATOM      1  N   UNL     1       0.366   1.323  -6.874  0.00  0.00    -0.253 N 
ATOM      2  C   UNL     1      -0.154   0.118  -7.363  0.00  0.00    +0.080 A 
ATOM      3  C   UNL     1      -1.210  -0.499  -6.709  0.00  0.00    +0.027 A 
ATOM      4  C   UNL     1      -1.723  -1.687  -7.195  0.00  0.00    +0.002 A 
ATOM      5  C   UNL     1      -1.186  -2.264  -8.331  0.00  0.00    +0.004 A 
ATOM      6  C   UNL     1      -0.133  -1.656  -8.989  0.00  0.00    +0.048 A 
ATOM      7  C   UNL     1       0.387  -0.465  -8.508  0.00  0.00    +0.150 A 
ATOM      8  O   UNL     1       1.426   0.137  -9.151  0.00  0.00    -0.449 OA
ATOM      9  C   UNL     1       1.522   1.493  -8.997  0.00  0.00    +0.191 C 
ATOM     10  C   UNL     1       1.892   2.295 -10.019  0.00  0.00    +0.059 C 
ATOM     11  C   UNL     1       1.197   2.045  -7.664  0.00  0.00    +0.287 C 
ATOM     12  O   UNL     1       1.661   3.106  -7.290  0.00  0.00    -0.266 OA
ENDROOT
BRANCH  10  13
ATOM     13  C   UNL     1       1.796   3.756  -9.880  0.00  0.00    -0.020 A 
ATOM     14  C   UNL     1       2.771   4.582 -10.448  0.00  0.00    +0.008 A 
ATOM     15  C   UNL     1       2.675   5.951 -10.314  0.00  0.00    +0.002 A 
ATOM     16  C   UNL     1       1.615   6.509  -9.619  0.00  0.00    +0.015 A 
ATOM     17  C   UNL     1       0.645   5.698  -9.054  0.00  0.00    +0.018 A 
ATOM     18  C   UNL     1       0.726   4.327  -9.184  0.00  0.00    +0.023 A 
ATOM     19 BR   UNL     1      -0.797   6.473  -8.108  0.00  0.00    -0.050 Br
ENDBRANCH  10  13
BRANCH   1  20
ATOM     20  C   UNL     1       0.014   1.797  -5.533  0.00  0.00    +0.209 C 
BRANCH  20  22
ATOM     21  N   UNL     1       0.880   1.567  -3.228  0.00  0.00    -0.314 N 
ATOM     22  C   UNL     1       1.006   1.260  -4.534  0.00  0.00    +0.231 C 
ATOM     23  O   UNL     1       1.917   0.551  -4.905  0.00  0.00    -0.274 OA
ATOM     24  H   UNL     1       0.054   2.210  -2.891  0.00  0.00    +0.149 HD
BRANCH  21  25
ATOM     25  C   UNL     1       1.844   1.045  -2.256  0.00  0.00    +0.102 C 
BRANCH  25  26
ATOM     26  C   UNL     1       1.476   1.540  -0.856  0.00  0.00    +0.000 C 
BRANCH  26  27
ATOM     27  C   UNL     1       2.483   0.995   0.159  0.00  0.00    -0.077 C 
BRANCH  27  33
ATOM     28  C   UNL     1       1.945   4.918   3.075  0.00  0.00    +0.005 C 
ATOM     29  C   UNL     1       1.768   3.403   2.964  0.00  0.00    -0.031 C 
ATOM     30  C   UNL     1       2.564   2.712   4.074  0.00  0.00    +0.003 C 
ATOM     31  C   UNL     1       2.430   1.194   3.919  0.00  0.00    -0.031 C 
ATOM     32  C   UNL     1       2.924   0.783   2.530  0.00  0.00    -0.076 C 
ATOM     33  N   UNL     1       2.130   1.470   1.503  0.00  0.00    +0.380 N 
ATOM     34  C   UNL     1       2.281   2.927   1.603  0.00  0.00    -0.076 C 
ATOM     35  C   UNL     1       0.963   0.792   4.079  0.00  0.00    +0.005 C 
ATOM     36  H   UNL     1       1.071   1.229   1.681  0.00  0.00    -0.082 HD
ENDBRANCH  27  33
ENDBRANCH  26  27
ENDBRANCH  25  26
ENDBRANCH  21  25
ENDBRANCH  20  22
ENDBRANCH   1  20
TORSDOF 7
