REMARK  Name = ZINC63128793
REMARK  5 active torsions:
REMARK  status: ('A' for Active; 'I' for Inactive)
REMARK    1  A    between atoms: C_7  and  C_20
REMARK    2  A    between atoms: N_10  and  C_11
REMARK    3  A    between atoms: C_11  and  C_12
REMARK    4  A    between atoms: C_20  and  C_21
REMARK    5  A    between atoms: C_21  and  N_22
REMARK                            x       y       z     vdW  Elec       q    Type
REMARK                         _______ _______ _______ _____ _____    ______ ____
ROOT
ATOM      1  C   UNL     1      -0.540   1.187   0.124  0.00  0.00    +0.000 A 
ATOM      2  C   UNL     1       0.575   1.982   0.319  0.00  0.00    +0.002 A 
ATOM      3  C   UNL     1       1.825   1.411   0.424  0.00  0.00    +0.023 A 
ATOM      4  C   UNL     1       1.976   0.025   0.335  0.00  0.00    +0.034 A 
ATOM      5  C   UNL     1       0.852  -0.763   0.140  0.00  0.00    -0.022 A 
ATOM      6  C   UNL     1      -0.399  -0.185   0.035  0.00  0.00    +0.006 A 
ATOM      7  C   UNL     1       1.284  -2.211   0.081  0.00  0.00    +0.036 C 
ATOM      8  C   UNL     1       2.810  -2.166   0.267  0.00  0.00    +0.113 C 
ATOM      9  N   UNL     1       3.137  -0.745   0.415  0.00  0.00    -0.325 N 
ENDROOT
BRANCH   9  10
ATOM     10  C   UNL     1       4.486  -0.211   0.617  0.00  0.00    +0.141 C 
BRANCH  10  11
ATOM     11  C   UNL     1       4.781  -0.135   2.093  0.00  0.00    -0.016 A 
ATOM     12  C   UNL     1       4.661   1.069   2.761  0.00  0.00    +0.009 A 
ATOM     13  C   UNL     1       4.931   1.140   4.114  0.00  0.00    +0.039 A 
ATOM     14  C   UNL     1       5.321   0.004   4.802  0.00  0.00    +0.124 A 
ATOM     15  C   UNL     1       5.441  -1.202   4.134  0.00  0.00    +0.054 A 
ATOM     16  C   UNL     1       5.166  -1.272   2.780  0.00  0.00    +0.025 A 
ATOM     17 BR   UNL     1       5.322  -2.921   1.867  0.00  0.00    -0.050 Br
ATOM     18  F   UNL     1       5.585   0.072   6.125  0.00  0.00    -0.205 F 
ENDBRANCH  10  11
ENDBRANCH   9  10
BRANCH   7  19
ATOM     19  C   UNL     1       0.927  -2.819  -1.276  0.00  0.00    -0.010 C 
BRANCH  19  20
ATOM     20  C   UNL     1       1.248  -4.315  -1.264  0.00  0.00    -0.086 C 
BRANCH  20  21
ATOM     21  N   UNL     1       0.793  -4.923  -2.522  0.00  0.00    +0.378 N 
ATOM     22  H   UNL     1       1.004  -5.910  -2.514  0.00  0.00    -0.090 HD
ATOM     23  H   UNL     1      -0.203  -4.793  -2.618  0.00  0.00    -0.090 HD
ATOM     24  H   UNL     1       1.266  -4.484  -3.298  0.00  0.00    -0.090 HD
ENDBRANCH  20  21
ENDBRANCH  19  20
ENDBRANCH   7  19
TORSDOF 5
