REMARK  Name = ZINC34942890
REMARK  7 active torsions:
REMARK  status: ('A' for Active; 'I' for Inactive)
REMARK    1  A    between atoms: C_4  and  C_7
REMARK    2  A    between atoms: C_7  and  O_8
REMARK    3  A    between atoms: O_8  and  C_9
REMARK    4  A    between atoms: C_9  and  C_11
REMARK    5  A    between atoms: C_12  and  N_37
REMARK    6  A    between atoms: C_25  and  C_27
REMARK    7  A    between atoms: C_30  and  C_33
REMARK                            x       y       z     vdW  Elec       q    Type
REMARK                         _______ _______ _______ _____ _____    ______ ____
ROOT
ATOM      1  C   UNL     1       5.778  -1.892   2.757  0.00  0.00    +0.105 C 
ATOM      2  C   UNL     1       6.920  -2.611   2.908  0.00  0.00    +0.195 C 
ATOM      3  O   UNL     1       7.432  -2.870   4.123  0.00  0.00    -0.441 OA
ATOM      4  C   UNL     1       7.062  -2.126   5.182  0.00  0.00    +0.152 A 
ATOM      5  C   UNL     1       7.888  -2.110   6.400  0.00  0.00    +0.060 A 
ATOM      6  C   UNL     1       9.062  -2.861   6.485  0.00  0.00    +0.015 A 
ATOM      7  C   UNL     1       9.811  -2.824   7.640  0.00  0.00    +0.001 A 
ATOM      8  C   UNL     1       9.405  -2.045   8.714  0.00  0.00    +0.004 A 
ATOM      9  C   UNL     1       8.248  -1.298   8.643  0.00  0.00    +0.047 A 
ATOM     10  C   UNL     1       7.478  -1.322   7.487  0.00  0.00    +0.143 A 
ATOM     11  O   UNL     1       6.342  -0.597   7.399  0.00  0.00    -0.422 OA
ATOM     12  C   UNL     1       5.580  -0.611   6.294  0.00  0.00    +0.345 A 
ATOM     13  O   UNL     1       4.562   0.058   6.268  0.00  0.00    -0.245 OA
ATOM     14  C   UNL     1       5.926  -1.374   5.165  0.00  0.00    +0.092 A 
ATOM     15  C   UNL     1       5.041  -1.349   3.950  0.00  0.00    +0.101 C 
ENDROOT
BRANCH  15  16
ATOM     16  C   UNL     1       3.821  -2.194   4.209  0.00  0.00    -0.035 A 
ATOM     17  C   UNL     1       3.959  -3.541   4.491  0.00  0.00    +0.005 A 
ATOM     18  C   UNL     1       2.840  -4.316   4.729  0.00  0.00    +0.012 A 
ATOM     19  C   UNL     1       1.582  -3.745   4.687  0.00  0.00    +0.055 A 
ATOM     20  C   UNL     1       1.443  -2.398   4.406  0.00  0.00    +0.012 A 
ATOM     21  C   UNL     1       2.563  -1.622   4.172  0.00  0.00    +0.005 A 
BRANCH  19  22
ATOM     22  C   UNL     1       0.362  -4.590   4.946  0.00  0.00    +0.417 C 
ATOM     23  F   UNL     1       0.066  -4.576   6.313  0.00  0.00    -0.166 F 
ATOM     24  F   UNL     1      -0.724  -4.075   4.229  0.00  0.00    -0.166 F 
ATOM     25  F   UNL     1       0.609  -5.905   4.536  0.00  0.00    -0.166 F 
ENDBRANCH  19  22
ENDBRANCH  15  16
BRANCH   2  26
ATOM     26  N   UNL     1       7.564  -3.084   1.796  0.00  0.00    -0.329 N 
ATOM     27  H   UNL     1       7.257  -2.828   0.912  0.00  0.00    +0.145 HD
ATOM     28  H   UNL     1       8.328  -3.674   1.892  0.00  0.00    +0.145 HD
ENDBRANCH   2  26
BRANCH   1  29
ATOM     29  C   UNL     1       5.282  -1.647   1.468  0.00  0.00    +0.341 C 
ATOM     30  O   UNL     1       5.456  -0.561   0.944  0.00  0.00    -0.245 OA
BRANCH  29  31
ATOM     31  O   UNL     1       4.610  -2.615   0.807  0.00  0.00    -0.456 OA
BRANCH  31  32
ATOM     32  C   UNL     1       4.133  -2.296  -0.501  0.00  0.00    +0.268 C 
BRANCH  32  36
ATOM     33  C   UNL     1       2.096  -5.675  -2.139  0.00  0.00    +0.000 A 
ATOM     34  C   UNL     1       1.397  -4.737  -1.402  0.00  0.00    +0.000 A 
ATOM     35  C   UNL     1       2.057  -3.644  -0.872  0.00  0.00    +0.007 A 
ATOM     36  C   UNL     1       3.414  -3.489  -1.078  0.00  0.00    -0.010 A 
ATOM     37  C   UNL     1       4.114  -4.427  -1.814  0.00  0.00    +0.007 A 
ATOM     38  C   UNL     1       3.454  -5.520  -2.345  0.00  0.00    +0.000 A 
ENDBRANCH  32  36
ENDBRANCH  31  32
ENDBRANCH  29  31
ENDBRANCH   1  29
TORSDOF 7
