REMARK  Name = ZINC64417339
REMARK  8 active torsions:
REMARK  status: ('A' for Active; 'I' for Inactive)
REMARK    1  A    between atoms: C_6  and  C_7
REMARK    2  A    between atoms: C_7  and  N_8
REMARK    3  A    between atoms: C_9  and  C_11
REMARK    4  A    between atoms: C_11  and  C_12
REMARK    5  A    between atoms: C_12  and  C_13
REMARK    6  A    between atoms: N_17  and  C_21
REMARK    7  A    between atoms: C_21  and  C_22
REMARK    8  A    between atoms: C_22  and  C_23
REMARK                            x       y       z     vdW  Elec       q    Type
REMARK                         _______ _______ _______ _____ _____    ______ ____
ROOT
ATOM      1  C   UNL     1      -5.081  -2.974  -4.457  0.00  0.00    +0.161 C 
ATOM      2  C   UNL     1      -6.347  -3.808  -4.479  0.00  0.00    +0.243 C 
ATOM      3  O   UNL     1      -6.490  -4.933  -4.051  0.00  0.00    -0.273 OA
ATOM      4  N   UNL     1      -7.280  -3.038  -5.074  0.00  0.00    -0.224 N 
ATOM      5  C   UNL     1      -6.785  -1.846  -5.426  0.00  0.00    +0.309 C 
ATOM      6  O   UNL     1      -7.435  -0.981  -5.979  0.00  0.00    -0.252 OA
ATOM      7  N   UNL     1      -5.482  -1.712  -5.103  0.00  0.00    -0.288 N 
ATOM      8  H   UNL     1      -4.920  -0.938  -5.262  0.00  0.00    +0.151 HD
ENDROOT
BRANCH   1   9
ATOM      9  C   UNL     1      -4.629  -2.721  -3.017  0.00  0.00    +0.041 C 
BRANCH   9  10
ATOM     10  C   UNL     1      -3.314  -1.940  -3.025  0.00  0.00    +0.098 C 
BRANCH  10  12
ATOM     11  N   UNL     1      -1.727  -1.016  -1.368  0.00  0.00    -0.311 N 
ATOM     12  C   UNL     1      -2.868  -1.691  -1.607  0.00  0.00    +0.213 C 
ATOM     13  O   UNL     1      -3.537  -2.098  -0.681  0.00  0.00    -0.276 OA
ATOM     14  H   UNL     1      -1.192  -0.690  -2.109  0.00  0.00    +0.149 HD
BRANCH  11  15
ATOM     15  C   UNL     1      -1.294  -0.774   0.010  0.00  0.00    +0.139 C 
BRANCH  15  21
ATOM     16  C   UNL     1      -0.017   1.378   0.010  0.00  0.00    +0.009 A 
ATOM     17  C   UNL     1       1.170   2.088   0.002  0.00  0.00    +0.050 A 
ATOM     18  C   UNL     1       2.380   1.416  -0.013  0.00  0.00    +0.166 A 
ATOM     19  C   UNL     1       2.399   0.023  -0.021  0.00  0.00    +0.167 A 
ATOM     20  C   UNL     1       1.207  -0.682  -0.014  0.00  0.00    +0.054 A 
ATOM     21  C   UNL     1       0.002  -0.004   0.002  0.00  0.00    -0.027 A 
ATOM     22  O   UNL     1       3.698  -0.395  -0.036  0.00  0.00    -0.453 OA
ATOM     23  C   UNL     1       4.466   0.750  -0.450  0.00  0.00    +0.466 C 
ATOM     24  O   UNL     1       3.668   1.870  -0.024  0.00  0.00    -0.453 OA
ENDBRANCH  15  21
ENDBRANCH  11  15
ENDBRANCH  10  12
ENDBRANCH   9  10
ENDBRANCH   1   9
BRANCH   4  25
ATOM     25  C   UNL     1      -8.665  -3.455  -5.307  0.00  0.00    +0.122 C 
BRANCH  25  26
ATOM     26  C   UNL     1      -9.524  -3.065  -4.103  0.00  0.00    +0.052 C 
BRANCH  26  27
ATOM     27  C   UNL     1     -10.949  -3.494  -4.342  0.00  0.00    -0.040 C 
ATOM     28  C   UNL     1     -11.534  -4.640  -3.924  0.00  0.00    +0.000 A 
ATOM     29  C   UNL     1     -11.038  -5.785  -3.152  0.00  0.00    +0.030 A 
ATOM     30  C   UNL     1     -11.880  -6.810  -2.884  0.00  0.00    +0.042 A 
ATOM     31  C   UNL     1     -13.212  -6.805  -3.325  0.00  0.00    +0.022 A 
ATOM     32  C   UNL     1     -13.739  -5.788  -4.039  0.00  0.00    +0.027 A 
ATOM     33  C   UNL     1     -12.943  -4.658  -4.377  0.00  0.00    +0.043 A 
ATOM     34  N   UNL     1     -13.219  -3.567  -5.049  0.00  0.00    -0.380 N 
ATOM     35  C   UNL     1     -12.015  -2.728  -5.092  0.00  0.00    +0.144 C 
ATOM     36 CL   UNL     1     -11.297  -8.167  -1.972  0.00  0.00    -0.084 Cl
ATOM     37  H   UNL     1     -14.075  -3.348  -5.447  0.00  0.00    +0.160 HD
ENDBRANCH  26  27
ENDBRANCH  25  26
ENDBRANCH   4  25
TORSDOF 8
