REMARK  Name = ZINC39583704
REMARK  5 active torsions:
REMARK  status: ('A' for Active; 'I' for Inactive)
REMARK    1  A    between atoms: C_5  and  C_7
REMARK    2  A    between atoms: C_11  and  S_21
REMARK    3  A    between atoms: N_13  and  C_14
REMARK    4  A    between atoms: S_21  and  C_22
REMARK    5  A    between atoms: C_22  and  C_23
REMARK                            x       y       z     vdW  Elec       q    Type
REMARK                         _______ _______ _______ _____ _____    ______ ____
ROOT
ATOM      1  C   UNL     1       1.065  -2.292  -0.037  0.00  0.00    +0.220 C 
ATOM      2  N   UNL     1       2.294  -2.312   0.758  0.00  0.00    -0.286 N 
ATOM      3  N   UNL     1       2.158  -2.959   1.795  0.00  0.00    -0.180 NA
ATOM      4  C   UNL     1       0.808  -3.513   1.917  0.00  0.00    +0.273 C 
ATOM      5  N   UNL     1       0.072  -3.082   0.713  0.00  0.00    -0.273 N 
ATOM      6  H   UNL     1       3.116  -1.868   0.499  0.00  0.00    +0.185 HD
ENDROOT
BRANCH   1  11
ATOM      7  C   UNL     1      -1.049   0.824   0.233  0.00  0.00    +0.000 A 
ATOM      8  C   UNL     1      -0.311   1.724  -0.513  0.00  0.00    +0.001 A 
ATOM      9  C   UNL     1       0.872   1.325  -1.105  0.00  0.00    +0.020 A 
ATOM     10  C   UNL     1       1.318   0.025  -0.951  0.00  0.00    +0.048 A 
ATOM     11  C   UNL     1       0.580  -0.875  -0.204  0.00  0.00    +0.012 A 
ATOM     12  C   UNL     1      -0.604  -0.475   0.387  0.00  0.00    +0.009 A 
ATOM     13 CL   UNL     1       2.804  -0.477  -1.696  0.00  0.00    -0.083 Cl
ENDBRANCH   1  11
BRANCH   5  14
ATOM     14  C   UNL     1      -1.253  -3.356   0.366  0.00  0.00    +0.034 A 
ATOM     15  C   UNL     1      -1.740  -2.976  -0.878  0.00  0.00    +0.024 A 
ATOM     16  C   UNL     1      -3.050  -3.249  -1.219  0.00  0.00    +0.022 A 
ATOM     17  C   UNL     1      -3.878  -3.900  -0.322  0.00  0.00    +0.041 A 
ATOM     18  C   UNL     1      -3.396  -4.280   0.918  0.00  0.00    +0.022 A 
ATOM     19  C   UNL     1      -2.085  -4.015   1.262  0.00  0.00    +0.024 A 
ATOM     20 CL   UNL     1      -5.525  -4.241  -0.753  0.00  0.00    -0.084 Cl
ENDBRANCH   5  14
BRANCH   4  21
ATOM     21  S   UNL     1       0.002  -2.866   3.407  0.00  0.00    -0.106 S 
BRANCH  21  22
ATOM     22  C   UNL     1       0.274  -1.075   3.311  0.00  0.00    +0.147 C 
BRANCH  22  23
ATOM     23  C   UNL     1      -0.340  -0.408   4.515  0.00  0.00    +0.118 A 
ATOM     24  N   UNL     1       0.275  -0.189   5.640  0.00  0.00    -0.232 NA
ATOM     25  C   UNL     1      -0.568   0.428   6.508  0.00  0.00    +0.089 A 
ATOM     26  C   UNL     1      -0.433   0.883   7.822  0.00  0.00    +0.030 A 
ATOM     27  C   UNL     1      -1.492   1.481   8.447  0.00  0.00    +0.002 A 
ATOM     28  C   UNL     1      -2.702   1.643   7.790  0.00  0.00    +0.002 A 
ATOM     29  C   UNL     1      -2.858   1.201   6.493  0.00  0.00    +0.028 A 
ATOM     30  C   UNL     1      -1.794   0.592   5.842  0.00  0.00    +0.066 A 
ATOM     31  N   UNL     1      -1.617   0.058   4.581  0.00  0.00    -0.341 N 
ATOM     32  H   UNL     1      -2.280   0.020   3.874  0.00  0.00    +0.167 HD
ENDBRANCH  22  23
ENDBRANCH  21  22
ENDBRANCH   4  21
TORSDOF 5
