REMARK  Name = ZINC32994491
REMARK  12 active torsions:
REMARK  status: ('A' for Active; 'I' for Inactive)
REMARK    1  A    between atoms: C_1  and  C_2
REMARK    2  A    between atoms: C_2  and  C_3
REMARK    3  A    between atoms: C_3  and  C_4
REMARK    4  A    between atoms: C_4  and  N_5
REMARK    5  A    between atoms: N_5  and  C_6
REMARK    6  A    between atoms: C_7  and  N_19
REMARK    7  A    between atoms: N_8  and  C_15
REMARK    8  A    between atoms: C_15  and  C_16
REMARK    9  A    between atoms: C_16  and  C_17
REMARK   10  A    between atoms: C_16  and  C_18
REMARK   11  A    between atoms: C_20  and  C_22
REMARK   12  A    between atoms: C_29  and  C_31
REMARK                            x       y       z     vdW  Elec       q    Type
REMARK                         _______ _______ _______ _____ _____    ______ ____
ROOT
ATOM      1  N   UNL     1      -3.266  -1.759  -4.854  0.00  0.00    -0.264 N 
ATOM      2  C   UNL     1      -2.142  -2.486  -5.023  0.00  0.00    +0.225 C 
ATOM      3  O   UNL     1      -1.631  -2.568  -6.121  0.00  0.00    -0.275 OA
ENDROOT
BRANCH   1   4
ATOM      4  C   UNL     1      -3.784  -1.552  -3.559  0.00  0.00    +0.140 A 
ATOM      5  C   UNL     1      -4.305  -2.605  -2.835  0.00  0.00    +0.127 A 
ATOM      6  N   UNL     1      -4.803  -2.372  -1.574  0.00  0.00    -0.280 N 
ATOM      7  C   UNL     1      -4.787  -1.131  -1.054  0.00  0.00    +0.331 A 
ATOM      8  O   UNL     1      -5.236  -0.944   0.060  0.00  0.00    -0.246 OA
ATOM      9  N   UNL     1      -4.278  -0.093  -1.743  0.00  0.00    -0.273 N 
ATOM     10  H   UNL     1      -4.267   0.911  -1.296  0.00  0.00    +0.173 HD
ATOM     11  C   UNL     1      -3.778  -0.268  -2.982  0.00  0.00    +0.277 A 
ATOM     12  O   UNL     1      -3.324   0.680  -3.600  0.00  0.00    -0.266 OA
BRANCH   5  13
ATOM     13  N   UNL     1      -4.327  -3.872  -3.367  0.00  0.00    -0.343 N 
ATOM     14  H   UNL     1      -4.744  -4.706  -2.785  0.00  0.00    +0.144 HD
ATOM     15  H   UNL     1      -3.926  -4.051  -4.376  0.00  0.00    +0.144 HD
ENDBRANCH   5  13
BRANCH   6  16
ATOM     16  C   UNL     1      -5.360  -3.480  -0.794  0.00  0.00    +0.131 C 
BRANCH  16  17
ATOM     17  C   UNL     1      -4.253  -4.118   0.048  0.00  0.00    +0.003 C 
ATOM     18  C   UNL     1      -3.771  -3.116   1.099  0.00  0.00    +0.009 C 
ATOM     19  C   UNL     1      -4.798  -5.366   0.744  0.00  0.00    +0.009 C 
ENDBRANCH  16  17
ENDBRANCH   6  16
ENDBRANCH   1   4
BRANCH   2  20
ATOM     20  C   UNL     1      -1.520  -3.197  -3.848  0.00  0.00    +0.093 C 
ATOM     21  C   UNL     1      -0.472  -4.192  -4.349  0.00  0.00    +0.016 C 
ATOM     22  C   UNL     1       0.136  -4.938  -3.159  0.00  0.00    +0.020 C 
ATOM     23  C   UNL     1       0.828  -3.934  -2.232  0.00  0.00    +0.108 C 
ATOM     24  N   UNL     1      -0.138  -2.890  -1.861  0.00  0.00    -0.297 N 
ATOM     25  C   UNL     1      -0.848  -2.173  -2.929  0.00  0.00    +0.120 C 
ATOM     26  C   UNL     1      -0.369  -2.597  -0.566  0.00  0.00    +0.247 C 
ATOM     27  O   UNL     1      -1.215  -1.776  -0.270  0.00  0.00    -0.270 OA
BRANCH  26  28
ATOM     28  C   UNL     1       0.407  -3.274   0.494  0.00  0.00    +0.037 A 
ATOM     29  C   UNL     1       0.531  -4.665   0.493  0.00  0.00    +0.014 A 
ATOM     30  C   UNL     1       1.261  -5.290   1.482  0.00  0.00    +0.021 A 
ATOM     31  C   UNL     1       1.861  -4.542   2.482  0.00  0.00    +0.041 A 
ATOM     32  C   UNL     1       1.737  -3.163   2.491  0.00  0.00    +0.021 A 
ATOM     33  C   UNL     1       1.015  -2.526   1.504  0.00  0.00    +0.014 A 
ATOM     34 CL   UNL     1       2.772  -5.337   3.727  0.00  0.00    -0.084 Cl
ENDBRANCH  26  28
ENDBRANCH   2  20
BRANCH   1  35
ATOM     35  C   UNL     1      -3.948  -1.185  -6.017  0.00  0.00    +0.114 C 
BRANCH  35  36
ATOM     36  C   UNL     1      -3.276   0.135  -6.402  0.00  0.00    +0.019 C 
BRANCH  36  38
ATOM     37  C   UNL     1      -3.362   2.092  -7.953  0.00  0.00    +0.004 C 
ATOM     38  C   UNL     1      -4.034   0.772  -7.568  0.00  0.00    -0.002 C 
ENDBRANCH  36  38
ENDBRANCH  35  36
ENDBRANCH   1  35
TORSDOF 9
