REMARK  Name = ZINC39665633
REMARK  9 active torsions:
REMARK  status: ('A' for Active; 'I' for Inactive)
REMARK    1  A    between atoms: C_1  and  C_2
REMARK    2  A    between atoms: C_2  and  C_4
REMARK    3  A    between atoms: C_2  and  O_28
REMARK    4  A    between atoms: C_4  and  N_5
REMARK    5  A    between atoms: C_6  and  C_8
REMARK    6  A    between atoms: C_19  and  C_21
REMARK    7  A    between atoms: O_28  and  C_29
REMARK    8  A    between atoms: C_32  and  O_35
REMARK    9  A    between atoms: O_35  and  C_36
REMARK                            x       y       z     vdW  Elec       q    Type
REMARK                         _______ _______ _______ _____ _____    ______ ____
ROOT
ATOM      1  C   UNL     1       0.992  -4.173  -2.551  0.00  0.00    +0.100 C 
ATOM      2  C   UNL     1      -0.452  -4.622  -2.868  0.00  0.00    +0.121 C 
ATOM      3  N   UNL     1      -0.474  -4.800  -4.339  0.00  0.00    -0.296 N 
ATOM      4  C   UNL     1       0.838  -5.413  -4.657  0.00  0.00    +0.115 C 
ATOM      5  C   UNL     1       1.836  -4.697  -3.725  0.00  0.00    -0.004 C 
ATOM      6  C   UNL     1       2.888  -5.680  -3.222  0.00  0.00    -0.010 C 
ATOM      7  C   UNL     1       3.752  -6.142  -4.399  0.00  0.00    -0.082 C 
ATOM      8  N   UNL     1       4.397  -4.980  -5.021  0.00  0.00    +0.379 N 
ATOM      9  C   UNL     1       3.380  -4.085  -5.585  0.00  0.00    -0.082 C 
ATOM     10  C   UNL     1       2.500  -3.535  -4.458  0.00  0.00    -0.010 C 
ATOM     11  C   UNL     1      -1.464  -4.477  -5.195  0.00  0.00    +0.247 C 
ATOM     12  O   UNL     1      -2.443  -3.877  -4.794  0.00  0.00    -0.270 OA
ATOM     13  H   UNL     1       4.933  -4.482  -4.326  0.00  0.00    -0.086 HD
ATOM     14  H   UNL     1       5.013  -5.293  -5.757  0.00  0.00    -0.086 HD
ENDROOT
BRANCH  11  15
ATOM     15  C   UNL     1      -1.359  -4.851  -6.621  0.00  0.00    +0.037 A 
ATOM     16  C   UNL     1      -0.565  -5.933  -7.005  0.00  0.00    +0.014 A 
ATOM     17  C   UNL     1      -0.471  -6.278  -8.337  0.00  0.00    +0.021 A 
ATOM     18  C   UNL     1      -1.163  -5.553  -9.293  0.00  0.00    +0.041 A 
ATOM     19  C   UNL     1      -1.953  -4.479  -8.918  0.00  0.00    +0.021 A 
ATOM     20  C   UNL     1      -2.059  -4.128  -7.589  0.00  0.00    +0.014 A 
ATOM     21 CL   UNL     1      -1.040  -5.992 -10.968  0.00  0.00    -0.084 Cl
ENDBRANCH  11  15
BRANCH   1  23
ATOM     22  N   UNL     1       2.088  -2.078  -1.825  0.00  0.00    -0.312 N 
ATOM     23  C   UNL     1       1.069  -2.669  -2.479  0.00  0.00    +0.218 C 
ATOM     24  O   UNL     1       0.215  -1.992  -3.010  0.00  0.00    -0.275 OA
ATOM     25  H   UNL     1       2.772  -2.619  -1.401  0.00  0.00    +0.149 HD
BRANCH  22  26
ATOM     26  C   UNL     1       2.164  -0.616  -1.755  0.00  0.00    +0.148 C 
BRANCH  26  28
ATOM     27  C   UNL     1       3.420   1.312  -0.783  0.00  0.00    +0.053 C 
ATOM     28  C   UNL     1       3.407  -0.207  -0.963  0.00  0.00    +0.187 C 
BRANCH  28  29
ATOM     29  O   UNL     1       4.579  -0.612  -1.672  0.00  0.00    -0.488 OA
BRANCH  29  30
ATOM     30  C   UNL     1       5.707  -0.809  -0.939  0.00  0.00    +0.121 A 
ATOM     31  C   UNL     1       6.905  -1.100  -1.574  0.00  0.00    +0.049 A 
ATOM     32  C   UNL     1       8.051  -1.301  -0.829  0.00  0.00    +0.049 A 
ATOM     33  C   UNL     1       8.004  -1.210   0.554  0.00  0.00    +0.120 A 
ATOM     34  C   UNL     1       6.806  -0.918   1.189  0.00  0.00    +0.049 A 
ATOM     35  C   UNL     1       5.661  -0.714   0.444  0.00  0.00    +0.049 A 
BRANCH  33  36
ATOM     36  O   UNL     1       9.132  -1.408   1.287  0.00  0.00    -0.495 OA
ATOM     37  C   UNL     1       9.010  -1.300   2.707  0.00  0.00    +0.277 C 
ENDBRANCH  33  36
ENDBRANCH  29  30
ENDBRANCH  28  29
ENDBRANCH  26  28
ENDBRANCH  22  26
ENDBRANCH   1  23
TORSDOF 7
