REMARK  Name = ZINC38768150
REMARK  3 active torsions:
REMARK  status: ('A' for Active; 'I' for Inactive)
REMARK    1  A    between atoms: C_6  and  O_7
REMARK    2  A    between atoms: O_7  and  C_8
REMARK    3  A    between atoms: C_8  and  C_9
REMARK                            x       y       z     vdW  Elec       q    Type
REMARK                         _______ _______ _______ _____ _____    ______ ____
ROOT
ATOM      1  C   UNL     1      -2.454  -2.722   0.012  0.00  0.00    +0.253 C 
ATOM      2  O   UNL     1      -3.426  -1.997   0.025  0.00  0.00    -0.272 OA
ATOM      3  N   UNL     1      -2.611  -4.061   0.006  0.00  0.00    -0.299 N 
ATOM      4  C   UNL     1      -1.443  -4.952  -0.004  0.00  0.00    +0.106 C 
ATOM      5  C   UNL     1      -1.578  -5.927  -1.178  0.00  0.00    +0.009 C 
ATOM      6  C   UNL     1      -2.922  -6.650  -1.085  0.00  0.00    -0.037 C 
ATOM      7  C   UNL     1      -4.063  -5.636  -1.163  0.00  0.00    +0.009 C 
ATOM      8  C   UNL     1      -3.954  -4.657   0.016  0.00  0.00    +0.106 C 
ATOM      9  C   UNL     1      -3.046  -7.655  -2.231  0.00  0.00    +0.140 C 
ATOM     10  C   UNL     1      -1.954  -8.693  -1.988  0.00  0.00    +0.042 C 
ATOM     11  N   UNL     1      -1.248  -8.719  -3.050  0.00  0.00    -0.243 NA
ATOM     12  C   UNL     1      -1.650  -7.780  -3.942  0.00  0.00    +0.216 C 
ATOM     13  N   UNL     1      -2.691  -7.087  -3.532  0.00  0.00    -0.264 NA
ATOM     14  C   UNL     1      -1.796  -9.370  -0.650  0.00  0.00    +0.034 C 
ATOM     15  C   UNL     1      -1.833  -8.244   0.401  0.00  0.00    -0.076 C 
ATOM     16  N   UNL     1      -3.000  -7.384   0.187  0.00  0.00    +0.385 N 
ATOM     17  H   UNL     1      -3.061  -6.721   0.945  0.00  0.00    -0.085 HD
ATOM     18  H   UNL     1      -3.832  -7.955   0.185  0.00  0.00    -0.085 HD
ENDROOT
BRANCH   1  19
ATOM     19  C   UNL     1      -1.070  -2.126   0.001  0.00  0.00    +0.324 C 
BRANCH  19  20
ATOM     20  O   UNL     1      -1.165  -0.701   0.010  0.00  0.00    -0.483 OA
BRANCH  20  26
ATOM     21  C   UNL     1      -0.017   1.383   0.010  0.00  0.00    +0.047 A 
ATOM     22  C   UNL     1       1.171   2.089   0.002  0.00  0.00    +0.023 A 
ATOM     23  C   UNL     1       2.378   1.414  -0.013  0.00  0.00    +0.041 A 
ATOM     24  C   UNL     1       2.399   0.030  -0.021  0.00  0.00    +0.023 A 
ATOM     25  C   UNL     1       1.214  -0.679  -0.014  0.00  0.00    +0.047 A 
ATOM     26  C   UNL     1       0.002  -0.004   0.002  0.00  0.00    +0.121 A 
ATOM     27 CL   UNL     1       3.869   2.303  -0.024  0.00  0.00    -0.084 Cl
ENDBRANCH  20  26
ENDBRANCH  19  20
ENDBRANCH   1  19
TORSDOF 3
