REMARK  Name = ZINC45323675
REMARK  10 active torsions:
REMARK  status: ('A' for Active; 'I' for Inactive)
REMARK    1  A    between atoms: C_1  and  N_2
REMARK    2  A    between atoms: N_2  and  C_3
REMARK    3  A    between atoms: N_2  and  C_4
REMARK    4  A    between atoms: C_4  and  C_6
REMARK    5  A    between atoms: C_4  and  C_29
REMARK    6  A    between atoms: C_6  and  N_7
REMARK    7  A    between atoms: C_8  and  C_10
REMARK    8  A    between atoms: C_12  and  C_23
REMARK    9  A    between atoms: C_13  and  C_15
REMARK   10  A    between atoms: C_19  and  O_21
REMARK                            x       y       z     vdW  Elec       q    Type
REMARK                         _______ _______ _______ _____ _____    ______ ____
ROOT
ATOM      1  C   UNL     1      -2.028   3.710  -2.288  0.00  0.00    +0.191 A 
ATOM      2  C   UNL     1      -2.642   4.651  -3.062  0.00  0.00    +0.063 A 
ATOM      3  C   UNL     1      -2.014   5.883  -2.785  0.00  0.00    +0.029 A 
ATOM      4  C   UNL     1      -1.032   5.620  -1.840  0.00  0.00    +0.144 A 
ATOM      5  O   UNL     1      -1.067   4.308  -1.555  0.00  0.00    -0.450 OA
ENDROOT
BRANCH   4   6
ATOM      6  C   UNL     1      -0.114   6.611  -1.247  0.00  0.00    +0.021 A 
ATOM      7  C   UNL     1       0.086   6.642   0.137  0.00  0.00    +0.013 A 
ATOM      8  C   UNL     1       0.945   7.569   0.688  0.00  0.00    +0.024 A 
ATOM      9  C   UNL     1       1.611   8.470  -0.125  0.00  0.00    +0.082 A 
ATOM     10  C   UNL     1       1.419   8.447  -1.501  0.00  0.00    +0.136 A 
ATOM     11  C   UNL     1       0.563   7.517  -2.065  0.00  0.00    +0.058 A 
ATOM     12 CL   UNL     1       2.690   9.634   0.578  0.00  0.00    -0.080 Cl
BRANCH  10  13
ATOM     13  O   UNL     1       2.076   9.335  -2.294  0.00  0.00    -0.505 OA
ATOM     14  H   UNL     1       2.936   9.021  -2.607  0.00  0.00    +0.292 HD
ENDBRANCH  10  13
ENDBRANCH   4   6
BRANCH   3  15
ATOM     15  C   UNL     1      -2.338   7.198  -3.386  0.00  0.00    -0.011 A 
ATOM     16  C   UNL     1      -2.652   8.297  -2.580  0.00  0.00    +0.028 A 
ATOM     17  C   UNL     1      -2.947   9.503  -3.181  0.00  0.00    +0.111 A 
ATOM     18  N   UNL     1      -2.935   9.627  -4.495  0.00  0.00    -0.263 NA
ATOM     19  C   UNL     1      -2.644   8.615  -5.290  0.00  0.00    +0.111 A 
ATOM     20  C   UNL     1      -2.331   7.375  -4.773  0.00  0.00    +0.028 A 
ENDBRANCH   3  15
BRANCH   1  22
ATOM     21  N   UNL     1      -1.684   1.450  -1.441  0.00  0.00    -0.310 N 
ATOM     22  C   UNL     1      -2.363   2.283  -2.255  0.00  0.00    +0.279 C 
ATOM     23  O   UNL     1      -3.254   1.850  -2.962  0.00  0.00    -0.267 OA
ATOM     24  H   UNL     1      -0.974   1.796  -0.877  0.00  0.00    +0.149 HD
BRANCH  21  25
ATOM     25  C   UNL     1      -2.019   0.025  -1.407  0.00  0.00    +0.094 C 
BRANCH  25  26
ATOM     26  C   UNL     1      -1.034  -0.709  -0.494  0.00  0.00    -0.021 C 
BRANCH  26  27
ATOM     27  C   UNL     1      -1.198  -0.215   0.920  0.00  0.00    -0.059 A 
ATOM     28  C   UNL     1      -2.226  -0.700   1.706  0.00  0.00    +0.002 A 
ATOM     29  C   UNL     1      -2.376  -0.247   3.004  0.00  0.00    +0.000 A 
ATOM     30  C   UNL     1      -1.498   0.690   3.515  0.00  0.00    +0.000 A 
ATOM     31  C   UNL     1      -0.468   1.173   2.729  0.00  0.00    +0.000 A 
ATOM     32  C   UNL     1      -0.316   0.717   1.433  0.00  0.00    +0.002 A 
ENDBRANCH  26  27
BRANCH  26  34
ATOM     33  C   UNL     1      -1.121  -2.638  -1.918  0.00  0.00    -0.096 C 
ATOM     34  N   UNL     1      -1.303  -2.152  -0.543  0.00  0.00    +0.382 N 
ATOM     35  C   UNL     1      -0.373  -2.854   0.351  0.00  0.00    -0.096 C 
ATOM     36  H   UNL     1      -2.251  -2.328  -0.247  0.00  0.00    -0.082 HD
ENDBRANCH  26  34
ENDBRANCH  25  26
ENDBRANCH  21  25
ENDBRANCH   1  22
TORSDOF 8
