REMARK  Name = ZINC39638471
REMARK  8 active torsions:
REMARK  status: ('A' for Active; 'I' for Inactive)
REMARK    1  A    between atoms: C_1  and  O_2
REMARK    2  A    between atoms: O_2  and  C_3
REMARK    3  A    between atoms: C_7  and  C_11
REMARK    4  A    between atoms: C_8  and  O_9
REMARK    5  A    between atoms: O_9  and  C_10
REMARK    6  A    between atoms: C_11  and  N_12
REMARK    7  A    between atoms: C_13  and  C_15
REMARK    8  A    between atoms: C_26  and  C_28
REMARK                            x       y       z     vdW  Elec       q    Type
REMARK                         _______ _______ _______ _____ _____    ______ ____
ROOT
ATOM      1  C   UNL     1       4.374  -6.496   0.437  0.00  0.00    +0.100 C 
ATOM      2  C   UNL     1       3.836  -6.157  -0.971  0.00  0.00    +0.121 C 
ATOM      3  N   UNL     1       4.160  -7.347  -1.792  0.00  0.00    -0.296 N 
ATOM      4  C   UNL     1       3.903  -8.497  -0.892  0.00  0.00    +0.115 C 
ATOM      5  C   UNL     1       4.416  -8.032   0.485  0.00  0.00    -0.004 C 
ATOM      6  C   UNL     1       3.501  -8.552   1.591  0.00  0.00    -0.010 C 
ATOM      7  C   UNL     1       3.604 -10.078   1.657  0.00  0.00    -0.082 C 
ATOM      8  N   UNL     1       4.995 -10.465   1.923  0.00  0.00    +0.379 N 
ATOM      9  C   UNL     1       5.853 -10.043   0.809  0.00  0.00    -0.082 C 
ATOM     10  C   UNL     1       5.846  -8.516   0.707  0.00  0.00    -0.010 C 
ATOM     11  C   UNL     1       4.593  -7.378  -3.068  0.00  0.00    +0.248 C 
ATOM     12  O   UNL     1       4.727  -8.444  -3.640  0.00  0.00    -0.270 OA
ATOM     13  H   UNL     1       5.309 -10.024   2.774  0.00  0.00    -0.086 HD
ATOM     14  H   UNL     1       5.049 -11.467   2.027  0.00  0.00    -0.086 HD
ENDROOT
BRANCH  11  15
ATOM     15  C   UNL     1       4.900  -6.125  -3.769  0.00  0.00    +0.052 A 
ATOM     16  C   UNL     1       4.187  -4.994  -3.529  0.00  0.00    +0.059 A 
ATOM     17  S   UNL     1       4.859  -3.823  -4.522  0.00  0.00    -0.096 S 
ATOM     18  C   UNL     1       6.128  -4.773  -5.314  0.00  0.00    +0.020 A 
ATOM     19  C   UNL     1       5.990  -6.053  -4.745  0.00  0.00    +0.001 A 
ATOM     20  C   UNL     1       6.883  -7.052  -5.180  0.00  0.00    +0.010 A 
ATOM     21  C   UNL     1       7.844  -6.764  -6.117  0.00  0.00    +0.001 A 
ATOM     22  C   UNL     1       7.962  -5.493  -6.658  0.00  0.00    +0.001 A 
ATOM     23  C   UNL     1       7.093  -4.496  -6.258  0.00  0.00    +0.015 A 
ENDBRANCH  11  15
BRANCH   1  25
ATOM     24  N   UNL     1       3.929  -5.614   2.705  0.00  0.00    -0.311 N 
ATOM     25  C   UNL     1       3.444  -5.963   1.496  0.00  0.00    +0.218 C 
ATOM     26  O   UNL     1       2.260  -5.848   1.262  0.00  0.00    -0.275 OA
ATOM     27  H   UNL     1       4.876  -5.706   2.893  0.00  0.00    +0.149 HD
BRANCH  24  28
ATOM     28  C   UNL     1       3.025  -5.096   3.735  0.00  0.00    +0.143 C 
BRANCH  28  33
ATOM     29  C   UNL     1       5.256  -3.318   6.223  0.00  0.00    +0.162 A 
ATOM     30  C   UNL     1       5.254  -4.216   7.278  0.00  0.00    +0.049 A 
ATOM     31  C   UNL     1       4.533  -5.391   7.184  0.00  0.00    +0.004 A 
ATOM     32  C   UNL     1       3.813  -5.675   6.039  0.00  0.00    +0.009 A 
ATOM     33  C   UNL     1       3.811  -4.783   4.982  0.00  0.00    +0.015 A 
ATOM     34  C   UNL     1       4.527  -3.600   5.072  0.00  0.00    +0.166 A 
BRANCH  29  36
ATOM     35  C   UNL     1       6.690  -1.938   7.524  0.00  0.00    +0.277 C 
ATOM     36  O   UNL     1       5.965  -2.161   6.313  0.00  0.00    -0.491 OA
ENDBRANCH  29  36
BRANCH  34  37
ATOM     37  O   UNL     1       4.521  -2.720   4.035  0.00  0.00    -0.491 OA
ATOM     38  C   UNL     1       5.533  -2.883   3.040  0.00  0.00    +0.277 C 
ENDBRANCH  34  37
ENDBRANCH  28  33
ENDBRANCH  24  28
ENDBRANCH   1  25
TORSDOF 6
