REMARK  Name = ZINC13988000
REMARK  7 active torsions:
REMARK  status: ('A' for Active; 'I' for Inactive)
REMARK    1  A    between atoms: C_4  and  N_7
REMARK    2  A    between atoms: C_9  and  C_18
REMARK    3  A    between atoms: C_10  and  C_12
REMARK    4  A    between atoms: C_18  and  N_52
REMARK    5  A    between atoms: C_19  and  C_20
REMARK    6  A    between atoms: C_19  and  N_52
REMARK    7  A    between atoms: C_20  and  C_21
REMARK                            x       y       z     vdW  Elec       q    Type
REMARK                         _______ _______ _______ _____ _____    ______ ____
ROOT
ATOM      1  N   UNL     1      -5.967  -4.763  -2.515  0.00  0.00    -0.239 N 
ATOM      2  C   UNL     1      -4.757  -4.372  -2.994  0.00  0.00    +0.116 A 
ATOM      3  C   UNL     1      -4.694  -3.025  -2.910  0.00  0.00    -0.019 A 
ATOM      4  C   UNL     1      -5.911  -2.567  -2.368  0.00  0.00    +0.095 A 
ATOM      5  N   UNL     1      -6.673  -3.615  -2.132  0.00  0.00    -0.166 NA
ENDROOT
BRANCH   1   9
ATOM      6  C   UNL     1      -7.343  -8.688  -2.246  0.00  0.00    +0.000 A 
ATOM      7  C   UNL     1      -8.148  -7.644  -1.829  0.00  0.00    +0.002 A 
ATOM      8  C   UNL     1      -7.695  -6.343  -1.917  0.00  0.00    +0.028 A 
ATOM      9  C   UNL     1      -6.429  -6.082  -2.424  0.00  0.00    +0.065 A 
ATOM     10  C   UNL     1      -5.625  -7.132  -2.847  0.00  0.00    +0.028 A 
ATOM     11  C   UNL     1      -6.081  -8.432  -2.752  0.00  0.00    +0.002 A 
ENDBRANCH   1   9
BRANCH   4  12
ATOM     12  C   UNL     1      -6.271  -1.152  -2.108  0.00  0.00    +0.005 A 
ATOM     13  C   UNL     1      -5.351  -0.271  -1.532  0.00  0.00    +0.030 A 
ATOM     14  C   UNL     1      -5.726   1.038  -1.311  0.00  0.00    +0.111 A 
ATOM     15  N   UNL     1      -6.936   1.458  -1.627  0.00  0.00    -0.263 NA
ATOM     16  C   UNL     1      -7.835   0.659  -2.167  0.00  0.00    +0.111 A 
ATOM     17  C   UNL     1      -7.542  -0.664  -2.426  0.00  0.00    +0.030 A 
ENDBRANCH   4  12
BRANCH   3  18
ATOM     18  C   UNL     1      -3.530  -2.165  -3.329  0.00  0.00    -0.043 C 
BRANCH  18  19
ATOM     19  N   UNL     1      -3.864  -1.479  -4.591  0.00  0.00    +0.382 N 
ATOM     20  H   UNL     1      -4.745  -0.964  -4.473  0.00  0.00    -0.085 HD
ATOM     21  H   UNL     1      -3.973  -2.176  -5.337  0.00  0.00    -0.085 HD
BRANCH  19  22
ATOM     22  C   UNL     1      -2.793  -0.534  -4.960  0.00  0.00    -0.077 C 
BRANCH  22  23
ATOM     23  C   UNL     1      -3.168   0.161  -6.271  0.00  0.00    +0.018 C 
BRANCH  23  24
ATOM     24  C   UNL     1      -2.078   1.129  -6.655  0.00  0.00    -0.024 A 
ATOM     25  C   UNL     1      -2.045   2.443  -6.383  0.00  0.00    +0.087 A 
ATOM     26  N   UNL     1      -0.900   2.996  -6.890  0.00  0.00    -0.360 N 
ATOM     27  H   UNL     1      -0.654   3.931  -6.819  0.00  0.00    +0.165 HD
ATOM     28  C   UNL     1      -0.150   2.026  -7.517  0.00  0.00    +0.047 A 
ATOM     29  C   UNL     1      -0.855   0.814  -7.397  0.00  0.00    +0.003 A 
ATOM     30  C   UNL     1      -0.330  -0.355  -7.951  0.00  0.00    +0.010 A 
ATOM     31  C   UNL     1       0.873  -0.318  -8.599  0.00  0.00    +0.001 A 
ATOM     32  C   UNL     1       1.572   0.875  -8.720  0.00  0.00    +0.002 A 
ATOM     33  C   UNL     1       1.069   2.042  -8.185  0.00  0.00    +0.026 A 
ENDBRANCH  23  24
ENDBRANCH  22  23
ENDBRANCH  19  22
ENDBRANCH  18  19
ENDBRANCH   3  18
TORSDOF 7
