REMARK  Name = ZINC45470099
REMARK  16 active torsions:
REMARK  status: ('A' for Active; 'I' for Inactive)
REMARK    1  A    between atoms: C_1  and  C_2
REMARK    2  A    between atoms: C_2  and  O_3
REMARK    3  A    between atoms: O_3  and  C_4
REMARK    4  A    between atoms: C_4  and  C_6
REMARK    5  A    between atoms: C_10  and  N_11
REMARK    6  A    between atoms: C_12  and  C_14
REMARK    7  A    between atoms: C_14  and  C_16
REMARK    8  A    between atoms: C_14  and  N_17
REMARK    9  A    between atoms: N_17  and  C_18
REMARK   10  A    between atoms: N_17  and  C_19
REMARK   11  A    between atoms: C_19  and  C_20
REMARK   12  A    between atoms: N_22  and  C_23
REMARK   13  A    between atoms: C_23  and  C_24
REMARK   14  A    between atoms: C_23  and  C_25
REMARK   15  A    between atoms: C_23  and  C_26
REMARK   16  A    between atoms: C_28  and  C_32
REMARK                            x       y       z     vdW  Elec       q    Type
REMARK                         _______ _______ _______ _____ _____    ______ ____
ROOT
ATOM      1  N   UNL     1       3.754  -3.179   1.048  0.00  0.00    -0.281 N 
ATOM      2  C   UNL     1       5.008  -2.830   1.397  0.00  0.00    +0.204 C 
ATOM      3  O   UNL     1       5.313  -2.757   2.568  0.00  0.00    -0.277 OA
ATOM      4  H   UNL     1       3.509  -3.237   0.111  0.00  0.00    +0.155 HD
ENDROOT
BRANCH   1   9
ATOM      5  C   UNL     1       1.488  -3.827   1.857  0.00  0.00    +0.091 A 
ATOM      6  C   UNL     1       0.706  -4.069   3.058  0.00  0.00    -0.021 A 
ATOM      7  C   UNL     1       1.391  -3.889   4.208  0.00  0.00    -0.004 A 
ATOM      8  S   UNL     1       3.016  -3.416   3.694  0.00  0.00    -0.077 S 
ATOM      9  C   UNL     1       2.813  -3.456   2.028  0.00  0.00    +0.086 A 
ATOM     10  C   UNL     1       0.868  -4.057   5.601  0.00  0.00    +0.046 C 
ATOM     11  C   UNL     1      -0.666  -4.099   5.539  0.00  0.00    -0.009 C 
ATOM     12  C   UNL     1      -1.091  -5.075   4.439  0.00  0.00    +0.008 C 
ATOM     13  C   UNL     1      -0.756  -4.490   3.065  0.00  0.00    +0.037 C 
ATOM     14  C   UNL     1      -1.220  -4.568   6.886  0.00  0.00    +0.008 C 
BRANCH   5  15
ATOM     15  C   UNL     1       0.903  -3.976   0.523  0.00  0.00    +0.342 C 
ATOM     16  O   UNL     1       0.946  -5.051  -0.044  0.00  0.00    -0.245 OA
BRANCH  15  17
ATOM     17  O   UNL     1       0.316  -2.920  -0.077  0.00  0.00    -0.461 OA
BRANCH  17  19
ATOM     18  C   UNL     1      -0.852  -1.836  -1.894  0.00  0.00    +0.048 C 
ATOM     19  C   UNL     1      -0.234  -3.137  -1.379  0.00  0.00    +0.229 C 
ENDBRANCH  17  19
ENDBRANCH  15  17
ENDBRANCH   5  15
ENDBRANCH   1   9
BRANCH   2  20
ATOM     20  C   UNL     1       6.030  -2.529   0.332  0.00  0.00    +0.017 C 
ATOM     21  C   UNL     1       5.938  -1.053  -0.062  0.00  0.00    -0.004 C 
BRANCH  20  22
ATOM     22  N   UNL     1       7.375  -2.815   0.849  0.00  0.00    +0.391 N 
ATOM     23  C   UNL     1       8.376  -2.470  -0.170  0.00  0.00    -0.094 C 
ATOM     24  H   UNL     1       7.539  -2.267   1.681  0.00  0.00    -0.080 HD
BRANCH  22  25
ATOM     25  C   UNL     1       7.481  -4.243   1.176  0.00  0.00    +0.019 C 
BRANCH  25  26
ATOM     26  C   UNL     1       8.796  -4.505   1.863  0.00  0.00    +0.197 C 
ATOM     27  O   UNL     1       9.569  -3.592   2.061  0.00  0.00    -0.278 OA
ATOM     28  N   UNL     1       9.114  -5.754   2.257  0.00  0.00    -0.312 N 
ATOM     29  H   UNL     1       8.495  -6.485   2.098  0.00  0.00    +0.149 HD
BRANCH  28  30
ATOM     30  C   UNL     1      10.392  -6.009   2.925  0.00  0.00    +0.026 C 
ATOM     31  C   UNL     1      10.469  -5.185   4.212  0.00  0.00    +0.031 C 
ATOM     32  C   UNL     1      10.502  -7.497   3.264  0.00  0.00    +0.031 C 
ATOM     33  C   UNL     1      11.541  -5.612   1.996  0.00  0.00    +0.031 C 
ENDBRANCH  28  30
ENDBRANCH  25  26
ENDBRANCH  22  25
ENDBRANCH  20  22
ENDBRANCH   2  20
TORSDOF 9
