REMARK  Name = ZINC09944574
REMARK  12 active torsions:
REMARK  status: ('A' for Active; 'I' for Inactive)
REMARK    1  A    between atoms: C_1  and  C_2
REMARK    2  A    between atoms: C_2  and  C_4
REMARK    3  A    between atoms: C_2  and  S_11
REMARK    4  A    between atoms: N_9  and  C_10
REMARK    5  A    between atoms: S_11  and  C_12
REMARK    6  A    between atoms: C_15  and  C_20
REMARK    7  A    between atoms: N_16  and  C_17
REMARK    8  A    between atoms: C_17  and  C_18
REMARK    9  A    between atoms: C_27  and  C_30
REMARK   10  A    between atoms: C_30  and  C_31
REMARK   11  A    between atoms: C_30  and  C_32
REMARK   12  A    between atoms: C_30  and  C_33
REMARK                            x       y       z     vdW  Elec       q    Type
REMARK                         _______ _______ _______ _____ _____    ______ ____
ROOT
ATOM      1  C   UNL     1      -5.141   0.755   0.658  0.00  0.00    +0.193 A 
ATOM      2  N   UNL     1      -5.073  -0.514   0.329  0.00  0.00    -0.122 NA
ATOM      3  N   UNL     1      -6.221  -1.073   0.477  0.00  0.00    -0.128 NA
ATOM      4  C   UNL     1      -7.095  -0.192   0.912  0.00  0.00    +0.172 A 
ATOM      5  N   UNL     1      -6.428   1.005   1.046  0.00  0.00    -0.298 N 
ENDROOT
BRANCH   4   6
ATOM      6  C   UNL     1      -8.516  -0.441   1.205  0.00  0.00    +0.057 A 
ATOM      7  C   UNL     1      -9.169  -1.633   1.361  0.00  0.00    +0.023 A 
ATOM      8  C   UNL     1     -10.530  -1.642   1.642  0.00  0.00    -0.036 A 
ATOM      9  C   UNL     1     -11.144  -0.428   1.737  0.00  0.00    -0.006 A 
ATOM     10  S   UNL     1      -9.839   0.736   1.444  0.00  0.00    -0.090 S 
ATOM     11  C   UNL     1     -12.586  -0.158   2.024  0.00  0.00    +0.043 C 
ATOM     12  C   UNL     1     -13.221  -1.448   2.563  0.00  0.00    +0.009 C 
ATOM     13  C   UNL     1     -12.817  -2.612   1.654  0.00  0.00    -0.001 C 
ATOM     14  C   UNL     1     -11.332  -2.926   1.835  0.00  0.00    +0.040 C 
BRANCH  13  15
ATOM     15  C   UNL     1     -13.645  -3.848   2.013  0.00  0.00    -0.035 C 
ATOM     16  C   UNL     1     -13.378  -4.235   3.469  0.00  0.00    +0.011 C 
ATOM     17  C   UNL     1     -15.132  -3.535   1.833  0.00  0.00    +0.011 C 
ATOM     18  C   UNL     1     -13.253  -5.008   1.097  0.00  0.00    +0.011 C 
ENDBRANCH  13  15
ENDBRANCH   4   6
BRANCH   1  19
ATOM     19  S   UNL     1      -3.818   1.918   0.614  0.00  0.00    -0.073 S 
BRANCH  19  21
ATOM     20  C   UNL     1      -2.799   0.384  -1.403  0.00  0.00    +0.029 C 
ATOM     21  C   UNL     1      -2.482   0.853   0.018  0.00  0.00    +0.137 C 
BRANCH  21  22
ATOM     22  C   UNL     1      -1.187   1.624   0.017  0.00  0.00    +0.233 C 
ATOM     23  O   UNL     1      -1.204   2.836   0.023  0.00  0.00    -0.274 OA
ATOM     24  N   UNL     1      -0.011   0.966   0.007  0.00  0.00    -0.239 N 
ATOM     25  C   UNL     1       1.147   1.655   0.000  0.00  0.00    +0.306 C 
ATOM     26  O   UNL     1       1.130   2.871   0.007  0.00  0.00    -0.252 OA
ATOM     27  N   UNL     1       2.323   0.998  -0.015  0.00  0.00    -0.302 N 
ATOM     28  C   UNL     1       3.582   1.747  -0.023  0.00  0.00    +0.129 C 
ATOM     29  H   UNL     1       0.002  -0.004   0.002  0.00  0.00    +0.159 HD
ATOM     30  H   UNL     1       2.336   0.028  -0.020  0.00  0.00    +0.150 HD
ENDBRANCH  21  22
ENDBRANCH  19  21
ENDBRANCH   1  19
BRANCH   5  31
ATOM     31  C   UNL     1      -6.982   2.281   1.506  0.00  0.00    +0.152 C 
BRANCH  31  32
ATOM     32  C   UNL     1      -7.512   3.054   0.326  0.00  0.00    -0.013 C 
ATOM     33  C   UNL     1      -8.753   3.471   0.320  0.00  0.00    +0.005 C 
ENDBRANCH  31  32
ENDBRANCH   5  31
TORSDOF 7
