REMARK  Name = ZINC20431161
REMARK  4 active torsions:
REMARK  status: ('A' for Active; 'I' for Inactive)
REMARK    1  A    between atoms: C_1  and  N_2
REMARK    2  A    between atoms: C_6  and  C_12
REMARK    3  A    between atoms: C_12  and  C_14
REMARK    4  A    between atoms: C_12  and  N_21
REMARK                            x       y       z     vdW  Elec       q    Type
REMARK                         _______ _______ _______ _____ _____    ______ ____
ROOT
ATOM      1  C   UNL     1      -1.292  -0.777   0.010  0.00  0.00    -0.012 C 
ENDROOT
BRANCH   1   7
ATOM      2  C   UNL     1       4.033   3.336  -0.019  0.00  0.00    +0.138 C 
ATOM      3  N   UNL     1       3.693   1.911  -0.024  0.00  0.00    -0.274 N 
ATOM      4  C   UNL     1       2.386   1.423  -0.013  0.00  0.00    +0.040 A 
ATOM      5  C   UNL     1       1.164   2.092   0.002  0.00  0.00    +0.024 A 
ATOM      6  C   UNL     1      -0.017   1.379   0.010  0.00  0.00    +0.004 A 
ATOM      7  C   UNL     1       0.002  -0.004   0.002  0.00  0.00    -0.057 A 
ATOM      8  C   UNL     1       1.212  -0.676  -0.013  0.00  0.00    +0.008 A 
ATOM      9  C   UNL     1       2.392   0.034  -0.021  0.00  0.00    -0.017 A 
ATOM     10  C   UNL     1       3.843  -0.385  -0.037  0.00  0.00    +0.133 C 
ATOM     11  C   UNL     1       4.604   0.923  -0.038  0.00  0.00    +0.224 C 
ATOM     12  O   UNL     1       5.810   1.056  -0.049  0.00  0.00    -0.275 OA
ENDBRANCH   1   7
BRANCH   1  13
ATOM     13  C   UNL     1      -1.836  -0.831   1.414  0.00  0.00    -0.045 A 
ATOM     14  C   UNL     1      -2.846   0.032   1.797  0.00  0.00    +0.003 A 
ATOM     15  C   UNL     1      -3.347  -0.017   3.084  0.00  0.00    +0.000 A 
ATOM     16  C   UNL     1      -2.837  -0.929   3.990  0.00  0.00    +0.001 A 
ATOM     17  C   UNL     1      -1.827  -1.792   3.608  0.00  0.00    +0.014 A 
ATOM     18  C   UNL     1      -1.330  -1.746   2.318  0.00  0.00    +0.015 A 
ATOM     19  I   UNL     1       0.195  -3.059   1.736  0.00  0.00    -0.044 I 
ENDBRANCH   1  13
BRANCH   1  20
ATOM     20  N   UNL     1      -2.264  -0.113  -0.868  0.00  0.00    +0.385 N 
ATOM     21  H   UNL     1      -3.208  -0.677  -0.862  0.00  0.00    -0.089 HD
ATOM     22  H   UNL     1      -1.867  -0.074  -1.893  0.00  0.00    -0.089 HD
ATOM     23  H   UNL     1      -2.446   0.910  -0.506  0.00  0.00    -0.089 HD
ENDBRANCH   1  20
TORSDOF 3
