REMARK  Name = ZINC37055608
REMARK  5 active torsions:
REMARK  status: ('A' for Active; 'I' for Inactive)
REMARK    1  A    between atoms: C_1  and  C_2
REMARK    2  A    between atoms: C_6  and  N_8
REMARK    3  A    between atoms: N_8  and  S_9
REMARK    4  A    between atoms: S_9  and  C_12
REMARK    5  A    between atoms: C_14  and  N_20
REMARK                            x       y       z     vdW  Elec       q    Type
REMARK                         _______ _______ _______ _____ _____    ______ ____
ROOT
ATOM      1  S   UNL     1       0.073  -4.452   2.378  0.00  0.00    +0.094 S 
ATOM      2  O   UNL     1      -1.169  -4.871   1.830  0.00  0.00    -0.148 OA
ATOM      3  O   UNL     1       1.321  -4.838   1.818  0.00  0.00    -0.148 OA
ENDROOT
BRANCH   1   4
ATOM      4  C   UNL     1       0.088  -4.986   4.057  0.00  0.00    +0.149 A 
ATOM      5  C   UNL     1      -0.982  -5.696   4.566  0.00  0.00    +0.054 A 
ATOM      6  C   UNL     1      -0.970  -6.117   5.889  0.00  0.00    +0.028 A 
ATOM      7  C   UNL     1       0.119  -5.823   6.699  0.00  0.00    +0.045 A 
ATOM      8  C   UNL     1       1.188  -5.112   6.187  0.00  0.00    +0.080 A 
ATOM      9  C   UNL     1       1.175  -4.698   4.864  0.00  0.00    +0.168 A 
ATOM     10  F   UNL     1       2.223  -4.008   4.364  0.00  0.00    -0.202 F 
ATOM     11 CL   UNL     1       2.549  -4.743   7.199  0.00  0.00    -0.080 Cl
BRANCH   6  12
ATOM     12  N   UNL     1      -2.053  -6.835   6.405  0.00  0.00    -0.358 N 
ATOM     13  H   UNL     1      -2.813  -7.040   5.838  0.00  0.00    +0.142 HD
ATOM     14  H   UNL     1      -2.043  -7.129   7.329  0.00  0.00    +0.142 HD
ENDBRANCH   6  12
ENDBRANCH   1   4
BRANCH   1  15
ATOM     15  N   UNL     1       0.051  -2.796   2.390  0.00  0.00    -0.098 NA
BRANCH  15  21
ATOM     16  C   UNL     1      -0.018   1.503   0.010  0.00  0.00    +0.044 C 
ATOM     17  C   UNL     1       0.002  -0.004   0.002  0.00  0.00    -0.049 A 
ATOM     18  C   UNL     1       0.006  -0.688  -1.200  0.00  0.00    +0.003 A 
ATOM     19  C   UNL     1       0.024  -2.071  -1.212  0.00  0.00    +0.002 A 
ATOM     20  C   UNL     1       0.039  -2.773  -0.023  0.00  0.00    +0.027 A 
ATOM     21  C   UNL     1       0.036  -2.089   1.186  0.00  0.00    +0.075 A 
ATOM     22  C   UNL     1       0.023  -0.700   1.194  0.00  0.00    +0.030 A 
ENDBRANCH  15  21
ENDBRANCH   1  15
TORSDOF 4
