REMARK  Name = ZINC36855839
REMARK  4 active torsions:
REMARK  status: ('A' for Active; 'I' for Inactive)
REMARK    1  A    between atoms: C_6  and  N_7
REMARK    2  A    between atoms: C_8  and  C_10
REMARK    3  A    between atoms: C_10  and  S_11
REMARK    4  A    between atoms: S_11  and  C_12
REMARK                            x       y       z     vdW  Elec       q    Type
REMARK                         _______ _______ _______ _____ _____    ______ ____
ROOT
ATOM      1  N   UNL     1      -1.202  -0.721   0.009  0.00  0.00    -0.285 N 
ATOM      2  C   UNL     1      -2.326  -0.154  -0.471  0.00  0.00    +0.227 C 
ATOM      3  O   UNL     1      -2.279   0.941  -0.991  0.00  0.00    -0.275 OA
ATOM      4  H   UNL     1      -1.225  -1.626   0.356  0.00  0.00    +0.155 HD
ENDROOT
BRANCH   1  10
ATOM      5  C   UNL     1      -0.013   1.373   0.194  0.00  0.00    +0.027 A 
ATOM      6  C   UNL     1       1.173   2.085   0.192  0.00  0.00    +0.051 A 
ATOM      7  C   UNL     1       2.375   1.427   0.004  0.00  0.00    +0.167 A 
ATOM      8  C   UNL     1       2.392   0.045  -0.183  0.00  0.00    +0.169 A 
ATOM      9  C   UNL     1       1.206  -0.666  -0.181  0.00  0.00    +0.072 A 
ATOM     10  C   UNL     1       0.001  -0.002   0.007  0.00  0.00    +0.037 A 
ATOM     11  O   UNL     1       3.694  -0.352  -0.343  0.00  0.00    -0.447 OA
ATOM     12  C   UNL     1       4.372   0.847  -0.743  0.00  0.00    +0.254 C 
ATOM     13  O   UNL     1       3.668   1.882  -0.041  0.00  0.00    -0.448 OA
ATOM     14  C   UNL     1       4.293   1.052  -2.259  0.00  0.00    +0.093 C 
ATOM     15  C   UNL     1       5.652   1.707  -2.620  0.00  0.00    +0.008 C 
ATOM     16  C   UNL     1       6.644   0.989  -1.669  0.00  0.00    +0.008 C 
ATOM     17  C   UNL     1       5.850   0.812  -0.355  0.00  0.00    +0.093 C 
ENDBRANCH   1  10
BRANCH   2  18
ATOM     18  C   UNL     1      -3.642  -0.879  -0.360  0.00  0.00    +0.172 C 
BRANCH  18  19
ATOM     19  S   UNL     1      -4.956   0.136  -1.091  0.00  0.00    -0.088 S 
BRANCH  19  20
ATOM     20  C   UNL     1      -6.411  -0.837  -0.887  0.00  0.00    +0.160 A 
ATOM     21  N   UNL     1      -6.550  -2.026  -0.331  0.00  0.00    -0.133 NA
ATOM     22  N   UNL     1      -7.793  -2.613  -0.275  0.00  0.00    -0.125 NA
ATOM     23  C   UNL     1      -8.838  -1.986  -0.777  0.00  0.00    +0.180 A 
ATOM     24  S   UNL     1      -8.092  -0.475  -1.370  0.00  0.00    -0.025 S 
ATOM     25  N   UNL     1     -10.168  -2.390  -0.827  0.00  0.00    -0.336 N 
ATOM     26  H   UNL     1     -10.428  -3.248  -0.456  0.00  0.00    +0.144 HD
ATOM     27  H   UNL     1     -10.834  -1.815  -1.234  0.00  0.00    +0.144 HD
ENDBRANCH  19  20
ENDBRANCH  18  19
ENDBRANCH   2  18
TORSDOF 4
