REMARK  Name = ZINC15040640
REMARK  9 active torsions:
REMARK  status: ('A' for Active; 'I' for Inactive)
REMARK    1  A    between atoms: C_14  and  C_15
REMARK    2  A    between atoms: N_19  and  C_23
REMARK    3  A    between atoms: C_23  and  C_24
REMARK    4  A    between atoms: C_24  and  C_25
REMARK    5  A    between atoms: C_25  and  C_26
REMARK    6  A    between atoms: N_28  and  C_29
REMARK    7  A    between atoms: C_29  and  C_30
REMARK    8  A    between atoms: C_30  and  C_31
REMARK    9  A    between atoms: C_31  and  C_32
REMARK                            x       y       z     vdW  Elec       q    Type
REMARK                         _______ _______ _______ _____ _____    ______ ____
ROOT
ATOM      1  C   UNL     1       4.925   0.208  -0.045  0.00  0.00    +0.029 C 
ATOM      2  C   UNL     1       5.915  -0.077   0.848  0.00  0.00    +0.077 C 
ATOM      3  C   UNL     1       7.229   0.567   1.031  0.00  0.00    +0.258 C 
ATOM      4  O   UNL     1       7.586   1.500   0.335  0.00  0.00    -0.269 OA
ATOM      5  N   UNL     1       8.001   0.079   1.987  0.00  0.00    -0.255 N 
ATOM      6  C   UNL     1       7.603  -0.955   2.756  0.00  0.00    +0.121 C 
ATOM      7  S   UNL     1       8.449  -1.720   4.032  0.00  0.00    -0.027 S 
ATOM      8  S   UNL     1       5.974  -1.327   2.124  0.00  0.00    -0.061 S 
ENDROOT
BRANCH   1  22
ATOM      9  C   UNL     1      -0.016   1.355   0.009  0.00  0.00    +0.001 A 
ATOM     10  C   UNL     1       1.160   2.102   0.002  0.00  0.00    +0.001 A 
ATOM     11  C   UNL     1       2.383   1.506  -0.013  0.00  0.00    +0.009 A 
ATOM     12  C   UNL     1       2.473   0.104  -0.021  0.00  0.00    -0.010 A 
ATOM     13  C   UNL     1       1.239  -0.683  -0.013  0.00  0.00    -0.017 A 
ATOM     14  C   UNL     1       0.002  -0.004   0.002  0.00  0.00    +0.008 A 
ATOM     15  C   UNL     1       1.293  -2.078  -0.021  0.00  0.00    +0.017 A 
ATOM     16  C   UNL     1       2.527  -2.730  -0.037  0.00  0.00    -0.017 A 
ATOM     17  C   UNL     1       2.605  -4.139  -0.045  0.00  0.00    +0.008 A 
ATOM     18  C   UNL     1       3.821  -4.744  -0.060  0.00  0.00    +0.001 A 
ATOM     19  C   UNL     1       5.003  -4.006  -0.068  0.00  0.00    +0.001 A 
ATOM     20  C   UNL     1       4.996  -2.646  -0.060  0.00  0.00    +0.009 A 
ATOM     21  C   UNL     1       3.771  -1.959  -0.045  0.00  0.00    -0.010 A 
ATOM     22  C   UNL     1       3.728  -0.546  -0.038  0.00  0.00    -0.008 A 
ENDBRANCH   1  22
BRANCH   5  23
ATOM     23  C   UNL     1       9.319   0.676   2.218  0.00  0.00    +0.115 C 
BRANCH  23  24
ATOM     24  C   UNL     1       9.195   1.808   3.239  0.00  0.00    +0.029 C 
BRANCH  24  25
ATOM     25  C   UNL     1      10.572   2.431   3.480  0.00  0.00    +0.097 C 
BRANCH  25  26
ATOM     26  C   UNL     1      10.449   3.547   4.486  0.00  0.00    +0.213 C 
ATOM     27  O   UNL     1       9.368   3.816   4.964  0.00  0.00    -0.276 OA
ATOM     28  N   UNL     1      11.542   4.244   4.855  0.00  0.00    -0.315 N 
ATOM     29  H   UNL     1      12.407   4.028   4.473  0.00  0.00    +0.149 HD
BRANCH  28  30
ATOM     30  C   UNL     1      11.423   5.328   5.833  0.00  0.00    +0.104 C 
BRANCH  30  31
ATOM     31  C   UNL     1      12.799   5.951   6.074  0.00  0.00    +0.030 C 
BRANCH  31  32
ATOM     32  C   UNL     1      12.675   7.084   7.095  0.00  0.00    +0.126 C 
BRANCH  32  33
ATOM     33  C   UNL     1      14.031   7.697   7.332  0.00  0.00    +0.356 C 
ATOM     34  O   UNL     1      15.006   7.269   6.739  0.00  0.00    -0.246 OA
ATOM     35  O   UNL     1      14.152   8.623   8.117  0.00  0.00    -0.246 OA
ENDBRANCH  32  33
ENDBRANCH  31  32
ENDBRANCH  30  31
ENDBRANCH  28  30
ENDBRANCH  25  26
ENDBRANCH  24  25
ENDBRANCH  23  24
ENDBRANCH   5  23
TORSDOF 9
