REMARK  Name = ZINC15016648
REMARK  9 active torsions:
REMARK  status: ('A' for Active; 'I' for Inactive)
REMARK    1  A    between atoms: C_1  and  C_2
REMARK    2  A    between atoms: N_7  and  C_8
REMARK    3  A    between atoms: C_8  and  C_10
REMARK    4  A    between atoms: C_8  and  C_19
REMARK    5  A    between atoms: C_13  and  N_16
REMARK    6  A    between atoms: N_16  and  C_17
REMARK    7  A    between atoms: N_16  and  C_18
REMARK    8  A    between atoms: C_25  and  C_30
REMARK    9  A    between atoms: C_28  and  O_29
REMARK                            x       y       z     vdW  Elec       q    Type
REMARK                         _______ _______ _______ _____ _____    ______ ____
ROOT
ATOM      1  C   UNL     1       1.110  -2.133   0.011  0.00  0.00    +0.136 C 
ENDROOT
BRANCH   1   2
ATOM      2  C   UNL     1       1.353  -0.649   0.108  0.00  0.00    +0.021 A 
ATOM      3  C   UNL     1       2.627  -0.145  -0.142  0.00  0.00    +0.010 A 
ATOM      4  C   UNL     1       2.879   1.191  -0.063  0.00  0.00    +0.010 A 
ATOM      5  C   UNL     1       1.843   2.077   0.275  0.00  0.00    +0.004 A 
ATOM      6  C   UNL     1       2.066   3.464   0.367  0.00  0.00    +0.012 A 
ATOM      7  C   UNL     1       1.011   4.265   0.701  0.00  0.00    +0.023 A 
ATOM      8  C   UNL     1      -0.241   3.702   0.941  0.00  0.00    +0.039 A 
ATOM      9  N   UNL     1      -0.445   2.410   0.849  0.00  0.00    -0.248 NA
ATOM     10  C   UNL     1       0.545   1.571   0.532  0.00  0.00    +0.113 A 
ATOM     11  C   UNL     1       0.321   0.181   0.440  0.00  0.00    +0.148 A 
ATOM     12  C   UNL     1      -1.392   4.602   1.308  0.00  0.00    +0.065 C 
BRANCH  11  13
ATOM     13  O   UNL     1      -0.915  -0.328   0.682  0.00  0.00    -0.504 OA
ATOM     14  H   UNL     1      -1.476  -0.387  -0.103  0.00  0.00    +0.292 HD
ENDBRANCH  11  13
ENDBRANCH   1   2
BRANCH   1  21
ATOM     15  C   UNL     1       1.497  -2.459   5.115  0.00  0.00    +0.044 C 
ATOM     16  C   UNL     1       2.301  -2.974   3.948  0.00  0.00    -0.046 A 
ATOM     17  C   UNL     1       3.418  -3.772   4.153  0.00  0.00    +0.021 A 
ATOM     18  C   UNL     1       4.133  -4.228   3.063  0.00  0.00    +0.084 A 
ATOM     19  C   UNL     1       2.707  -3.156   1.598  0.00  0.00    +0.097 A 
ATOM     20  C   UNL     1       1.941  -2.662   2.650  0.00  0.00    +0.045 A 
ATOM     21  N   UNL     1       2.357  -2.851   0.288  0.00  0.00    -0.320 N 
ATOM     22  H   UNL     1       2.938  -3.113  -0.443  0.00  0.00    +0.148 HD
ATOM     23  N   UNL     1       3.805  -3.947   1.774  0.00  0.00    -0.350 N 
ATOM     24  H   UNL     1       4.350  -4.307   0.981  0.00  0.00    +0.166 HD
ENDBRANCH   1  21
BRANCH   1  25
ATOM     25  C   UNL     1       0.631  -2.474  -1.376  0.00  0.00    -0.023 A 
ATOM     26  C   UNL     1       1.530  -2.511  -2.427  0.00  0.00    +0.007 A 
ATOM     27  C   UNL     1       1.096  -2.829  -3.698  0.00  0.00    +0.023 A 
ATOM     28  C   UNL     1      -0.248  -3.101  -3.924  0.00  0.00    +0.029 A 
ATOM     29  C   UNL     1      -1.149  -3.058  -2.868  0.00  0.00    +0.023 A 
ATOM     30  C   UNL     1      -0.707  -2.744  -1.597  0.00  0.00    +0.007 A 
BRANCH  28  31
ATOM     31  N   UNL     1      -0.692  -3.417  -5.210  0.00  0.00    -0.336 N 
ATOM     32  C   UNL     1      -2.124  -3.582  -5.471  0.00  0.00    +0.129 C 
ATOM     33  C   UNL     1       0.275  -3.583  -6.298  0.00  0.00    +0.129 C 
ENDBRANCH  28  31
ENDBRANCH   1  25
TORSDOF 5
