REMARK  Name = ZINC05376284
REMARK  5 active torsions:
REMARK  status: ('A' for Active; 'I' for Inactive)
REMARK    1  A    between atoms: C_1  and  C_2
REMARK    2  A    between atoms: C_2  and  C_3
REMARK    3  A    between atoms: C_8  and  N_9
REMARK    4  A    between atoms: C_15  and  C_16
REMARK    5  A    between atoms: C_19  and  C_22
REMARK                            x       y       z     vdW  Elec       q    Type
REMARK                         _______ _______ _______ _____ _____    ______ ____
ROOT
ATOM      1  N   UNL     1      -1.960   0.928  -2.608  0.00  0.00    -0.225 NA
ATOM      2  C   UNL     1      -2.482   0.392  -3.688  0.00  0.00    +0.166 C 
ATOM      3  N   UNL     1      -1.966   0.360  -4.965  0.00  0.00    -0.260 N 
ATOM      4  C   UNL     1      -2.629  -0.228  -5.946  0.00  0.00    +0.256 C 
ATOM      5  O   UNL     1      -2.188  -0.266  -7.079  0.00  0.00    -0.269 OA
ATOM      6  C   UNL     1      -3.930  -0.837  -5.603  0.00  0.00    +0.078 C 
ATOM      7  C   UNL     1      -4.809  -1.494  -6.399  0.00  0.00    +0.028 C 
ATOM      8  S   UNL     1      -4.032  -0.480  -3.855  0.00  0.00    -0.049 S 
ATOM      9  H   UNL     1      -1.107   0.773  -5.145  0.00  0.00    +0.157 HD
ENDROOT
BRANCH   7  10
ATOM     10  C   UNL     1      -6.136  -1.862  -5.883  0.00  0.00    -0.024 A 
ATOM     11  C   UNL     1      -6.570  -1.373  -4.646  0.00  0.00    +0.008 A 
ATOM     12  C   UNL     1      -7.815  -1.723  -4.169  0.00  0.00    +0.004 A 
ATOM     13  C   UNL     1      -8.635  -2.555  -4.910  0.00  0.00    -0.050 A 
ATOM     14  C   UNL     1      -8.214  -3.044  -6.135  0.00  0.00    +0.004 A 
ATOM     15  C   UNL     1      -6.973  -2.699  -6.629  0.00  0.00    +0.008 A 
ATOM     16  C   UNL     1      -9.995  -2.933  -4.381  0.00  0.00    +0.044 C 
ENDBRANCH   7  10
BRANCH   1  22
ATOM     17  C   UNL     1      -2.069   0.596  -0.237  0.00  0.00    -0.022 A 
ATOM     18  C   UNL     1      -2.796   0.633   0.935  0.00  0.00    +0.006 A 
ATOM     19  C   UNL     1      -4.124   1.020   0.917  0.00  0.00    +0.000 A 
ATOM     20  C   UNL     1      -4.733   1.374  -0.274  0.00  0.00    +0.002 A 
ATOM     21  C   UNL     1      -4.019   1.341  -1.454  0.00  0.00    +0.028 A 
ATOM     22  C   UNL     1      -2.676   0.957  -1.443  0.00  0.00    +0.070 A 
BRANCH  17  24
ATOM     23  C   UNL     1       0.269   1.414  -0.124  0.00  0.00    +0.009 C 
ATOM     24  C   UNL     1      -0.623   0.174  -0.216  0.00  0.00    +0.034 C 
ENDBRANCH  17  24
ENDBRANCH   1  22
TORSDOF 3
