REMARK  Name = ZINC39363337
REMARK  9 active torsions:
REMARK  status: ('A' for Active; 'I' for Inactive)
REMARK    1  A    between atoms: C_1  and  C_2
REMARK    2  A    between atoms: C_2  and  C_3
REMARK    3  A    between atoms: C_3  and  C_14
REMARK    4  A    between atoms: N_6  and  C_10
REMARK    5  A    between atoms: C_10  and  C_11
REMARK    6  A    between atoms: C_11  and  C_13
REMARK    7  A    between atoms: N_17  and  C_20
REMARK    8  A    between atoms: C_20  and  C_21
REMARK    9  A    between atoms: C_26  and  C_27
REMARK                            x       y       z     vdW  Elec       q    Type
REMARK                         _______ _______ _______ _____ _____    ______ ____
ROOT
ATOM      1  C   UNL     1      -1.441  -2.063   0.058  0.00  0.00    +0.018 C 
ATOM      2  C   UNL     1      -0.628  -2.544   1.263  0.00  0.00    -0.013 C 
ATOM      3  C   UNL     1      -0.705  -4.070   1.348  0.00  0.00    -0.078 C 
ATOM      4  N   UNL     1      -2.105  -4.484   1.503  0.00  0.00    +0.380 N 
ATOM      5  C   UNL     1      -2.876  -4.089   0.318  0.00  0.00    -0.078 C 
ATOM      6  C   UNL     1      -2.881  -2.564   0.194  0.00  0.00    -0.013 C 
ATOM      7  H   UNL     1      -2.497  -4.042   2.321  0.00  0.00    -0.082 HD
ENDROOT
BRANCH   1   8
ATOM      8  C   UNL     1      -1.433  -0.534   0.013  0.00  0.00    +0.115 C 
ATOM      9  C   UNL     1      -2.205   0.042   1.184  0.00  0.00    +0.247 C 
ATOM     10  O   UNL     1      -1.958  -0.098   2.363  0.00  0.00    -0.273 OA
ATOM     11  N   UNL     1      -3.222   0.740   0.642  0.00  0.00    -0.220 N 
ATOM     12  C   UNL     1      -3.200   0.687  -0.695  0.00  0.00    +0.310 C 
ATOM     13  O   UNL     1      -4.016   1.240  -1.406  0.00  0.00    -0.252 OA
ATOM     14  N   UNL     1      -2.175  -0.046  -1.163  0.00  0.00    -0.285 N 
ATOM     15  H   UNL     1      -1.964  -0.220  -2.094  0.00  0.00    +0.151 HD
BRANCH   8  17
ATOM     16  C   UNL     1      -0.019   1.526   0.010  0.00  0.00    +0.006 C 
ATOM     17  C   UNL     1       0.002  -0.004   0.002  0.00  0.00    +0.032 C 
ENDBRANCH   8  17
BRANCH  11  18
ATOM     18  C   UNL     1      -4.228   1.468   1.421  0.00  0.00    +0.148 C 
BRANCH  18  19
ATOM     19  C   UNL     1      -3.756   2.880   1.656  0.00  0.00    -0.062 C 
ATOM     20  C   UNL     1      -4.138   3.840   0.851  0.00  0.00    +0.009 C 
ATOM     21  C   UNL     1      -2.845   3.187   2.816  0.00  0.00    +0.040 C 
ENDBRANCH  18  19
ENDBRANCH  11  18
ENDBRANCH   1   8
BRANCH   4  22
ATOM     22  C   UNL     1      -2.167  -5.943   1.662  0.00  0.00    -0.063 C 
BRANCH  22  23
ATOM     23  C   UNL     1      -3.610  -6.364   1.949  0.00  0.00    +0.066 C 
ATOM     24  C   UNL     1      -4.044  -5.885   3.319  0.00  0.00    +0.115 C 
ATOM     25  N   UNL     1      -4.321  -6.949   4.001  0.00  0.00    -0.161 NA
ATOM     26  N   UNL     1      -4.131  -8.115   3.267  0.00  0.00    -0.153 NA
ATOM     27  C   UNL     1      -3.716  -7.873   2.050  0.00  0.00    +0.077 C 
BRANCH  27  28
ATOM     28  C   UNL     1      -3.415  -8.857   0.999  0.00  0.00    -0.001 A 
ATOM     29  C   UNL     1      -2.971  -8.429  -0.257  0.00  0.00    +0.011 A 
ATOM     30  C   UNL     1      -2.690  -9.357  -1.238  0.00  0.00    +0.020 A 
ATOM     31  C   UNL     1      -2.846 -10.709  -0.981  0.00  0.00    +0.041 A 
ATOM     32  C   UNL     1      -3.285 -11.140   0.260  0.00  0.00    +0.020 A 
ATOM     33  C   UNL     1      -3.565 -10.224   1.252  0.00  0.00    +0.011 A 
ATOM     34 CL   UNL     1      -2.490 -11.870  -2.222  0.00  0.00    -0.084 Cl
ENDBRANCH  27  28
ENDBRANCH  22  23
ENDBRANCH   4  22
TORSDOF 7
