REMARK  Name = ZINC63994178
REMARK  8 active torsions:
REMARK  status: ('A' for Active; 'I' for Inactive)
REMARK    1  A    between atoms: C_1  and  O_2
REMARK    2  A    between atoms: O_2  and  C_3
REMARK    3  A    between atoms: C_3  and  C_4
REMARK    4  A    between atoms: C_4  and  N_5
REMARK    5  A    between atoms: N_8  and  C_27
REMARK    6  A    between atoms: N_14  and  C_17
REMARK    7  A    between atoms: C_17  and  C_18
REMARK    8  A    between atoms: C_27  and  C_28
REMARK                            x       y       z     vdW  Elec       q    Type
REMARK                         _______ _______ _______ _____ _____    ______ ____
ROOT
ATOM      1  N   UNL     1      -0.748  -2.617  -1.225  0.00  0.00    -0.269 N 
ATOM      2  C   UNL     1      -1.674  -2.794  -0.263  0.00  0.00    +0.312 C 
ATOM      3  O   UNL     1      -1.489  -2.532   0.909  0.00  0.00    -0.252 OA
ATOM      4  N   UNL     1      -2.821  -3.289  -0.743  0.00  0.00    -0.220 N 
ATOM      5  C   UNL     1      -2.757  -3.487  -2.076  0.00  0.00    +0.247 C 
ATOM      6  O   UNL     1      -3.630  -3.923  -2.797  0.00  0.00    -0.273 OA
ATOM      7  C   UNL     1      -1.371  -3.046  -2.483  0.00  0.00    +0.112 C 
ATOM      8  C   UNL     1      -0.599  -4.211  -3.095  0.00  0.00    +0.017 C 
ATOM      9  C   UNL     1       0.783  -3.725  -3.539  0.00  0.00    -0.076 C 
ATOM     10  N   UNL     1       0.632  -2.644  -4.521  0.00  0.00    +0.382 N 
ATOM     11  C   UNL     1      -0.029  -1.491  -3.897  0.00  0.00    -0.076 C 
ATOM     12  C   UNL     1      -1.445  -1.883  -3.468  0.00  0.00    +0.017 C 
ATOM     13  H   UNL     1       0.074  -2.971  -5.295  0.00  0.00    -0.081 HD
ENDROOT
BRANCH   1  14
ATOM     14  C   UNL     1       0.610  -2.096  -1.052  0.00  0.00    +0.138 C 
BRANCH  14  15
ATOM     15  C   UNL     1       1.416  -3.054  -0.173  0.00  0.00    +0.178 C 
BRANCH  15  17
ATOM     16  C   UNL     1       2.257  -5.297  -0.081  0.00  0.00    +0.194 C 
ATOM     17  O   UNL     1       1.518  -4.323  -0.822  0.00  0.00    -0.381 OA
ENDBRANCH  15  17
ENDBRANCH  14  15
ENDBRANCH   1  14
BRANCH  10  18
ATOM     18  C   UNL     1       1.956  -2.242  -5.011  0.00  0.00    -0.045 C 
BRANCH  18  19
ATOM     19  C   UNL     1       1.797  -1.219  -6.107  0.00  0.00    -0.058 C 
ATOM     20  C   UNL     1       1.841   0.126  -5.976  0.00  0.00    -0.003 A 
ATOM     21  C   UNL     1       2.042   1.007  -4.819  0.00  0.00    +0.010 A 
ATOM     22  C   UNL     1       2.034   2.346  -5.005  0.00  0.00    +0.001 A 
ATOM     23  C   UNL     1       1.839   2.913  -6.272  0.00  0.00    +0.002 A 
ATOM     24  C   UNL     1       1.648   2.170  -7.382  0.00  0.00    +0.026 A 
ATOM     25  C   UNL     1       1.637   0.750  -7.303  0.00  0.00    +0.043 A 
ATOM     26  N   UNL     1       1.474  -0.174  -8.219  0.00  0.00    -0.380 N 
ATOM     27  C   UNL     1       1.561  -1.490  -7.576  0.00  0.00    +0.142 C 
ATOM     28  H   UNL     1       1.324  -0.015  -9.164  0.00  0.00    +0.160 HD
ENDBRANCH  18  19
ENDBRANCH  10  18
BRANCH   4  29
ATOM     29  C   UNL     1      -3.999  -3.581   0.077  0.00  0.00    +0.153 C 
BRANCH  29  30
ATOM     30  C   UNL     1      -4.940  -2.404   0.041  0.00  0.00    -0.022 A 
ATOM     31  C   UNL     1      -4.577  -1.258  -0.597  0.00  0.00    +0.006 A 
ATOM     32  C   UNL     1      -5.434  -0.160  -0.641  0.00  0.00    +0.001 A 
ATOM     33  C   UNL     1      -6.657  -0.201  -0.046  0.00  0.00    +0.008 A 
ATOM     34  C   UNL     1      -7.066  -1.367   0.622  0.00  0.00    -0.018 A 
ATOM     35  C   UNL     1      -6.198  -2.486   0.661  0.00  0.00    -0.013 A 
ATOM     36  C   UNL     1      -6.609  -3.655   1.325  0.00  0.00    +0.009 A 
ATOM     37  C   UNL     1      -7.835  -3.698   1.915  0.00  0.00    +0.001 A 
ATOM     38  C   UNL     1      -8.692  -2.600   1.871  0.00  0.00    +0.001 A 
ATOM     39  C   UNL     1      -8.322  -1.447   1.249  0.00  0.00    +0.008 A 
ENDBRANCH  29  30
ENDBRANCH   4  29
TORSDOF 7
