REMARK  Name = ZINC03342450
REMARK  10 active torsions:
REMARK  status: ('A' for Active; 'I' for Inactive)
REMARK    1  A    between atoms: C_1  and  C_2
REMARK    2  A    between atoms: C_2  and  O_3
REMARK    3  A    between atoms: O_3  and  C_4
REMARK    4  A    between atoms: C_4  and  C_6
REMARK    5  A    between atoms: C_10  and  N_11
REMARK    6  A    between atoms: C_12  and  C_14
REMARK    7  A    between atoms: C_14  and  C_16
REMARK    8  A    between atoms: C_14  and  N_65
REMARK    9  A    between atoms: C_22  and  N_65
REMARK   10  A    between atoms: C_29  and  C_33
REMARK                            x       y       z     vdW  Elec       q    Type
REMARK                         _______ _______ _______ _____ _____    ______ ____
ROOT
ATOM      1  N   UNL     1       2.935   3.495   2.385  0.00  0.00    -0.280 N 
ATOM      2  C   UNL     1       2.769   4.399   1.398  0.00  0.00    +0.208 C 
ATOM      3  O   UNL     1       2.877   5.583   1.636  0.00  0.00    -0.277 OA
ATOM      4  H   UNL     1       2.849   2.548   2.195  0.00  0.00    +0.155 HD
ENDROOT
BRANCH   1   9
ATOM      5  C   UNL     1       3.426   3.151   4.810  0.00  0.00    +0.091 A 
ATOM      6  C   UNL     1       3.726   3.850   6.048  0.00  0.00    -0.021 A 
ATOM      7  C   UNL     1       3.771   5.196   5.953  0.00  0.00    -0.004 A 
ATOM      8  S   UNL     1       3.428   5.541   4.250  0.00  0.00    -0.077 S 
ATOM      9  C   UNL     1       3.228   3.920   3.671  0.00  0.00    +0.086 A 
ATOM     10  C   UNL     1       4.050   6.171   7.055  0.00  0.00    +0.046 C 
ATOM     11  C   UNL     1       3.910   5.438   8.397  0.00  0.00    -0.009 C 
ATOM     12  C   UNL     1       4.687   4.120   8.321  0.00  0.00    +0.008 C 
ATOM     13  C   UNL     1       3.974   3.149   7.378  0.00  0.00    +0.037 C 
ATOM     14  C   UNL     1       4.479   6.308   9.519  0.00  0.00    +0.008 C 
BRANCH   5  15
ATOM     15  C   UNL     1       3.339   1.690   4.764  0.00  0.00    +0.342 C 
ATOM     16  O   UNL     1       4.332   1.028   4.530  0.00  0.00    -0.245 OA
BRANCH  15  17
ATOM     17  O   UNL     1       2.157   1.077   4.982  0.00  0.00    -0.461 OA
BRANCH  17  19
ATOM     18  C   UNL     1       0.728  -0.884   5.192  0.00  0.00    +0.048 C 
ATOM     19  C   UNL     1       2.145  -0.373   4.921  0.00  0.00    +0.229 C 
ENDBRANCH  17  19
ENDBRANCH  15  17
ENDBRANCH   5  15
ENDBRANCH   1   9
BRANCH   2  20
ATOM     20  C   UNL     1       2.451   3.937  -0.001  0.00  0.00    +0.047 C 
BRANCH  20  21
ATOM     21  C   UNL     1       1.156   3.165   0.008  0.00  0.00    -0.053 A 
ATOM     22  C   UNL     1       1.175   1.783   0.000  0.00  0.00    +0.002 A 
ATOM     23  C   UNL     1      -0.013   1.076   0.008  0.00  0.00    +0.000 A 
ATOM     24  C   UNL     1      -1.219   1.751   0.017  0.00  0.00    +0.000 A 
ATOM     25  C   UNL     1      -1.238   3.133   0.030  0.00  0.00    +0.000 A 
ATOM     26  C   UNL     1      -0.050   3.840   0.023  0.00  0.00    +0.002 A 
ENDBRANCH  20  21
BRANCH  20  27
ATOM     27  N   UNL     1       2.318   5.113  -0.880  0.00  0.00    +0.391 N 
ATOM     28  H   UNL     1       2.982   5.837  -0.582  0.00  0.00    -0.084 HD
ATOM     29  H   UNL     1       1.361   5.479  -0.814  0.00  0.00    -0.084 HD
BRANCH  27  30
ATOM     30  C   UNL     1       2.600   4.741  -2.280  0.00  0.00    -0.070 C 
ATOM     31  C   UNL     1       4.109   4.803  -2.530  0.00  0.00    -0.016 C 
ATOM     32  C   UNL     1       4.400   4.425  -3.983  0.00  0.00    -0.002 C 
ATOM     33  C   UNL     1       3.688   5.405  -4.918  0.00  0.00    -0.000 C 
ATOM     34  C   UNL     1       2.180   5.343  -4.668  0.00  0.00    -0.002 C 
ATOM     35  C   UNL     1       1.888   5.721  -3.214  0.00  0.00    -0.016 C 
ENDBRANCH  27  30
ENDBRANCH  20  27
ENDBRANCH   2  20
TORSDOF 8
