REMARK  Name = ZINC38556328
REMARK  6 active torsions:
REMARK  status: ('A' for Active; 'I' for Inactive)
REMARK    1  A    between atoms: C_15  and  C_17
REMARK    2  A    between atoms: C_17  and  S_18
REMARK    3  A    between atoms: S_18  and  C_19
REMARK    4  A    between atoms: C_23  and  C_27
REMARK    5  A    between atoms: N_25  and  N_26
REMARK    6  A    between atoms: C_30  and  C_33
REMARK                            x       y       z     vdW  Elec       q    Type
REMARK                         _______ _______ _______ _____ _____    ______ ____
ROOT
ATOM      1  C   UNL     1      -0.682  -6.642  -1.989  0.00  0.00    +0.214 C 
ATOM      2  N   UNL     1       0.691  -6.976  -2.429  0.00  0.00    -0.228 NA
ATOM      3  N   UNL     1       1.065  -8.142  -1.613  0.00  0.00    -0.234 NA
ATOM      4  C   UNL     1       0.459  -7.835  -0.291  0.00  0.00    +0.185 C 
ATOM      5  N   UNL     1      -0.832  -7.188  -0.624  0.00  0.00    -0.197 NA
ATOM      6  H   UNL     1       0.711  -7.202  -3.413  0.00  0.00    +0.143 HD
ATOM      7  H   UNL     1       2.068  -8.226  -1.541  0.00  0.00    +0.143 HD
ENDROOT
BRANCH   4   8
ATOM      8  C   UNL     1       0.227  -9.122   0.503  0.00  0.00    +0.187 C 
ATOM      9  C   UNL     1       1.547  -9.800   0.824  0.00  0.00    +0.034 C 
ATOM     10  C   UNL     1       1.456 -10.993   0.205  0.00  0.00    +0.091 C 
ATOM     11  N   UNL     1       0.262 -11.106  -0.433  0.00  0.00    -0.154 NA
ATOM     12  N   UNL     1      -0.476 -10.120  -0.319  0.00  0.00    -0.176 NA
BRANCH  10  13
ATOM     13  C   UNL     1       2.510 -12.037   0.220  0.00  0.00    +0.002 A 
ATOM     14  C   UNL     1       3.700 -11.819   0.913  0.00  0.00    +0.013 A 
ATOM     15  C   UNL     1       4.677 -12.793   0.923  0.00  0.00    +0.039 A 
ATOM     16  C   UNL     1       4.478 -13.985   0.246  0.00  0.00    +0.123 A 
ATOM     17  C   UNL     1       3.297 -14.205  -0.445  0.00  0.00    +0.039 A 
ATOM     18  C   UNL     1       2.312 -13.239  -0.456  0.00  0.00    +0.013 A 
ATOM     19  F   UNL     1       5.438 -14.935   0.259  0.00  0.00    -0.205 F 
ENDBRANCH  10  13
ENDBRANCH   4   8
BRANCH   5  20
ATOM     20  N   UNL     1      -1.926  -8.144  -0.563  0.00  0.00    -0.264 NA
ATOM     21  H   UNL     1      -2.800  -7.712  -0.824  0.00  0.00    +0.137 HD
ATOM     22  H   UNL     1      -1.735  -8.949  -1.141  0.00  0.00    +0.137 HD
ENDBRANCH   5  20
BRANCH   1  23
ATOM     23  S   UNL     1      -0.906  -4.842  -1.966  0.00  0.00    -0.115 S 
BRANCH  23  24
ATOM     24  C   UNL     1       0.385  -4.253  -0.836  0.00  0.00    +0.168 C 
BRANCH  24  39
ATOM     25  C   UNL     1       2.802  -4.795   1.981  0.00  0.00    +0.002 A 
ATOM     26  C   UNL     1       2.733  -4.389   3.300  0.00  0.00    +0.001 A 
ATOM     27  C   UNL     1       2.057  -3.228   3.635  0.00  0.00    +0.017 A 
ATOM     28  C   UNL     1       1.451  -2.478   2.643  0.00  0.00    +0.035 A 
ATOM     29  C   UNL     1       1.518  -2.884   1.308  0.00  0.00    +0.055 A 
ATOM     30  C   UNL     1       2.198  -4.049   0.985  0.00  0.00    +0.025 A 
ATOM     31  N   UNL     1       0.908  -2.121   0.305  0.00  0.00    -0.237 N 
ATOM     32  C   UNL     1       0.902  -0.721   0.342  0.00  0.00    +0.055 A 
ATOM     33  C   UNL     1       1.041   0.010  -0.828  0.00  0.00    +0.025 A 
ATOM     34  C   UNL     1       1.036   1.392  -0.784  0.00  0.00    +0.002 A 
ATOM     35  C   UNL     1       0.893   2.054   0.421  0.00  0.00    +0.001 A 
ATOM     36  C   UNL     1       0.753   1.335   1.595  0.00  0.00    +0.017 A 
ATOM     37  C   UNL     1       0.757  -0.048   1.556  0.00  0.00    +0.035 A 
ATOM     38  S   UNL     1       0.581  -0.994   3.038  0.00  0.00    -0.086 S 
ATOM     39  C   UNL     1       0.309  -2.752  -0.725  0.00  0.00    +0.234 C 
ATOM     40  O   UNL     1      -0.290  -2.111  -1.563  0.00  0.00    -0.274 OA
ENDBRANCH  24  39
ENDBRANCH  23  24
ENDBRANCH   1  23
TORSDOF 6
