REMARK  Name = ZINC57773628
REMARK  12 active torsions:
REMARK  status: ('A' for Active; 'I' for Inactive)
REMARK    1  A    between atoms: C_1  and  N_2
REMARK    2  A    between atoms: N_2  and  C_3
REMARK    3  A    between atoms: N_2  and  C_4
REMARK    4  A    between atoms: C_4  and  C_5
REMARK    5  A    between atoms: C_17  and  C_19
REMARK    6  A    between atoms: C_19  and  C_21
REMARK    7  A    between atoms: C_19  and  N_28
REMARK    8  A    between atoms: C_21  and  C_22
REMARK    9  A    between atoms: C_29  and  C_31
REMARK   10  A    between atoms: C_31  and  N_32
REMARK   11  A    between atoms: N_32  and  C_33
REMARK   12  A    between atoms: N_32  and  C_34
REMARK                            x       y       z     vdW  Elec       q    Type
REMARK                         _______ _______ _______ _____ _____    ______ ____
ROOT
ATOM      1  C   UNL     1      -0.828  -1.256   0.075  0.00  0.00    +0.097 C 
ATOM      2  C   UNL     1      -2.018  -2.133   0.439  0.00  0.00    +0.249 C 
ATOM      3  O   UNL     1      -1.573  -3.451   0.781  0.00  0.00    -0.490 OA
ATOM      4  C   UNL     1      -1.483  -4.330  -0.248  0.00  0.00    +0.125 A 
ATOM      5  C   UNL     1      -2.382  -5.383  -0.350  0.00  0.00    +0.046 A 
ATOM      6  C   UNL     1      -2.309  -6.247  -1.426  0.00  0.00    +0.004 A 
ATOM      7  C   UNL     1      -1.348  -6.066  -2.403  0.00  0.00    +0.001 A 
ATOM      8  C   UNL     1      -0.440  -5.027  -2.296  0.00  0.00    +0.009 A 
ATOM      9  C   UNL     1      -0.499  -4.178  -1.214  0.00  0.00    +0.012 A 
ATOM     10  C   UNL     1       0.544  -3.096  -1.020  0.00  0.00    +0.147 C 
ATOM     11  N   UNL     1      -0.116  -1.788  -1.088  0.00  0.00    -0.291 N 
ATOM     12  C   UNL     1      -0.066  -1.071  -2.228  0.00  0.00    +0.237 C 
ATOM     13  O   UNL     1      -0.692  -0.036  -2.322  0.00  0.00    -0.274 OA
ENDROOT
BRANCH   1  14
ATOM     14  C   UNL     1      -1.325   0.155  -0.244  0.00  0.00    -0.054 C 
BRANCH  14  16
ATOM     15  C   UNL     1      -0.629   2.363  -0.874  0.00  0.00    -0.097 C 
ATOM     16  N   UNL     1      -0.177   1.065  -0.356  0.00  0.00    +0.377 N 
ATOM     17  C   UNL     1       0.431   1.251   0.968  0.00  0.00    -0.097 C 
ATOM     18  H   UNL     1       0.504   0.670  -0.986  0.00  0.00    -0.083 HD
ENDBRANCH  14  16
ENDBRANCH   1  14
BRANCH  12  19
ATOM     19  C   UNL     1       0.768  -1.554  -3.386  0.00  0.00    +0.163 C 
BRANCH  19  20
ATOM     20  N   UNL     1       1.335  -0.404  -4.094  0.00  0.00    -0.305 N 
ATOM     21  C   UNL     1       2.469  -0.544  -4.809  0.00  0.00    +0.197 C 
ATOM     22  O   UNL     1       3.020  -1.622  -4.866  0.00  0.00    -0.278 OA
ATOM     23  H   UNL     1       0.893   0.459  -4.049  0.00  0.00    +0.149 HD
BRANCH  21  24
ATOM     24  C   UNL     1       3.051   0.640  -5.538  0.00  0.00    +0.018 C 
BRANCH  24  25
ATOM     25  N   UNL     1       4.277   0.231  -6.236  0.00  0.00    +0.382 N 
ATOM     26  C   UNL     1       4.779   1.351  -7.042  0.00  0.00    -0.096 C 
ATOM     27  C   UNL     1       5.295  -0.159  -5.251  0.00  0.00    -0.096 C 
ATOM     28  H   UNL     1       4.074  -0.553  -6.839  0.00  0.00    -0.082 HD
ENDBRANCH  24  25
ENDBRANCH  21  24
ENDBRANCH  19  20
BRANCH  19  29
ATOM     29  C   UNL     1      -0.109  -2.362  -4.345  0.00  0.00    +0.067 C 
BRANCH  29  30
ATOM     30  C   UNL     1       0.725  -2.847  -5.502  0.00  0.00    -0.045 A 
ATOM     31  C   UNL     1       0.854  -2.067  -6.636  0.00  0.00    +0.004 A 
ATOM     32  C   UNL     1       1.619  -2.511  -7.698  0.00  0.00    +0.000 A 
ATOM     33  C   UNL     1       2.256  -3.736  -7.625  0.00  0.00    +0.000 A 
ATOM     34  C   UNL     1       2.128  -4.516  -6.491  0.00  0.00    +0.000 A 
ATOM     35  C   UNL     1       1.366  -4.069  -5.428  0.00  0.00    +0.004 A 
ENDBRANCH  29  30
ENDBRANCH  19  29
ENDBRANCH  12  19
TORSDOF 8
