REMARK  Name = ZINC39743023
REMARK  5 active torsions:
REMARK  status: ('A' for Active; 'I' for Inactive)
REMARK    1  A    between atoms: C_1  and  N_2
REMARK    2  A    between atoms: C_3  and  C_23
REMARK    3  A    between atoms: C_7  and  S_9
REMARK    4  A    between atoms: S_9  and  C_10
REMARK    5  A    between atoms: C_10  and  C_11
REMARK                            x       y       z     vdW  Elec       q    Type
REMARK                         _______ _______ _______ _____ _____    ______ ____
ROOT
ATOM      1  C   UNL     1       0.121   1.578  -0.112  0.00  0.00    +0.109 C 
ATOM      2  N   UNL     1       0.037   0.113  -0.035  0.00  0.00    -0.260 NA
ATOM      3  C   UNL     1       0.691  -0.521  -1.210  0.00  0.00    +0.172 C 
ATOM      4  N   UNL     1       1.028  -1.879  -0.708  0.00  0.00    -0.233 NA
ATOM      5  N   UNL     1       1.431  -1.665   0.684  0.00  0.00    -0.229 NA
ATOM      6  C   UNL     1       0.803  -0.403   1.123  0.00  0.00    +0.200 C 
ATOM      7  H   UNL     1       1.779  -2.286  -1.244  0.00  0.00    +0.143 HD
ATOM      8  H   UNL     1       1.141  -2.436   1.267  0.00  0.00    +0.143 HD
ENDROOT
BRANCH   3   9
ATOM      9  C   UNL     1      -0.264  -0.600  -2.374  0.00  0.00    -0.001 A 
ATOM     10  C   UNL     1      -1.628  -0.623  -2.148  0.00  0.00    +0.007 A 
ATOM     11  C   UNL     1      -2.504  -0.694  -3.215  0.00  0.00    +0.000 A 
ATOM     12  C   UNL     1      -2.016  -0.743  -4.508  0.00  0.00    +0.001 A 
ATOM     13  C   UNL     1      -0.653  -0.721  -4.734  0.00  0.00    +0.015 A 
ATOM     14  C   UNL     1       0.224  -0.643  -3.667  0.00  0.00    +0.024 A 
ATOM     15 BR   UNL     1       2.089  -0.605  -3.976  0.00  0.00    -0.050 Br
ENDBRANCH   3   9
BRANCH   6  16
ATOM     16  S   UNL     1      -0.314  -0.716   2.518  0.00  0.00    -0.117 S 
BRANCH  16  17
ATOM     17  C   UNL     1      -1.481  -1.948   1.877  0.00  0.00    +0.146 C 
BRANCH  17  18
ATOM     18  C   UNL     1      -2.478  -2.301   2.950  0.00  0.00    +0.120 A 
ATOM     19  N   UNL     1      -3.438  -3.218   2.662  0.00  0.00    -0.310 N 
ATOM     20  H   UNL     1      -3.465  -3.625   1.781  0.00  0.00    +0.170 HD
ATOM     21  C   UNL     1      -4.356  -3.571   3.591  0.00  0.00    +0.259 A 
ATOM     22  O   UNL     1      -5.221  -4.392   3.346  0.00  0.00    -0.267 OA
ATOM     23  C   UNL     1      -4.268  -2.923   4.909  0.00  0.00    +0.065 A 
ATOM     24  C   UNL     1      -5.165  -3.215   5.934  0.00  0.00    +0.015 A 
ATOM     25  C   UNL     1      -5.037  -2.578   7.149  0.00  0.00    +0.001 A 
ATOM     26  C   UNL     1      -4.024  -1.651   7.358  0.00  0.00    +0.002 A 
ATOM     27  C   UNL     1      -3.128  -1.349   6.357  0.00  0.00    +0.028 A 
ATOM     28  C   UNL     1      -3.237  -1.981   5.117  0.00  0.00    +0.078 A 
ATOM     29  N   UNL     1      -2.373  -1.717   4.105  0.00  0.00    -0.233 NA
ENDBRANCH  17  18
ENDBRANCH  16  17
ENDBRANCH   6  16
TORSDOF 4
