REMARK  Name = ZINC36628709
REMARK  13 active torsions:
REMARK  status: ('A' for Active; 'I' for Inactive)
REMARK    1  A    between atoms: C_1  and  C_2
REMARK    2  A    between atoms: C_2  and  C_3
REMARK    3  A    between atoms: C_3  and  N_4
REMARK    4  A    between atoms: C_10  and  N_15
REMARK    5  A    between atoms: C_11  and  C_12
REMARK    6  A    between atoms: C_16  and  C_18
REMARK    7  A    between atoms: C_19  and  C_20
REMARK    8  A    between atoms: C_22  and  O_30
REMARK    9  A    between atoms: C_23  and  O_28
REMARK   10  A    between atoms: C_24  and  O_26
REMARK   11  A    between atoms: O_26  and  C_27
REMARK   12  A    between atoms: O_28  and  C_29
REMARK   13  A    between atoms: O_30  and  C_31
REMARK                            x       y       z     vdW  Elec       q    Type
REMARK                         _______ _______ _______ _____ _____    ______ ____
ROOT
ATOM      1  N   UNL     1       0.762  -1.980   1.234  0.00  0.00    +0.383 N 
ATOM      2  C   UNL     1       1.362  -2.467   2.482  0.00  0.00    -0.074 C 
ATOM      3  C   UNL     1       1.113  -3.971   2.636  0.00  0.00    +0.018 C 
ATOM      4  C   UNL     1       1.567  -4.654   1.354  0.00  0.00    -0.027 A 
ATOM      5  C   UNL     1       1.756  -3.929   0.228  0.00  0.00    -0.021 A 
ATOM      6  S   UNL     1       2.273  -5.109  -0.981  0.00  0.00    -0.079 S 
ATOM      7  C   UNL     1       2.242  -6.507  -0.050  0.00  0.00    +0.085 A 
ATOM      8  C   UNL     1       1.833  -6.071   1.202  0.00  0.00    +0.068 A 
ATOM      9  C   UNL     1       1.555  -2.454   0.084  0.00  0.00    -0.035 C 
ATOM     10  H   UNL     1      -0.182  -2.328   1.157  0.00  0.00    -0.081 HD
ENDROOT
BRANCH   8  11
ATOM     11  C   UNL     1       1.677  -7.003   2.323  0.00  0.00    +0.244 C 
ATOM     12  O   UNL     1       0.606  -7.550   2.516  0.00  0.00    -0.270 OA
ATOM     13  N   UNL     1       2.718  -7.255   3.140  0.00  0.00    -0.325 N 
ATOM     14  H   UNL     1       3.571  -6.819   2.987  0.00  0.00    +0.145 HD
ATOM     15  H   UNL     1       2.615  -7.871   3.882  0.00  0.00    +0.145 HD
ENDBRANCH   8  11
BRANCH   7  16
ATOM     16  N   UNL     1       2.554  -7.798  -0.442  0.00  0.00    -0.276 N 
ATOM     17  C   UNL     1       2.938  -8.043  -1.711  0.00  0.00    +0.241 C 
ATOM     18  O   UNL     1       3.011  -7.129  -2.512  0.00  0.00    -0.270 OA
ATOM     19  H   UNL     1       2.496  -8.526   0.196  0.00  0.00    +0.156 HD
BRANCH  17  20
ATOM     20  C   UNL     1       3.267  -9.405  -2.124  0.00  0.00    +0.068 C 
ATOM     21  C   UNL     1       3.652  -9.651  -3.396  0.00  0.00    +0.013 C 
BRANCH  21  22
ATOM     22  C   UNL     1       3.983 -11.021  -3.812  0.00  0.00    -0.018 A 
ATOM     23  C   UNL     1       3.894 -12.074  -2.894  0.00  0.00    +0.057 A 
ATOM     24  C   UNL     1       4.206 -13.361  -3.288  0.00  0.00    +0.166 A 
ATOM     25  C   UNL     1       4.608 -13.611  -4.598  0.00  0.00    +0.204 A 
ATOM     26  C   UNL     1       4.697 -12.566  -5.514  0.00  0.00    +0.166 A 
ATOM     27  C   UNL     1       4.382 -11.277  -5.128  0.00  0.00    +0.057 A 
BRANCH  26  28
ATOM     28  O   UNL     1       5.090 -12.815  -6.792  0.00  0.00    -0.491 OA
ATOM     29  C   UNL     1       5.160 -11.697  -7.679  0.00  0.00    +0.277 C 
ENDBRANCH  26  28
BRANCH  25  30
ATOM     30  O   UNL     1       4.914 -14.878  -4.983  0.00  0.00    -0.488 OA
ATOM     31  C   UNL     1       3.847 -15.674  -5.503  0.00  0.00    +0.277 C 
ENDBRANCH  25  30
BRANCH  24  32
ATOM     32  O   UNL     1       4.120 -14.384  -2.397  0.00  0.00    -0.491 OA
ATOM     33  C   UNL     1       3.702 -14.056  -1.071  0.00  0.00    +0.277 C 
ENDBRANCH  24  32
ENDBRANCH  21  22
ENDBRANCH  17  20
ENDBRANCH   7  16
BRANCH   1  34
ATOM     34  C   UNL     1       0.742  -0.511   1.242  0.00  0.00    -0.079 C 
BRANCH  34  36
ATOM     35  C   UNL     1      -0.019   1.526   0.010  0.00  0.00    +0.002 C 
ATOM     36  C   UNL     1       0.002  -0.004   0.002  0.00  0.00    -0.022 C 
ENDBRANCH  34  36
ENDBRANCH   1  34
TORSDOF 9
