REMARK  Name = ZINC39324719
REMARK  9 active torsions:
REMARK  status: ('A' for Active; 'I' for Inactive)
REMARK    1  A    between atoms: C_1  and  C_2
REMARK    2  A    between atoms: C_2  and  C_3
REMARK    3  A    between atoms: C_2  and  C_4
REMARK    4  A    between atoms: C_7  and  C_10
REMARK    5  A    between atoms: C_12  and  C_25
REMARK    6  A    between atoms: C_13  and  N_24
REMARK    7  A    between atoms: C_18  and  C_21
REMARK    8  A    between atoms: C_21  and  O_22
REMARK    9  A    between atoms: O_22  and  C_23
REMARK                            x       y       z     vdW  Elec       q    Type
REMARK                         _______ _______ _______ _____ _____    ______ ____
ROOT
ATOM      1  C   UNL     1      -5.419  -2.005   0.043  0.00  0.00    +0.098 C 
ATOM      2  C   UNL     1      -5.419  -3.522  -0.006  0.00  0.00    +0.097 C 
ATOM      3  C   UNL     1      -5.831  -4.196  -1.101  0.00  0.00    +0.195 C 
ATOM      4  O   UNL     1      -6.303  -3.663  -2.242  0.00  0.00    -0.448 OA
ATOM      5  C   UNL     1      -5.962  -2.303  -2.523  0.00  0.00    +0.343 C 
ATOM      6  C   UNL     1      -6.148  -1.560  -1.195  0.00  0.00    +0.032 C 
ATOM      7  C   UNL     1      -7.004  -0.603  -1.454  0.00  0.00    +0.094 C 
ATOM      8  N   UNL     1      -7.456  -0.707  -2.730  0.00  0.00    -0.153 NA
ATOM      9  N   UNL     1      -6.941  -1.645  -3.393  0.00  0.00    -0.138 NA
ENDROOT
BRANCH   1  13
ATOM     10  C   UNL     1      -1.412  -0.526   0.013  0.00  0.00    -0.045 A 
ATOM     11  C   UNL     1      -2.259  -0.204   1.056  0.00  0.00    +0.004 A 
ATOM     12  C   UNL     1      -3.556  -0.683   1.066  0.00  0.00    +0.005 A 
ATOM     13  C   UNL     1      -4.006  -1.482   0.032  0.00  0.00    -0.035 A 
ATOM     14  C   UNL     1      -3.159  -1.803  -1.012  0.00  0.00    +0.005 A 
ATOM     15  C   UNL     1      -1.863  -1.321  -1.024  0.00  0.00    +0.004 A 
BRANCH  10  17
ATOM     16  C   UNL     1      -0.019   1.526   0.010  0.00  0.00    +0.012 C 
ATOM     17  C   UNL     1       0.002  -0.004   0.002  0.00  0.00    +0.013 C 
ATOM     18  C   UNL     1       0.742  -0.511   1.242  0.00  0.00    +0.012 C 
ENDBRANCH  10  17
ENDBRANCH   1  13
BRANCH   3  19
ATOM     19  N   UNL     1      -5.761  -5.565  -1.043  0.00  0.00    -0.329 N 
ATOM     20  H   UNL     1      -5.428  -6.000  -0.243  0.00  0.00    +0.145 HD
ATOM     21  H   UNL     1      -6.045  -6.097  -1.802  0.00  0.00    +0.145 HD
ENDBRANCH   3  19
BRANCH   2  22
ATOM     22  C   UNL     1      -4.968  -4.257   1.137  0.00  0.00    +0.101 C 
ATOM     23  N   UNL     1      -4.611  -4.840   2.044  0.00  0.00    -0.191 NA
ENDBRANCH   2  22
BRANCH   7  24
ATOM     24  C   UNL     1      -7.426   0.463  -0.475  0.00  0.00    +0.216 C 
BRANCH  24  25
ATOM     25  O   UNL     1      -6.988   1.740  -0.943  0.00  0.00    -0.377 OA
ATOM     26  C   UNL     1      -7.339   2.826  -0.083  0.00  0.00    +0.194 C 
ENDBRANCH  24  25
ENDBRANCH   7  24
TORSDOF 6
