REMARK  Name = ZINC53777887
REMARK  6 active torsions:
REMARK  status: ('A' for Active; 'I' for Inactive)
REMARK    1  A    between atoms: C_1  and  C_2
REMARK    2  A    between atoms: C_3  and  C_28
REMARK    3  A    between atoms: C_7  and  N_27
REMARK    4  A    between atoms: C_9  and  S_11
REMARK    5  A    between atoms: S_11  and  C_12
REMARK    6  A    between atoms: C_12  and  C_13
REMARK                            x       y       z     vdW  Elec       q    Type
REMARK                         _______ _______ _______ _____ _____    ______ ____
ROOT
ATOM      1  C   UNL     1      -1.287   1.448   0.627  0.00  0.00    +0.045 C 
ATOM      2  C   UNL     1      -1.151  -0.051   0.545  0.00  0.00    -0.028 A 
ATOM      3  C   UNL     1      -1.720  -0.729  -0.461  0.00  0.00    -0.008 A 
ATOM      4  S   UNL     1      -1.283  -2.424  -0.120  0.00  0.00    -0.073 S 
ATOM      5  C   UNL     1      -0.348  -2.175   1.366  0.00  0.00    +0.115 A 
ATOM      6  C   UNL     1      -0.397  -0.777   1.554  0.00  0.00    +0.050 A 
ATOM      7  C   UNL     1       0.292  -0.288   2.699  0.00  0.00    +0.129 A 
ATOM      8  N   UNL     1       0.920  -1.142   3.490  0.00  0.00    -0.207 NA
ATOM      9  C   UNL     1       0.929  -2.448   3.252  0.00  0.00    +0.191 A 
ATOM     10  N   UNL     1       0.296  -2.961   2.205  0.00  0.00    -0.214 NA
ATOM     11  C   UNL     1      -2.534  -0.188  -1.608  0.00  0.00    +0.052 C 
ENDROOT
BRANCH   7  12
ATOM     12  N   UNL     1       0.306   1.066   2.981  0.00  0.00    -0.343 N 
ATOM     13  H   UNL     1       0.157   1.710   2.272  0.00  0.00    +0.144 HD
ATOM     14  H   UNL     1       0.465   1.370   3.888  0.00  0.00    +0.144 HD
ENDBRANCH   7  12
BRANCH   9  15
ATOM     15  S   UNL     1       1.789  -3.521   4.354  0.00  0.00    -0.077 S 
BRANCH  15  16
ATOM     16  C   UNL     1       2.471  -2.405   5.610  0.00  0.00    +0.173 C 
BRANCH  16  17
ATOM     17  C   UNL     1       3.241  -3.206   6.629  0.00  0.00    +0.226 C 
ATOM     18  O   UNL     1       3.322  -4.411   6.518  0.00  0.00    -0.275 OA
ATOM     19  N   UNL     1       3.841  -2.583   7.663  0.00  0.00    -0.293 N 
ATOM     20  C   UNL     1       3.670  -1.136   7.890  0.00  0.00    +0.136 C 
ATOM     21  C   UNL     1       5.050  -0.498   8.075  0.00  0.00    +0.179 C 
ATOM     22  O   UNL     1       5.792  -1.222   9.062  0.00  0.00    -0.373 OA
ATOM     23  C   UNL     1       6.033  -2.582   8.709  0.00  0.00    +0.139 C 
ATOM     24  C   UNL     1       4.686  -3.318   8.612  0.00  0.00    +0.105 C 
ATOM     25  C   UNL     1       4.933  -4.745   8.130  0.00  0.00    +0.025 C 
ATOM     26  C   UNL     1       5.816  -5.468   9.152  0.00  0.00    +0.002 C 
ATOM     27  C   UNL     1       7.147  -4.731   9.305  0.00  0.00    +0.003 C 
ATOM     28  C   UNL     1       6.893  -3.286   9.755  0.00  0.00    +0.033 C 
ENDBRANCH  16  17
ENDBRANCH  15  16
ENDBRANCH   9  15
TORSDOF 4
