REMARK  Name = ZINC39654296
REMARK  9 active torsions:
REMARK  status: ('A' for Active; 'I' for Inactive)
REMARK    1  A    between atoms: C_1  and  C_2
REMARK    2  A    between atoms: C_2  and  C_3
REMARK    3  A    between atoms: C_6  and  C_9
REMARK    4  A    between atoms: C_9  and  C_10
REMARK    5  A    between atoms: C_10  and  N_11
REMARK    6  A    between atoms: C_12  and  C_14
REMARK    7  A    between atoms: C_25  and  C_27
REMARK    8  A    between atoms: C_30  and  O_33
REMARK    9  A    between atoms: O_33  and  C_34
REMARK                            x       y       z     vdW  Elec       q    Type
REMARK                         _______ _______ _______ _____ _____    ______ ____
ROOT
ATOM      1  C   UNL     1       5.328  -1.190  -9.351  0.00  0.00    +0.100 C 
ATOM      2  C   UNL     1       4.136  -1.936  -9.992  0.00  0.00    +0.121 C 
ATOM      3  N   UNL     1       3.546  -0.958 -10.936  0.00  0.00    -0.296 N 
ATOM      4  C   UNL     1       4.717  -0.275 -11.539  0.00  0.00    +0.115 C 
ATOM      5  C   UNL     1       5.708  -0.104 -10.371  0.00  0.00    -0.004 C 
ATOM      6  C   UNL     1       5.555   1.281  -9.749  0.00  0.00    -0.010 C 
ATOM      7  C   UNL     1       5.993   2.342 -10.763  0.00  0.00    -0.082 C 
ATOM      8  N   UNL     1       7.391   2.107 -11.146  0.00  0.00    +0.379 N 
ATOM      9  C   UNL     1       7.513   0.812 -11.827  0.00  0.00    -0.082 C 
ATOM     10  C   UNL     1       7.139  -0.313 -10.858  0.00  0.00    -0.010 C 
ATOM     11  C   UNL     1       2.241  -0.738 -11.190  0.00  0.00    +0.247 C 
ATOM     12  O   UNL     1       1.390  -1.292 -10.521  0.00  0.00    -0.270 OA
ATOM     13  H   UNL     1       7.696   2.842 -11.767  0.00  0.00    -0.086 HD
ATOM     14  H   UNL     1       7.969   2.107 -10.320  0.00  0.00    -0.086 HD
ENDROOT
BRANCH  11  15
ATOM     15  C   UNL     1       1.845   0.175 -12.280  0.00  0.00    +0.037 A 
ATOM     16  C   UNL     1       2.742   0.466 -13.311  0.00  0.00    +0.016 A 
ATOM     17  C   UNL     1       2.368   1.318 -14.326  0.00  0.00    +0.047 A 
ATOM     18  C   UNL     1       1.101   1.889 -14.326  0.00  0.00    +0.130 A 
ATOM     19  C   UNL     1       0.206   1.602 -13.302  0.00  0.00    +0.047 A 
ATOM     20  C   UNL     1       0.570   0.747 -12.286  0.00  0.00    +0.016 A 
BRANCH  18  21
ATOM     21  O   UNL     1       0.737   2.729 -15.328  0.00  0.00    -0.406 OA
BRANCH  21  22
ATOM     22  C   UNL     1      -0.580   3.280 -15.266  0.00  0.00    +0.575 C 
ATOM     23  F   UNL     1      -0.722   4.019 -14.086  0.00  0.00    -0.133 F 
ATOM     24  F   UNL     1      -0.788   4.117 -16.368  0.00  0.00    -0.133 F 
ATOM     25  F   UNL     1      -1.520   2.244 -15.283  0.00  0.00    -0.133 F 
ENDBRANCH  21  22
ENDBRANCH  18  21
ENDBRANCH  11  15
BRANCH   1  27
ATOM     26  N   UNL     1       5.840  -0.288  -7.105  0.00  0.00    -0.315 N 
ATOM     27  C   UNL     1       4.914  -0.562  -8.045  0.00  0.00    +0.218 C 
ATOM     28  O   UNL     1       3.747  -0.303  -7.840  0.00  0.00    -0.275 OA
ATOM     29  H   UNL     1       6.774  -0.495  -7.269  0.00  0.00    +0.149 HD
BRANCH  26  30
ATOM     30  C   UNL     1       5.437   0.322  -5.836  0.00  0.00    +0.109 C 
BRANCH  30  31
ATOM     31  C   UNL     1       6.671   0.526  -4.954  0.00  0.00    +0.054 C 
BRANCH  31  35
ATOM     32  C   UNL     1       5.499   2.306  -1.252  0.00  0.00    -0.048 A 
ATOM     33  C   UNL     1       5.529   0.930  -1.378  0.00  0.00    +0.004 A 
ATOM     34  C   UNL     1       5.908   0.354  -2.576  0.00  0.00    +0.004 A 
ATOM     35  C   UNL     1       6.257   1.154  -3.648  0.00  0.00    -0.046 A 
ATOM     36  C   UNL     1       6.225   2.530  -3.522  0.00  0.00    +0.004 A 
ATOM     37  C   UNL     1       5.842   3.107  -2.326  0.00  0.00    +0.004 A 
BRANCH  32  39
ATOM     38  C   UNL     1       3.571   3.150   0.059  0.00  0.00    +0.009 C 
ATOM     39  C   UNL     1       5.085   2.934   0.054  0.00  0.00    +0.032 C 
ENDBRANCH  32  39
ENDBRANCH  31  35
ENDBRANCH  30  31
ENDBRANCH  26  30
ENDBRANCH   1  27
TORSDOF 8
