REMARK  Name = ZINC08765854
REMARK  8 active torsions:
REMARK  status: ('A' for Active; 'I' for Inactive)
REMARK    1  A    between atoms: C_6  and  C_7
REMARK    2  A    between atoms: C_12  and  O_18
REMARK    3  A    between atoms: O_18  and  C_19
REMARK    4  A    between atoms: C_21  and  O_34
REMARK    5  A    between atoms: C_23  and  O_33
REMARK    6  A    between atoms: C_25  and  O_32
REMARK    7  A    between atoms: C_27  and  C_30
REMARK    8  A    between atoms: C_30  and  O_31
REMARK                            x       y       z     vdW  Elec       q    Type
REMARK                         _______ _______ _______ _____ _____    ______ ____
ROOT
ATOM      1  C   UNL     1       2.997  -5.944   5.649  0.00  0.00    +0.064 A 
ATOM      2  C   UNL     1       2.563  -6.570   4.525  0.00  0.00    +0.208 A 
ATOM      3  O   UNL     1       2.081  -5.905   3.472  0.00  0.00    -0.462 OA
ATOM      4  C   UNL     1       1.982  -4.561   3.428  0.00  0.00    +0.142 A 
ATOM      5  C   UNL     1       1.467  -3.928   2.304  0.00  0.00    +0.092 A 
ATOM      6  C   UNL     1       1.378  -2.546   2.273  0.00  0.00    +0.128 A 
ATOM      7  C   UNL     1       1.791  -1.784   3.364  0.00  0.00    +0.047 A 
ATOM      8  C   UNL     1       2.295  -2.392   4.479  0.00  0.00    +0.019 A 
ATOM      9  C   UNL     1       2.396  -3.783   4.523  0.00  0.00    +0.065 A 
ATOM     10  C   UNL     1       2.935  -4.473   5.708  0.00  0.00    +0.200 A 
ATOM     11  O   UNL     1       3.311  -3.857   6.691  0.00  0.00    -0.286 OA
ENDROOT
BRANCH   1  17
ATOM     12  C   UNL     1       4.751  -6.389   7.364  0.00  0.00    +0.010 A 
ATOM     13  C   UNL     1       5.234  -7.116   8.434  0.00  0.00    +0.016 A 
ATOM     14  C   UNL     1       4.508  -8.184   8.931  0.00  0.00    +0.018 A 
ATOM     15  C   UNL     1       3.292  -8.526   8.365  0.00  0.00    +0.016 A 
ATOM     16  C   UNL     1       2.797  -7.802   7.299  0.00  0.00    +0.010 A 
ATOM     17  C   UNL     1       3.524  -6.725   6.794  0.00  0.00    -0.011 A 
ATOM     18 BR   UNL     1       5.180  -9.181  10.392  0.00  0.00    -0.050 Br
ENDBRANCH   1  17
BRANCH   6  19
ATOM     19  O   UNL     1       0.879  -1.929   1.172  0.00  0.00    -0.461 OA
BRANCH  19  20
ATOM     20  C   UNL     1       0.808  -0.502   1.204  0.00  0.00    +0.339 C 
ATOM     21  C   UNL     1       0.002  -0.004   0.002  0.00  0.00    +0.214 C 
ATOM     22  C   UNL     1      -0.019   1.528   0.010  0.00  0.00    +0.180 C 
ATOM     23  C   UNL     1       1.422   2.047  -0.001  0.00  0.00    +0.177 C 
ATOM     24  C   UNL     1       2.174   1.469   1.202  0.00  0.00    +0.179 C 
ATOM     25  O   UNL     1       2.128   0.042   1.149  0.00  0.00    -0.331 OA
BRANCH  23  26
ATOM     26  O   UNL     1       2.068   1.638  -1.208  0.00  0.00    -0.386 OA
ATOM     27  H   UNL     1       1.641   1.965  -2.012  0.00  0.00    +0.210 HD
ENDBRANCH  23  26
BRANCH  22  28
ATOM     28  O   UNL     1      -0.707   2.003  -1.148  0.00  0.00    -0.386 OA
ATOM     29  H   UNL     1      -1.625   1.706  -1.210  0.00  0.00    +0.210 HD
ENDBRANCH  22  28
BRANCH  21  30
ATOM     30  O   UNL     1      -1.335  -0.500   0.085  0.00  0.00    -0.383 OA
ATOM     31  H   UNL     1      -1.398  -1.465   0.085  0.00  0.00    +0.210 HD
ENDBRANCH  21  30
BRANCH  24  32
ATOM     32  C   UNL     1       3.631   1.935   1.165  0.00  0.00    +0.190 C 
BRANCH  32  33
ATOM     33  O   UNL     1       4.302   1.492   2.346  0.00  0.00    -0.392 OA
ATOM     34  H   UNL     1       5.233   1.753   2.390  0.00  0.00    +0.210 HD
ENDBRANCH  32  33
ENDBRANCH  24  32
ENDBRANCH  19  20
ENDBRANCH   6  19
TORSDOF 8
