REMARK  Name = ZINC38872512
REMARK  11 active torsions:
REMARK  status: ('A' for Active; 'I' for Inactive)
REMARK    1  A    between atoms: C_1  and  C_2
REMARK    2  A    between atoms: C_2  and  C_4
REMARK    3  A    between atoms: C_2  and  N_14
REMARK    4  A    between atoms: C_7  and  C_10
REMARK    5  A    between atoms: C_10  and  C_11
REMARK    6  A    between atoms: C_10  and  C_12
REMARK    7  A    between atoms: C_10  and  C_13
REMARK    8  A    between atoms: C_15  and  C_17
REMARK    9  A    between atoms: N_20  and  C_23
REMARK   10  A    between atoms: C_23  and  C_24
REMARK   11  A    between atoms: C_26  and  C_29
REMARK                            x       y       z     vdW  Elec       q    Type
REMARK                         _______ _______ _______ _____ _____    ______ ____
ROOT
ATOM      1  C   UNL     1       0.712  -1.094  -3.598  0.00  0.00    +0.071 C 
ATOM      2  C   UNL     1       1.844  -0.127  -3.955  0.00  0.00    -0.006 C 
ATOM      3  C   UNL     1       2.505  -0.583  -5.258  0.00  0.00    -0.077 C 
ATOM      4  N   UNL     1       1.510  -0.593  -6.338  0.00  0.00    +0.386 N 
ATOM      5  C   UNL     1       0.458  -1.571  -6.036  0.00  0.00    -0.077 C 
ATOM      6  C   UNL     1      -0.282  -1.153  -4.763  0.00  0.00    -0.006 C 
ATOM      7  H   UNL     1       1.100   0.325  -6.425  0.00  0.00    -0.081 HD
ENDROOT
BRANCH   1   9
ATOM      8  N   UNL     1       0.688  -0.476  -1.203  0.00  0.00    -0.309 N 
ATOM      9  C   UNL     1       0.006  -0.608  -2.358  0.00  0.00    +0.216 C 
ATOM     10  O   UNL     1      -1.175  -0.336  -2.400  0.00  0.00    -0.276 OA
ATOM     11  H   UNL     1       1.632  -0.695  -1.170  0.00  0.00    +0.149 HD
BRANCH   8  13
ATOM     12  C   UNL     1      -0.019   1.526   0.010  0.00  0.00    +0.033 C 
ATOM     13  C   UNL     1       0.002  -0.004   0.002  0.00  0.00    +0.100 C 
BRANCH  13  14
ATOM     14  C   UNL     1       0.731  -0.503   1.223  0.00  0.00    -0.027 A 
ATOM     15  C   UNL     1       2.113  -0.514   1.247  0.00  0.00    +0.006 A 
ATOM     16  C   UNL     1       2.782  -0.972   2.366  0.00  0.00    +0.004 A 
ATOM     17  C   UNL     1       2.068  -1.419   3.463  0.00  0.00    -0.042 A 
ATOM     18  C   UNL     1       0.686  -1.407   3.439  0.00  0.00    +0.004 A 
ATOM     19  C   UNL     1       0.017  -0.945   2.321  0.00  0.00    +0.006 A 
BRANCH  17  20
ATOM     20  C   UNL     1       2.797  -1.919   4.683  0.00  0.00    -0.013 C 
ATOM     21  C   UNL     1       3.677  -0.801   5.246  0.00  0.00    +0.015 C 
ATOM     22  C   UNL     1       1.781  -2.350   5.743  0.00  0.00    +0.015 C 
ATOM     23  C   UNL     1       3.673  -3.113   4.301  0.00  0.00    +0.015 C 
ENDBRANCH  17  20
ENDBRANCH  13  14
ENDBRANCH   8  13
ENDBRANCH   1   9
BRANCH   4  24
ATOM     24  C   UNL     1       2.165  -0.956  -7.602  0.00  0.00    +0.022 C 
BRANCH  24  25
ATOM     25  C   UNL     1       1.173  -0.848  -8.731  0.00  0.00    +0.211 A 
ATOM     26  N   UNL     1       0.952   0.215  -9.450  0.00  0.00    -0.193 NA
ATOM     27  C   UNL     1       0.002  -0.040 -10.369  0.00  0.00    +0.203 A 
ATOM     28  N   UNL     1      -0.388  -1.283 -10.233  0.00  0.00    -0.056 NA
ATOM     29  O   UNL     1       0.373  -1.830  -9.167  0.00  0.00    -0.340 OA
BRANCH  27  30
ATOM     30  C   UNL     1      -0.516   0.926 -11.369  0.00  0.00    +0.041 A 
ATOM     31  C   UNL     1      -0.011   2.224 -11.414  0.00  0.00    +0.014 A 
ATOM     32  C   UNL     1      -0.496   3.119 -12.346  0.00  0.00    +0.021 A 
ATOM     33  C   UNL     1      -1.483   2.729 -13.236  0.00  0.00    +0.042 A 
ATOM     34  C   UNL     1      -1.989   1.441 -13.195  0.00  0.00    +0.040 A 
ATOM     35  C   UNL     1      -1.506   0.536 -12.270  0.00  0.00    +0.053 A 
ATOM     36 CL   UNL     1      -2.135  -1.081 -12.226  0.00  0.00    -0.083 Cl
ATOM     37 CL   UNL     1      -2.089   3.860 -14.405  0.00  0.00    -0.083 Cl
ENDBRANCH  27  30
ENDBRANCH  24  25
ENDBRANCH   4  24
TORSDOF 7
