REMARK  Name = ZINC17085930
REMARK  11 active torsions:
REMARK  status: ('A' for Active; 'I' for Inactive)
REMARK    1  A    between atoms: C_1  and  C_2
REMARK    2  A    between atoms: C_2  and  O_3
REMARK    3  A    between atoms: O_3  and  C_4
REMARK    4  A    between atoms: C_6  and  C_19
REMARK    5  A    between atoms: C_9  and  O_10
REMARK    6  A    between atoms: O_10  and  C_11
REMARK    7  A    between atoms: C_11  and  C_13
REMARK    8  A    between atoms: C_28  and  C_32
REMARK    9  A    between atoms: C_32  and  C_33
REMARK   10  A    between atoms: C_32  and  C_34
REMARK   11  A    between atoms: C_32  and  C_35
REMARK                            x       y       z     vdW  Elec       q    Type
REMARK                         _______ _______ _______ _____ _____    ______ ____
ROOT
ATOM      1  C   UNL     1       3.805  -0.458  -7.646  0.00  0.00    +0.190 C 
ATOM      2  N   UNL     1       2.364  -0.668  -7.415  0.00  0.00    -0.316 N 
ATOM      3  C   UNL     1       1.920  -0.525  -6.126  0.00  0.00    +0.080 A 
ATOM      4  C   UNL     1       2.758  -0.670  -5.010  0.00  0.00    +0.068 A 
ATOM      5  C   UNL     1       2.123  -0.494  -3.713  0.00  0.00    -0.023 A 
ATOM      6  C   UNL     1       0.802  -0.208  -3.743  0.00  0.00    -0.004 A 
ATOM      7  S   UNL     1       0.381  -0.169  -5.466  0.00  0.00    -0.078 S 
ATOM      8  C   UNL     1      -0.102   0.020  -2.571  0.00  0.00    +0.046 C 
ATOM      9  C   UNL     1       0.611  -0.479  -1.306  0.00  0.00    -0.000 C 
ATOM     10  C   UNL     1       2.042   0.067  -1.296  0.00  0.00    +0.009 C 
ATOM     11  C   UNL     1       2.866  -0.616  -2.388  0.00  0.00    +0.037 C 
ATOM     12  C   UNL     1       4.181  -0.994  -5.260  0.00  0.00    +0.248 C 
ATOM     13  O   UNL     1       4.942  -1.257  -4.346  0.00  0.00    -0.270 OA
ATOM     14  N   UNL     1       4.600  -0.986  -6.543  0.00  0.00    -0.289 N 
ATOM     15  H   UNL     1       1.704  -0.927  -8.257  0.00  0.00    +0.149 HD
ATOM     16  H   UNL     1       5.599  -1.406  -6.736  0.00  0.00    +0.151 HD
ENDROOT
BRANCH   1  19
ATOM     17  C   UNL     1       5.541   2.895  -7.520  0.00  0.00    +0.163 A 
ATOM     18  C   UNL     1       5.291   1.538  -7.389  0.00  0.00    +0.056 A 
ATOM     19  C   UNL     1       4.072   1.019  -7.784  0.00  0.00    -0.006 A 
ATOM     20  C   UNL     1       3.096   1.851  -8.299  0.00  0.00    +0.011 A 
ATOM     21  C   UNL     1       3.336   3.207  -8.427  0.00  0.00    +0.050 A 
ATOM     22  C   UNL     1       4.558   3.733  -8.039  0.00  0.00    +0.173 A 
BRANCH  17  23
ATOM     23  O   UNL     1       6.741   3.407  -7.138  0.00  0.00    -0.489 OA
BRANCH  23  25
ATOM     24  C   UNL     1       8.979   3.242  -6.242  0.00  0.00    +0.048 C 
ATOM     25  C   UNL     1       7.701   2.488  -6.615  0.00  0.00    +0.226 C 
ENDBRANCH  23  25
ENDBRANCH  17  23
BRANCH  22  26
ATOM     26  O   UNL     1       4.796   5.066  -8.165  0.00  0.00    -0.419 OA
BRANCH  26  27
ATOM     27  C   UNL     1       5.497   5.463  -9.245  0.00  0.00    +0.345 C 
ATOM     28  O   UNL     1       5.801   4.657 -10.102  0.00  0.00    -0.245 OA
BRANCH  27  29
ATOM     29  C   UNL     1       5.897   6.878  -9.387  0.00  0.00    +0.059 A 
ATOM     30  C   UNL     1       5.545   7.808  -8.407  0.00  0.00    +0.015 A 
ATOM     31  C   UNL     1       5.927   9.126  -8.543  0.00  0.00    +0.001 A 
ATOM     32  C   UNL     1       6.648   9.530  -9.654  0.00  0.00    +0.000 A 
ATOM     33  C   UNL     1       6.994   8.614 -10.632  0.00  0.00    +0.001 A 
ATOM     34  C   UNL     1       6.624   7.292 -10.505  0.00  0.00    +0.015 A 
ENDBRANCH  27  29
ENDBRANCH  26  27
ENDBRANCH  22  26
ENDBRANCH   1  19
BRANCH   9  35
ATOM     35  C   UNL     1      -0.136   0.018  -0.067  0.00  0.00    -0.035 C 
ATOM     36  C   UNL     1      -0.168   1.548  -0.070  0.00  0.00    +0.011 C 
ATOM     37  C   UNL     1       0.581  -0.474   1.192  0.00  0.00    +0.011 C 
ATOM     38  C   UNL     1      -1.567  -0.522  -0.083  0.00  0.00    +0.011 C 
ENDBRANCH   9  35
TORSDOF 7
