REMARK  Name = ZINC13027959
REMARK  11 active torsions:
REMARK  status: ('A' for Active; 'I' for Inactive)
REMARK    1  A    between atoms: C_1  and  C_2
REMARK    2  A    between atoms: C_2  and  C_3
REMARK    3  A    between atoms: C_3  and  C_4
REMARK    4  A    between atoms: C_8  and  C_12
REMARK    5  A    between atoms: C_9  and  C_11
REMARK    6  A    between atoms: C_13  and  S_15
REMARK    7  A    between atoms: S_15  and  C_16
REMARK    8  A    between atoms: C_16  and  C_17
REMARK    9  A    between atoms: N_19  and  C_20
REMARK   10  A    between atoms: C_23  and  S_26
REMARK   11  A    between atoms: S_26  and  N_29
REMARK                            x       y       z     vdW  Elec       q    Type
REMARK                         _______ _______ _______ _____ _____    ______ ____
ROOT
ATOM      1  C   UNL     1       5.642  -3.857   0.228  0.00  0.00    +0.227 C 
ATOM      2  O   UNL     1       5.851  -5.022   0.492  0.00  0.00    -0.275 OA
ATOM      3  N   UNL     1       6.572  -2.925   0.511  0.00  0.00    -0.285 N 
ATOM      4  H   UNL     1       6.373  -1.985   0.377  0.00  0.00    +0.155 HD
ENDROOT
BRANCH   3   5
ATOM      5  C   UNL     1       7.826  -3.312   0.998  0.00  0.00    +0.034 A 
ATOM      6  C   UNL     1       8.509  -2.495   1.889  0.00  0.00    +0.025 A 
ATOM      7  C   UNL     1       9.743  -2.883   2.372  0.00  0.00    +0.030 A 
ATOM      8  C   UNL     1      10.304  -4.078   1.961  0.00  0.00    +0.106 A 
ATOM      9  C   UNL     1       9.628  -4.891   1.069  0.00  0.00    +0.030 A 
ATOM     10  C   UNL     1       8.391  -4.512   0.587  0.00  0.00    +0.025 A 
BRANCH   8  11
ATOM     11  S   UNL     1      11.882  -4.566   2.575  0.00  0.00    +0.061 S 
ATOM     12  O   UNL     1      12.061  -3.894   3.814  0.00  0.00    -0.153 OA
ATOM     13  O   UNL     1      11.942  -5.981   2.460  0.00  0.00    -0.153 OA
BRANCH  11  14
ATOM     14  N   UNL     1      13.020  -3.958   1.537  0.00  0.00    -0.177 NA
ATOM     15  C   UNL     1      13.479  -4.745   0.384  0.00  0.00    +0.109 C 
ATOM     16  C   UNL     1      13.311  -3.896  -0.885  0.00  0.00    +0.017 C 
ATOM     17  C   UNL     1      14.044  -2.565  -0.701  0.00  0.00    +0.003 C 
ATOM     18  C   UNL     1      13.430  -1.800   0.474  0.00  0.00    +0.017 C 
ATOM     19  C   UNL     1      13.595  -2.624   1.756  0.00  0.00    +0.109 C 
ENDBRANCH  11  14
ENDBRANCH   8  11
ENDBRANCH   3   5
BRANCH   1  20
ATOM     20  C   UNL     1       4.341  -3.453  -0.418  0.00  0.00    +0.171 C 
BRANCH  20  21
ATOM     21  S   UNL     1       3.310  -4.919  -0.668  0.00  0.00    -0.096 S 
BRANCH  21  31
ATOM     22  C   UNL     1       0.818  -2.276  -2.179  0.00  0.00    +0.132 A 
ATOM     23  N   UNL     1      -0.244  -2.961  -2.557  0.00  0.00    -0.225 NA
ATOM     24  C   UNL     1      -0.290  -4.267  -2.387  0.00  0.00    +0.113 A 
ATOM     25  C   UNL     1       0.784  -4.972  -1.800  0.00  0.00    +0.043 A 
ATOM     26  C   UNL     1       0.581  -6.405  -1.682  0.00  0.00    -0.029 A 
ATOM     27  C   UNL     1      -0.567  -6.943  -2.121  0.00  0.00    -0.008 A 
ATOM     28  S   UNL     1      -1.476  -5.538  -2.736  0.00  0.00    -0.074 S 
ATOM     29  C   UNL     1      -0.987  -8.390  -2.099  0.00  0.00    +0.052 C 
ATOM     30  C   UNL     1       1.648  -7.278  -1.073  0.00  0.00    +0.045 C 
ATOM     31  C   UNL     1       1.897  -4.176  -1.414  0.00  0.00    +0.109 A 
ATOM     32  N   UNL     1       1.861  -2.869  -1.628  0.00  0.00    -0.225 NA
BRANCH  22  33
ATOM     33  C   UNL     1       0.844  -0.783  -2.385  0.00  0.00    +0.076 C 
BRANCH  33  35
ATOM     34  C   UNL     1       0.292   1.428  -1.361  0.00  0.00    +0.004 C 
ATOM     35  C   UNL     1       0.266  -0.087  -1.152  0.00  0.00    +0.004 C 
ENDBRANCH  33  35
ENDBRANCH  22  33
ENDBRANCH  21  31
ENDBRANCH  20  21
ENDBRANCH   1  20
TORSDOF 8
