REMARK  Name = ZINC63694441
REMARK  9 active torsions:
REMARK  status: ('A' for Active; 'I' for Inactive)
REMARK    1  A    between atoms: C_4  and  N_7
REMARK    2  A    between atoms: N_10  and  C_13
REMARK    3  A    between atoms: C_13  and  C_15
REMARK    4  A    between atoms: C_13  and  C_33
REMARK    5  A    between atoms: C_15  and  N_16
REMARK    6  A    between atoms: C_17  and  C_19
REMARK    7  A    between atoms: N_21  and  C_22
REMARK    8  A    between atoms: C_22  and  C_23
REMARK    9  A    between atoms: C_23  and  C_24
REMARK                            x       y       z     vdW  Elec       q    Type
REMARK                         _______ _______ _______ _____ _____    ______ ____
ROOT
ATOM      1  N   UNL     1       5.421  -4.369  -2.026  0.00  0.00    -0.306 N 
ATOM      2  C   UNL     1       5.141  -5.643  -1.684  0.00  0.00    +0.299 C 
ATOM      3  O   UNL     1       6.000  -6.339  -1.183  0.00  0.00    -0.265 OA
ATOM      4  H   UNL     1       4.735  -3.813  -2.427  0.00  0.00    +0.149 HD
ENDROOT
BRANCH   2   5
ATOM      5  C   UNL     1       3.774  -6.197  -1.922  0.00  0.00    +0.299 C 
ATOM      6  O   UNL     1       2.916  -5.501  -2.423  0.00  0.00    -0.265 OA
ATOM      7  N   UNL     1       3.494  -7.471  -1.581  0.00  0.00    -0.307 N 
ATOM      8  H   UNL     1       4.181  -8.027  -1.180  0.00  0.00    +0.149 HD
BRANCH   7   9
ATOM      9  C   UNL     1       2.154  -8.014  -1.814  0.00  0.00    +0.109 C 
BRANCH   9  10
ATOM     10  C   UNL     1       2.104  -9.468  -1.340  0.00  0.00    +0.052 C 
BRANCH  10  11
ATOM     11  C   UNL     1       0.725 -10.027  -1.580  0.00  0.00    -0.040 C 
ATOM     12  C   UNL     1       0.314 -10.746  -2.649  0.00  0.00    -0.001 A 
ATOM     13  C   UNL     1       1.001 -11.203  -3.863  0.00  0.00    +0.010 A 
ATOM     14  C   UNL     1       0.309 -11.922  -4.777  0.00  0.00    +0.001 A 
ATOM     15  C   UNL     1      -1.044 -12.239  -4.594  0.00  0.00    +0.002 A 
ATOM     16  C   UNL     1      -1.742 -11.855  -3.505  0.00  0.00    +0.026 A 
ATOM     17  C   UNL     1      -1.115 -11.095  -2.479  0.00  0.00    +0.043 A 
ATOM     18  N   UNL     1      -1.569 -10.611  -1.349  0.00  0.00    -0.380 N 
ATOM     19  C   UNL     1      -0.477  -9.904  -0.670  0.00  0.00    +0.144 C 
ATOM     20  H   UNL     1      -2.474 -10.707  -1.015  0.00  0.00    +0.160 HD
ENDBRANCH  10  11
ENDBRANCH   9  10
ENDBRANCH   7   9
ENDBRANCH   2   5
BRANCH   1  21
ATOM     21  C   UNL     1       6.761  -3.825  -1.793  0.00  0.00    +0.131 C 
BRANCH  21  22
ATOM     22  C   UNL     1       6.777  -2.338  -2.150  0.00  0.00    +0.140 C 
BRANCH  22  26
ATOM     23  N   UNL     1       4.534   0.168   0.360  0.00  0.00    -0.327 N 
ATOM     24  C   UNL     1       4.737  -1.218   0.808  0.00  0.00    +0.120 C 
ATOM     25  C   UNL     1       5.938  -1.802   0.057  0.00  0.00    +0.104 C 
ATOM     26  N   UNL     1       5.733  -1.640  -1.389  0.00  0.00    -0.288 NA
ATOM     27  C   UNL     1       5.668  -0.221  -1.762  0.00  0.00    +0.104 C 
ATOM     28  C   UNL     1       4.450   0.427  -1.085  0.00  0.00    +0.120 C 
BRANCH  23  32
ATOM     29  C   UNL     1       4.189   3.275   3.111  0.00  0.00    +0.000 A 
ATOM     30  C   UNL     1       4.225   3.553   1.757  0.00  0.00    +0.002 A 
ATOM     31  C   UNL     1       4.340   2.525   0.842  0.00  0.00    +0.023 A 
ATOM     32  C   UNL     1       4.419   1.210   1.283  0.00  0.00    +0.030 A 
ATOM     33  C   UNL     1       4.382   0.934   2.644  0.00  0.00    +0.023 A 
ATOM     34  C   UNL     1       4.268   1.967   3.554  0.00  0.00    +0.002 A 
ENDBRANCH  23  32
ENDBRANCH  22  26
BRANCH  22  35
ATOM     35  C   UNL     1       8.124  -1.754  -1.808  0.00  0.00    +0.123 A 
ATOM     36  C   UNL     1       9.071  -1.390  -2.691  0.00  0.00    +0.046 A 
ATOM     37  C   UNL     1      10.163  -0.896  -1.941  0.00  0.00    +0.041 A 
ATOM     38  C   UNL     1       9.818  -0.988  -0.644  0.00  0.00    +0.195 A 
ATOM     39  O   UNL     1       8.579  -1.503  -0.570  0.00  0.00    -0.466 OA
ENDBRANCH  22  35
ENDBRANCH  21  22
ENDBRANCH   1  21
TORSDOF 9
