REMARK  Name = ZINC63440560
REMARK  6 active torsions:
REMARK  status: ('A' for Active; 'I' for Inactive)
REMARK    1  A    between atoms: C_1  and  C_2
REMARK    2  A    between atoms: N_17  and  C_18
REMARK    3  A    between atoms: C_22  and  C_24
REMARK    4  A    between atoms: N_26  and  C_27
REMARK    5  A    between atoms: C_27  and  C_28
REMARK    6  A    between atoms: C_28  and  C_29
REMARK                            x       y       z     vdW  Elec       q    Type
REMARK                         _______ _______ _______ _____ _____    ______ ____
ROOT
ATOM      1  C   UNL     1       1.671   0.340  -1.548  0.00  0.00    +0.042 A 
ATOM      2  C   UNL     1       2.141   1.375  -0.748  0.00  0.00    +0.024 A 
ATOM      3  C   UNL     1       3.193   2.162  -1.177  0.00  0.00    +0.003 A 
ATOM      4  C   UNL     1       3.783   1.927  -2.402  0.00  0.00    +0.013 A 
ATOM      5  C   UNL     1       3.318   0.890  -3.213  0.00  0.00    +0.038 A 
ATOM      6  C   UNL     1       2.260   0.092  -2.778  0.00  0.00    +0.036 A 
ENDROOT
BRANCH   1  22
ATOM      7  C   UNL     1       2.142  -1.558   0.433  0.00  0.00    +0.079 C 
ATOM      8  C   UNL     1       0.895  -1.720  -0.439  0.00  0.00    +0.185 C 
ATOM      9  C   UNL     1      -0.299  -2.104   0.446  0.00  0.00    +0.096 C 
ATOM     10  C   UNL     1      -1.540  -2.120  -0.462  0.00  0.00    +0.114 C 
ATOM     11  C   UNL     1      -1.263  -3.045  -1.626  0.00  0.00    +0.016 A 
ATOM     12  C   UNL     1      -2.330  -3.617  -2.295  0.00  0.00    +0.029 A 
ATOM     13  C   UNL     1      -2.106  -4.462  -3.367  0.00  0.00    +0.042 A 
ATOM     14  C   UNL     1      -0.810  -4.734  -3.771  0.00  0.00    +0.023 A 
ATOM     15  C   UNL     1       0.256  -4.167  -3.104  0.00  0.00    +0.047 A 
ATOM     16  C   UNL     1       0.034  -3.318  -2.023  0.00  0.00    +0.128 A 
ATOM     17  O   UNL     1       1.114  -2.759  -1.389  0.00  0.00    -0.468 OA
ATOM     18 CL   UNL     1      -3.447  -5.179  -4.204  0.00  0.00    -0.084 Cl
ATOM     19  N   UNL     1      -1.718  -0.758  -0.994  0.00  0.00    -0.292 N 
ATOM     20  C   UNL     1      -0.641  -0.022  -1.316  0.00  0.00    +0.310 C 
ATOM     21  O   UNL     1      -0.809   1.075  -1.813  0.00  0.00    -0.252 OA
ATOM     22  N   UNL     1       0.606  -0.455  -1.109  0.00  0.00    -0.216 N 
ATOM     23  H   UNL     1      -2.609  -0.395  -1.112  0.00  0.00    +0.151 HD
ENDBRANCH   1  22
BRANCH   5  24
ATOM     24  C   UNL     1       3.948   0.635  -4.526  0.00  0.00    +0.244 C 
ATOM     25  O   UNL     1       3.542  -0.268  -5.230  0.00  0.00    -0.270 OA
ATOM     26  N   UNL     1       4.974   1.405  -4.942  0.00  0.00    -0.311 N 
ATOM     27  H   UNL     1       5.298   2.126  -4.380  0.00  0.00    +0.149 HD
BRANCH  26  28
ATOM     28  C   UNL     1       5.598   1.152  -6.243  0.00  0.00    +0.109 C 
BRANCH  28  29
ATOM     29  C   UNL     1       6.728   2.159  -6.470  0.00  0.00    +0.052 C 
BRANCH  29  30
ATOM     30  C   UNL     1       7.370   1.899  -7.809  0.00  0.00    -0.040 C 
ATOM     31  C   UNL     1       7.083   2.511  -8.980  0.00  0.00    -0.001 A 
ATOM     32  C   UNL     1       6.124   3.560  -9.346  0.00  0.00    +0.010 A 
ATOM     33  C   UNL     1       6.066   3.977 -10.631  0.00  0.00    +0.001 A 
ATOM     34  C   UNL     1       6.897   3.433 -11.621  0.00  0.00    +0.002 A 
ATOM     35  C   UNL     1       7.803   2.466 -11.362  0.00  0.00    +0.026 A 
ATOM     36  C   UNL     1       7.950   1.954 -10.043  0.00  0.00    +0.043 A 
ATOM     37  N   UNL     1       8.741   1.033  -9.548  0.00  0.00    -0.380 N 
ATOM     38  C   UNL     1       8.470   0.907  -8.112  0.00  0.00    +0.144 C 
ATOM     39  H   UNL     1       9.399   0.524 -10.047  0.00  0.00    +0.160 HD
ENDBRANCH  29  30
ENDBRANCH  28  29
ENDBRANCH  26  28
ENDBRANCH   5  24
TORSDOF 5
