REMARK  Name = ZINC12635834
REMARK  9 active torsions:
REMARK  status: ('A' for Active; 'I' for Inactive)
REMARK    1  A    between atoms: C_1  and  O_2
REMARK    2  A    between atoms: O_2  and  C_3
REMARK    3  A    between atoms: C_6  and  N_9
REMARK    4  A    between atoms: N_9  and  C_10
REMARK    5  A    between atoms: C_10  and  C_12
REMARK    6  A    between atoms: C_10  and  C_24
REMARK    7  A    between atoms: C_18  and  O_23
REMARK    8  A    between atoms: N_26  and  C_27
REMARK    9  A    between atoms: C_33  and  C_35
REMARK                            x       y       z     vdW  Elec       q    Type
REMARK                         _______ _______ _______ _____ _____    ______ ____
ROOT
ATOM      1  C   UNL     1      -3.847  -0.637   0.065  0.00  0.00    +0.204 C 
ENDROOT
BRANCH   1   2
ATOM      2  C   UNL     1      -2.404  -0.206   0.124  0.00  0.00    +0.064 A 
ATOM      3  C   UNL     1      -2.091   1.098   0.224  0.00  0.00    +0.205 A 
ATOM      4  O   UNL     1      -0.830   1.539   0.286  0.00  0.00    -0.462 OA
ATOM      5  C   UNL     1       0.231   0.705   0.240  0.00  0.00    +0.139 A 
ATOM      6  C   UNL     1       1.529   1.197   0.301  0.00  0.00    +0.050 A 
ATOM      7  C   UNL     1       2.597   0.328   0.260  0.00  0.00    +0.049 A 
ATOM      8  C   UNL     1       2.392  -1.045   0.157  0.00  0.00    +0.118 A 
ATOM      9  C   UNL     1       1.107  -1.553   0.095  0.00  0.00    +0.060 A 
ATOM     10  C   UNL     1       0.022  -0.680   0.137  0.00  0.00    +0.068 A 
ATOM     11  C   UNL     1      -1.367  -1.175   0.074  0.00  0.00    +0.198 A 
ATOM     12  O   UNL     1      -1.613  -2.365  -0.017  0.00  0.00    -0.287 OA
BRANCH   8  13
ATOM     13  O   UNL     1       3.457  -1.889   0.117  0.00  0.00    -0.507 OA
ATOM     14  H   UNL     1       3.782  -2.070  -0.775  0.00  0.00    +0.292 HD
ENDBRANCH   8  13
ENDBRANCH   1   2
BRANCH   1  15
ATOM     15  C   UNL     1      -4.212  -0.974  -1.358  0.00  0.00    +0.239 C 
ATOM     16  O   UNL     1      -5.136  -0.404  -1.898  0.00  0.00    -0.273 OA
ATOM     17  N   UNL     1      -3.513  -1.910  -2.029  0.00  0.00    -0.311 N 
ATOM     18  H   UNL     1      -2.774  -2.367  -1.597  0.00  0.00    +0.149 HD
BRANCH  17  19
ATOM     19  C   UNL     1      -3.868  -2.238  -3.412  0.00  0.00    +0.073 C 
ATOM     20  C   UNL     1      -4.987  -3.281  -3.418  0.00  0.00    +0.022 C 
ATOM     21  C   UNL     1      -5.359  -3.624  -4.862  0.00  0.00    +0.002 C 
ATOM     22  C   UNL     1      -4.133  -4.187  -5.583  0.00  0.00    +0.000 C 
ATOM     23  C   UNL     1      -3.014  -3.144  -5.578  0.00  0.00    +0.002 C 
ATOM     24  C   UNL     1      -2.642  -2.802  -4.134  0.00  0.00    +0.022 C 
ENDBRANCH  17  19
ENDBRANCH   1  15
BRANCH   1  25
ATOM     25  N   UNL     1      -4.702   0.453   0.543  0.00  0.00    -0.253 N 
ATOM     26  C   UNL     1      -5.390   0.313   1.694  0.00  0.00    +0.250 C 
ATOM     27  O   UNL     1      -6.009   1.252   2.148  0.00  0.00    -0.272 OA
BRANCH  25  31
ATOM     28  C   UNL     1      -5.003   3.984  -1.653  0.00  0.00    +0.120 A 
ATOM     29  C   UNL     1      -5.673   3.860  -0.444  0.00  0.00    +0.047 A 
ATOM     30  C   UNL     1      -5.574   2.690   0.283  0.00  0.00    +0.027 A 
ATOM     31  C   UNL     1      -4.803   1.639  -0.195  0.00  0.00    +0.038 A 
ATOM     32  C   UNL     1      -4.129   1.766  -1.401  0.00  0.00    +0.027 A 
ATOM     33  C   UNL     1      -4.233   2.934  -2.131  0.00  0.00    +0.047 A 
BRANCH  28  35
ATOM     34  C   UNL     1      -4.385   5.195  -3.603  0.00  0.00    +0.277 C 
ATOM     35  O   UNL     1      -5.101   5.136  -2.368  0.00  0.00    -0.495 OA
ENDBRANCH  28  35
ENDBRANCH  25  31
BRANCH  26  36
ATOM     36  C   UNL     1      -5.392  -1.010   2.415  0.00  0.00    +0.204 C 
ATOM     37  C   UNL     1      -3.999  -1.281   3.015  0.00  0.00    +0.043 C 
ATOM     38  C   UNL     1      -4.263  -1.439   4.532  0.00  0.00    +0.031 C 
ATOM     39  C   UNL     1      -5.774  -1.782   4.564  0.00  0.00    +0.161 C 
ATOM     40  O   UNL     1      -6.327  -0.970   3.506  0.00  0.00    -0.367 OA
ENDBRANCH  26  36
ENDBRANCH   1  25
TORSDOF 8
