REMARK  Name = ZINC37933447
REMARK  6 active torsions:
REMARK  status: ('A' for Active; 'I' for Inactive)
REMARK    1  A    between atoms: C_1  and  C_2
REMARK    2  A    between atoms: N_4  and  C_5
REMARK    3  A    between atoms: C_10  and  O_11
REMARK    4  A    between atoms: O_11  and  C_12
REMARK    5  A    between atoms: C_15  and  C_19
REMARK    6  A    between atoms: C_17  and  N_18
REMARK                            x       y       z     vdW  Elec       q    Type
REMARK                         _______ _______ _______ _____ _____    ______ ____
ROOT
ATOM      1  O   UNL     1       0.188  -1.976  -3.614  0.00  0.00    -0.452 OA
ENDROOT
BRANCH   1   7
ATOM      2  C   UNL     1       0.114  -2.068  -1.232  0.00  0.00    +0.076 A 
ATOM      3  C   UNL     1       0.132  -2.818  -0.065  0.00  0.00    +0.027 A 
ATOM      4  C   UNL     1       0.253  -4.193  -0.130  0.00  0.00    +0.002 A 
ATOM      5  C   UNL     1       0.355  -4.825  -1.356  0.00  0.00    +0.004 A 
ATOM      6  C   UNL     1       0.337  -4.084  -2.523  0.00  0.00    +0.048 A 
ATOM      7  C   UNL     1       0.211  -2.705  -2.467  0.00  0.00    +0.150 A 
BRANCH   2  11
ATOM      8  C   UNL     1       0.509   1.513  -0.135  0.00  0.00    +0.109 C 
ATOM      9  C   UNL     1       0.557   0.007  -0.152  0.00  0.00    +0.214 C 
ATOM     10  O   UNL     1       1.106  -0.593   0.748  0.00  0.00    -0.276 OA
ATOM     11  N   UNL     1      -0.009  -0.674  -1.168  0.00  0.00    -0.283 N 
ATOM     12  H   UNL     1      -0.501  -0.198  -1.856  0.00  0.00    +0.155 HD
ENDBRANCH   2  11
ENDBRANCH   1   7
BRANCH   1  13
ATOM     13  C   UNL     1       0.182  -2.645  -4.795  0.00  0.00    +0.149 A 
ATOM     14  C   UNL     1       1.362  -2.797  -5.511  0.00  0.00    +0.049 A 
ATOM     15  C   UNL     1       1.362  -3.476  -6.709  0.00  0.00    +0.019 A 
ATOM     16  C   UNL     1       0.172  -4.014  -7.209  0.00  0.00    +0.065 A 
ATOM     17  C   UNL     1      -1.018  -3.862  -6.489  0.00  0.00    +0.041 A 
ATOM     18  C   UNL     1      -1.010  -3.184  -5.284  0.00  0.00    +0.068 A 
BRANCH  18  19
ATOM     19  N   UNL     1      -2.197  -3.034  -4.557  0.00  0.00    -0.355 N 
ATOM     20  H   UNL     1      -2.191  -2.556  -3.713  0.00  0.00    +0.142 HD
ATOM     21  H   UNL     1      -3.024  -3.409  -4.897  0.00  0.00    +0.142 HD
ENDBRANCH  18  19
BRANCH  16  22
ATOM     22  C   UNL     1       0.171  -4.738  -8.491  0.00  0.00    +0.387 C 
ATOM     23  O   UNL     1       1.211  -4.870  -9.120  0.00  0.00    -0.241 OA
ATOM     24  O   UNL     1      -0.872  -5.208  -8.927  0.00  0.00    -0.241 OA
ENDBRANCH  16  22
ENDBRANCH   1  13
TORSDOF 5
