REMARK  Name = ZINC04998650
REMARK  3 active torsions:
REMARK  status: ('A' for Active; 'I' for Inactive)
REMARK    1  A    between atoms: C_8  and  C_13
REMARK    2  A    between atoms: C_13  and  C_14
REMARK    3  A    between atoms: N_16  and  C_17
REMARK                            x       y       z     vdW  Elec       q    Type
REMARK                         _______ _______ _______ _____ _____    ______ ____
ROOT
ATOM      1  C   UNL     1      -3.880   2.079  -0.897  0.00  0.00    +0.002 A 
ATOM      2  C   UNL     1      -3.829   3.409  -0.522  0.00  0.00    +0.004 A 
ATOM      3  C   UNL     1      -2.645   3.959  -0.068  0.00  0.00    +0.048 A 
ATOM      4  C   UNL     1      -1.501   3.177   0.016  0.00  0.00    +0.152 A 
ATOM      5  C   UNL     1      -1.556   1.837  -0.362  0.00  0.00    +0.071 A 
ATOM      6  C   UNL     1      -2.747   1.292  -0.815  0.00  0.00    +0.026 A 
ATOM      7  N   UNL     1      -0.413   1.029  -0.268  0.00  0.00    -0.328 N 
ATOM      8  C   UNL     1       0.890   1.700  -0.103  0.00  0.00    +0.189 C 
ATOM      9  C   UNL     1       0.650   2.894   0.802  0.00  0.00    +0.333 C 
ATOM     10  O   UNL     1       1.321   3.080   1.790  0.00  0.00    -0.248 OA
ATOM     11  O   UNL     1      -0.343   3.738   0.459  0.00  0.00    -0.423 OA
ATOM     12  H   UNL     1      -0.477   0.062  -0.314  0.00  0.00    +0.147 HD
ENDROOT
BRANCH   8  13
ATOM     13  C   UNL     1       1.415   2.167  -1.462  0.00  0.00    +0.129 C 
BRANCH  13  14
ATOM     14  C   UNL     1       1.698   0.968  -2.330  0.00  0.00    +0.220 C 
ATOM     15  O   UNL     1       1.500  -0.150  -1.903  0.00  0.00    -0.275 OA
ATOM     16  N   UNL     1       2.172   1.137  -3.580  0.00  0.00    -0.285 N 
ATOM     17  H   UNL     1       2.258   2.030  -3.949  0.00  0.00    +0.155 HD
BRANCH  16  18
ATOM     18  C   UNL     1       2.540   0.025  -4.346  0.00  0.00    +0.033 A 
ATOM     19  C   UNL     1       3.084  -1.094  -3.731  0.00  0.00    +0.025 A 
ATOM     20  C   UNL     1       3.441  -2.192  -4.489  0.00  0.00    +0.022 A 
ATOM     21  C   UNL     1       3.267  -2.173  -5.861  0.00  0.00    +0.041 A 
ATOM     22  C   UNL     1       2.730  -1.057  -6.478  0.00  0.00    +0.022 A 
ATOM     23  C   UNL     1       2.366   0.042  -5.724  0.00  0.00    +0.025 A 
ATOM     24 CL   UNL     1       3.724  -3.552  -6.812  0.00  0.00    -0.084 Cl
ENDBRANCH  16  18
ENDBRANCH  13  14
ENDBRANCH   8  13
TORSDOF 3
