REMARK  Name = ZINC08859977
REMARK  9 active torsions:
REMARK  status: ('A' for Active; 'I' for Inactive)
REMARK    1  A    between atoms: C_1  and  C_2
REMARK    2  A    between atoms: C_4  and  C_31
REMARK    3  A    between atoms: C_5  and  S_9
REMARK    4  A    between atoms: C_6  and  C_8
REMARK    5  A    between atoms: S_9  and  N_12
REMARK    6  A    between atoms: N_12  and  C_13
REMARK    7  A    between atoms: C_15  and  S_24
REMARK    8  A    between atoms: C_16  and  O_23
REMARK    9  A    between atoms: S_24  and  C_25
REMARK                            x       y       z     vdW  Elec       q    Type
REMARK                         _______ _______ _______ _____ _____    ______ ____
ROOT
ATOM      1  C   UNL     1       2.337  -5.739   0.071  0.00  0.00    +0.057 A 
ATOM      2  C   UNL     1       2.080  -5.469   1.397  0.00  0.00    +0.044 A 
ATOM      3  C   UNL     1       3.081  -4.964   2.230  0.00  0.00    +0.059 A 
ATOM      4  C   UNL     1       4.352  -4.723   1.741  0.00  0.00    +0.138 A 
ATOM      5  C   UNL     1       4.641  -4.989   0.391  0.00  0.00    +0.026 A 
ATOM      6  C   UNL     1       3.626  -5.507  -0.453  0.00  0.00    +0.008 A 
ATOM      7  C   UNL     1       3.921  -5.777  -1.799  0.00  0.00    +0.010 A 
ATOM      8  C   UNL     1       5.175  -5.543  -2.275  0.00  0.00    +0.001 A 
ATOM      9  C   UNL     1       6.175  -5.038  -1.445  0.00  0.00    +0.001 A 
ATOM     10  C   UNL     1       5.923  -4.755  -0.138  0.00  0.00    +0.012 A 
ENDROOT
BRANCH   1  11
ATOM     11  N   UNL     1       1.326  -6.245  -0.750  0.00  0.00    -0.216 N 
ATOM     12  H   UNL     1       0.804  -5.643  -1.303  0.00  0.00    +0.174 HD
BRANCH  11  13
ATOM     13  S   UNL     1       1.020  -7.872  -0.779  0.00  0.00    +0.073 S 
ATOM     14  O   UNL     1       2.272  -8.517  -0.969  0.00  0.00    -0.150 OA
ATOM     15  O   UNL     1      -0.077  -8.063  -1.662  0.00  0.00    -0.150 OA
BRANCH  13  20
ATOM     16  C   UNL     1      -0.903  -9.422   4.726  0.00  0.00    +0.044 C 
ATOM     17  C   UNL     1      -0.423  -9.035   3.350  0.00  0.00    -0.050 A 
ATOM     18  C   UNL     1       0.924  -9.104   3.044  0.00  0.00    +0.008 A 
ATOM     19  C   UNL     1       1.364  -8.749   1.783  0.00  0.00    -0.023 A 
ATOM     20  C   UNL     1       0.459  -8.325   0.828  0.00  0.00    +0.114 A 
ATOM     21  C   UNL     1      -0.888  -8.258   1.134  0.00  0.00    -0.023 A 
ATOM     22  C   UNL     1      -1.329  -8.617   2.394  0.00  0.00    +0.008 A 
ATOM     23  C   UNL     1      -1.875  -7.796   0.093  0.00  0.00    +0.046 C 
ATOM     24  C   UNL     1       2.832  -8.823   1.449  0.00  0.00    +0.046 C 
ENDBRANCH  13  20
ENDBRANCH  11  13
ENDBRANCH   1  11
BRANCH   4  25
ATOM     25  O   UNL     1       5.318  -4.230   2.563  0.00  0.00    -0.505 OA
ATOM     26  H   UNL     1       5.836  -4.910   3.014  0.00  0.00    +0.292 HD
ENDBRANCH   4  25
BRANCH   3  27
ATOM     27  S   UNL     1       2.720  -4.629   3.922  0.00  0.00    -0.047 S 
BRANCH  27  28
ATOM     28  C   UNL     1       2.622  -2.871   3.997  0.00  0.00    +0.189 A 
ATOM     29  H   UNL     1       2.364  -2.460   6.022  0.00  0.00    +0.191 HD
ATOM     30  N   UNL     1       2.695  -2.046   2.974  0.00  0.00    -0.209 NA
ATOM     31  C   UNL     1       2.583  -0.788   3.401  0.00  0.00    +0.245 A 
ATOM     32  N   UNL     1       2.438  -0.789   4.699  0.00  0.00    -0.160 NA
ATOM     33  N   UNL     1       2.453  -2.131   5.114  0.00  0.00    -0.254 N 
ENDBRANCH  27  28
ENDBRANCH   3  27
TORSDOF 6
