REMARK  Name = ZINC05634067
REMARK  7 active torsions:
REMARK  status: ('A' for Active; 'I' for Inactive)
REMARK    1  A    between atoms: C_3  and  N_26
REMARK    2  A    between atoms: C_6  and  C_7
REMARK    3  A    between atoms: C_7  and  N_50
REMARK    4  A    between atoms: C_10  and  C_13
REMARK    5  A    between atoms: N_15  and  N_16
REMARK    6  A    between atoms: C_17  and  C_18
REMARK    7  A    between atoms: C_23  and  O_24
REMARK                            x       y       z     vdW  Elec       q    Type
REMARK                         _______ _______ _______ _____ _____    ______ ____
ROOT
ATOM      1  C   UNL     1       2.157   3.358   2.199  0.00  0.00    -0.078 C 
ATOM      2  C   UNL     1       2.037   3.781   3.665  0.00  0.00    -0.006 C 
ATOM      3  C   UNL     1       2.256   5.292   3.775  0.00  0.00    +0.073 C 
ATOM      4  C   UNL     1       1.232   6.013   2.893  0.00  0.00    -0.006 C 
ATOM      5  C   UNL     1       1.376   5.526   1.450  0.00  0.00    -0.078 C 
ATOM      6  N   UNL     1       1.130   4.069   1.409  0.00  0.00    +0.382 N 
ATOM      7  H   UNL     1       0.206   3.875   1.813  0.00  0.00    -0.081 HD
ENDROOT
BRANCH   3   8
ATOM      8  C   UNL     1       2.079   5.724   5.208  0.00  0.00    +0.235 C 
ATOM      9  O   UNL     1       1.219   6.529   5.497  0.00  0.00    -0.274 OA
ATOM     10  N   UNL     1       2.876   5.215   6.168  0.00  0.00    -0.207 N 
ATOM     11  H   UNL     1       3.563   4.571   5.937  0.00  0.00    +0.177 HD
BRANCH  10  12
ATOM     12  N   UNL     1       2.712   5.617   7.500  0.00  0.00    -0.188 NA
ATOM     13  C   UNL     1       3.479   5.127   8.425  0.00  0.00    +0.142 C 
BRANCH  13  14
ATOM     14  C   UNL     1       3.307   5.549   9.826  0.00  0.00    +0.037 A 
ATOM     15  C   UNL     1       4.131   5.024  10.825  0.00  0.00    +0.033 A 
ATOM     16  C   UNL     1       3.964   5.424  12.135  0.00  0.00    +0.042 A 
ATOM     17  C   UNL     1       2.982   6.344  12.464  0.00  0.00    +0.023 A 
ATOM     18  C   UNL     1       2.161   6.871  11.485  0.00  0.00    +0.047 A 
ATOM     19  C   UNL     1       2.318   6.483  10.164  0.00  0.00    +0.126 A 
ATOM     20 CL   UNL     1       4.988   4.771  13.375  0.00  0.00    -0.084 Cl
BRANCH  19  21
ATOM     21  O   UNL     1       1.515   7.004   9.200  0.00  0.00    -0.506 OA
ATOM     22  H   UNL     1       0.705   6.498   9.049  0.00  0.00    +0.292 HD
ENDBRANCH  19  21
ENDBRANCH  13  14
ENDBRANCH  10  12
ENDBRANCH   3   8
BRANCH   6  23
ATOM     23  C   UNL     1       1.151   3.592   0.010  0.00  0.00    -0.043 C 
BRANCH  23  29
ATOM     24  C   UNL     1      -0.017   1.378   0.010  0.00  0.00    +0.004 A 
ATOM     25  C   UNL     1       0.002  -0.004   0.002  0.00  0.00    +0.033 A 
ATOM     26  C   UNL     1       1.208  -0.679  -0.014  0.00  0.00    +0.126 A 
ATOM     27  C   UNL     1       2.396   0.029  -0.021  0.00  0.00    +0.033 A 
ATOM     28  C   UNL     1       2.377   1.411  -0.014  0.00  0.00    +0.004 A 
ATOM     29  C   UNL     1       1.171   2.086   0.002  0.00  0.00    -0.064 A 
BRANCH  26  30
ATOM     30  N   UNL     1       1.228  -2.159  -0.022  0.00  0.00    +0.056 N 
ATOM     31  O   UNL     1       0.182  -2.782  -0.015  0.00  0.00    -0.126 OA
ATOM     32  O   UNL     1       2.291  -2.753  -0.036  0.00  0.00    -0.126 OA
ENDBRANCH  26  30
ENDBRANCH  23  29
ENDBRANCH   6  23
TORSDOF 7
