REMARK  Name = ZINC37225998
REMARK  6 active torsions:
REMARK  status: ('A' for Active; 'I' for Inactive)
REMARK    1  A    between atoms: C_1  and  C_2
REMARK    2  A    between atoms: C_2  and  O_3
REMARK    3  A    between atoms: O_3  and  C_4
REMARK    4  A    between atoms: C_9  and  C_10
REMARK    5  A    between atoms: C_10  and  C_12
REMARK    6  A    between atoms: C_10  and  N_19
REMARK                            x       y       z     vdW  Elec       q    Type
REMARK                         _______ _______ _______ _____ _____    ______ ____
ROOT
ATOM      1  C   UNL     1       1.989  -1.396  -3.491  0.00  0.00    -0.010 C 
ENDROOT
BRANCH   1   7
ATOM      2  C   UNL     1       0.777  -1.810  -1.336  0.00  0.00    +0.122 A 
ATOM      3  C   UNL     1       0.243  -2.669  -0.386  0.00  0.00    +0.047 A 
ATOM      4  C   UNL     1       0.351  -4.035  -0.553  0.00  0.00    +0.019 A 
ATOM      5  C   UNL     1       0.992  -4.549  -1.667  0.00  0.00    +0.018 A 
ATOM      6  C   UNL     1       1.526  -3.694  -2.615  0.00  0.00    +0.021 A 
ATOM      7  C   UNL     1       1.414  -2.327  -2.455  0.00  0.00    -0.015 A 
ATOM      8 BR   UNL     1       1.140  -6.420  -1.893  0.00  0.00    -0.050 Br
BRANCH   2   9
ATOM      9  O   UNL     1       0.671  -0.465  -1.174  0.00  0.00    -0.492 OA
BRANCH   9  11
ATOM     10  C   UNL     1      -0.019   1.526   0.010  0.00  0.00    +0.048 C 
ATOM     11  C   UNL     1       0.002  -0.004   0.002  0.00  0.00    +0.225 C 
ENDBRANCH   9  11
ENDBRANCH   2   9
ENDBRANCH   1   7
BRANCH   1  12
ATOM     12  C   UNL     1       3.375  -0.976  -3.075  0.00  0.00    -0.057 A 
ATOM     13  C   UNL     1       4.448  -1.819  -3.294  0.00  0.00    +0.003 A 
ATOM     14  C   UNL     1       5.720  -1.433  -2.913  0.00  0.00    +0.015 A 
ATOM     15  C   UNL     1       5.918  -0.203  -2.312  0.00  0.00    +0.018 A 
ATOM     16  C   UNL     1       4.843   0.641  -2.093  0.00  0.00    +0.015 A 
ATOM     17  C   UNL     1       3.573   0.256  -2.480  0.00  0.00    +0.003 A 
ATOM     18 BR   UNL     1       7.657   0.326  -1.790  0.00  0.00    -0.050 Br
ENDBRANCH   1  12
BRANCH   1  19
ATOM     19  N   UNL     1       2.055  -2.087  -4.786  0.00  0.00    +0.385 N 
ATOM     20  H   UNL     1       2.441  -1.464  -5.480  0.00  0.00    -0.089 HD
ATOM     21  H   UNL     1       2.644  -2.903  -4.703  0.00  0.00    -0.089 HD
ATOM     22  H   UNL     1       1.128  -2.369  -5.065  0.00  0.00    -0.089 HD
ENDBRANCH   1  19
TORSDOF 5
