REMARK  Name = ZINC35105336
REMARK  10 active torsions:
REMARK  status: ('A' for Active; 'I' for Inactive)
REMARK    1  A    between atoms: C_1  and  C_2
REMARK    2  A    between atoms: C_2  and  C_3
REMARK    3  A    between atoms: C_3  and  C_5
REMARK    4  A    between atoms: C_3  and  N_6
REMARK    5  A    between atoms: C_7  and  C_9
REMARK    6  A    between atoms: N_17  and  S_20
REMARK    7  A    between atoms: S_20  and  C_23
REMARK    8  A    between atoms: C_24  and  C_31
REMARK    9  A    between atoms: C_26  and  C_30
REMARK   10  A    between atoms: C_28  and  C_29
REMARK                            x       y       z     vdW  Elec       q    Type
REMARK                         _______ _______ _______ _____ _____    ______ ____
ROOT
ATOM      1  C   UNL     1       5.729  -0.953  -1.346  0.00  0.00    +0.028 C 
ATOM      2  C   UNL     1       5.604   0.396  -0.574  0.00  0.00    +0.061 C 
ATOM      3  S   UNL     1       6.747   1.429  -1.591  0.00  0.00    -0.174 S 
ATOM      4  C   UNL     1       6.743   0.404  -3.114  0.00  0.00    -0.016 C 
ATOM      5  N   UNL     1       5.776  -0.665  -2.793  0.00  0.00    +0.397 N 
ATOM      6  C   UNL     1       8.132  -0.166  -3.356  0.00  0.00    +0.015 C 
ATOM      7  C   UNL     1       8.113  -1.044  -4.613  0.00  0.00    +0.109 C 
ATOM      8  N   UNL     1       7.553  -0.262  -5.724  0.00  0.00    -0.177 NA
ATOM      9  C   UNL     1       6.235   0.366  -5.556  0.00  0.00    +0.109 C 
ATOM     10  C   UNL     1       6.264   1.236  -4.293  0.00  0.00    +0.015 C 
ATOM     11  H   UNL     1       6.042  -1.504  -3.287  0.00  0.00    -0.083 HD
ATOM     12  H   UNL     1       4.857  -0.382  -3.102  0.00  0.00    -0.083 HD
ENDROOT
BRANCH   1  14
ATOM     13  N   UNL     1       4.299  -2.219   0.225  0.00  0.00    -0.314 N 
ATOM     14  C   UNL     1       4.538  -1.824  -1.041  0.00  0.00    +0.200 C 
ATOM     15  O   UNL     1       3.794  -2.169  -1.934  0.00  0.00    -0.278 OA
ATOM     16  H   UNL     1       4.894  -1.943   0.940  0.00  0.00    +0.149 HD
BRANCH  13  17
ATOM     17  C   UNL     1       3.141  -3.066   0.522  0.00  0.00    +0.070 C 
ATOM     18  C   UNL     1       3.509  -4.533   0.289  0.00  0.00    +0.028 C 
BRANCH  17  20
ATOM     19  C   UNL     1       2.240  -1.433   2.185  0.00  0.00    +0.005 C 
ATOM     20  C   UNL     1       2.726  -2.870   1.982  0.00  0.00    +0.018 C 
ENDBRANCH  17  20
ENDBRANCH  13  17
ENDBRANCH   1  14
BRANCH   8  21
ATOM     21  S   UNL     1       8.392  -0.092  -7.142  0.00  0.00    +0.061 S 
ATOM     22  O   UNL     1       7.915   1.097  -7.756  0.00  0.00    -0.153 OA
ATOM     23  O   UNL     1       9.764  -0.290  -6.828  0.00  0.00    -0.153 OA
BRANCH  21  24
ATOM     24  C   UNL     1       7.918  -1.426  -8.191  0.00  0.00    +0.111 A 
ATOM     25  C   UNL     1       6.972  -1.226  -9.178  0.00  0.00    -0.024 A 
ATOM     26  C   UNL     1       6.600  -2.272 -10.002  0.00  0.00    +0.008 A 
ATOM     27  C   UNL     1       7.175  -3.519  -9.838  0.00  0.00    -0.050 A 
ATOM     28  C   UNL     1       8.122  -3.719  -8.851  0.00  0.00    +0.008 A 
ATOM     29  C   UNL     1       8.497  -2.671  -8.030  0.00  0.00    -0.024 A 
ATOM     30  C   UNL     1       9.533  -2.888  -6.958  0.00  0.00    +0.046 C 
ATOM     31  C   UNL     1       6.769  -4.660 -10.735  0.00  0.00    +0.044 C 
ATOM     32  C   UNL     1       6.345   0.133  -9.357  0.00  0.00    +0.046 C 
ENDBRANCH  21  24
ENDBRANCH   8  21
TORSDOF 5
