REMARK  Name = ZINC36024706
REMARK  12 active torsions:
REMARK  status: ('A' for Active; 'I' for Inactive)
REMARK    1  A    between atoms: C_1  and  C_2
REMARK    2  A    between atoms: C_2  and  O_3
REMARK    3  A    between atoms: O_3  and  C_4
REMARK    4  A    between atoms: C_4  and  C_6
REMARK    5  A    between atoms: C_7  and  C_24
REMARK    6  A    between atoms: N_8  and  C_21
REMARK    7  A    between atoms: C_12  and  C_14
REMARK    8  A    between atoms: C_21  and  C_22
REMARK    9  A    between atoms: C_24  and  N_25
REMARK   10  A    between atoms: N_34  and  C_35
REMARK   11  A    between atoms: C_35  and  C_36
REMARK   12  A    between atoms: C_35  and  C_37
REMARK                            x       y       z     vdW  Elec       q    Type
REMARK                         _______ _______ _______ _____ _____    ______ ____
ROOT
ATOM      1  C   UNL     1      -2.989  -3.167  -0.106  0.00  0.00    +0.077 C 
ATOM      2  C   UNL     1      -3.323  -4.310  -0.743  0.00  0.00    +0.011 C 
ATOM      3  N   UNL     1      -4.595  -4.521  -1.192  0.00  0.00    -0.257 N 
ATOM      4  C   UNL     1      -5.590  -3.637  -1.045  0.00  0.00    +0.307 C 
ATOM      5  O   UNL     1      -6.691  -3.914  -1.479  0.00  0.00    -0.252 OA
ATOM      6  N   UNL     1      -5.411  -2.451  -0.430  0.00  0.00    -0.288 N 
ATOM      7  C   UNL     1      -4.074  -2.130   0.097  0.00  0.00    +0.145 C 
ATOM      8  H   UNL     1      -6.146  -1.826  -0.335  0.00  0.00    +0.151 HD
ENDROOT
BRANCH   7   9
ATOM      9  C   UNL     1      -3.620  -0.848  -0.552  0.00  0.00    -0.004 A 
ATOM     10  C   UNL     1      -3.960  -0.580  -1.865  0.00  0.00    +0.007 A 
ATOM     11  C   UNL     1      -3.543   0.596  -2.461  0.00  0.00    +0.000 A 
ATOM     12  C   UNL     1      -2.786   1.504  -1.745  0.00  0.00    +0.001 A 
ATOM     13  C   UNL     1      -2.446   1.237  -0.432  0.00  0.00    +0.020 A 
ATOM     14  C   UNL     1      -2.868   0.063   0.167  0.00  0.00    +0.046 A 
ATOM     15 CL   UNL     1      -2.446  -0.270   1.817  0.00  0.00    -0.083 Cl
ENDBRANCH   7   9
BRANCH   1  16
ATOM     16  C   UNL     1      -1.671  -2.947   0.360  0.00  0.00    +0.339 C 
ATOM     17  O   UNL     1      -0.929  -2.197  -0.245  0.00  0.00    -0.245 OA
BRANCH  16  18
ATOM     18  O   UNL     1      -1.238  -3.571   1.476  0.00  0.00    -0.462 OA
BRANCH  18  20
ATOM     19  C   UNL     1       0.429  -4.112   3.140  0.00  0.00    +0.048 C 
ATOM     20  C   UNL     1       0.065  -3.223   1.949  0.00  0.00    +0.229 C 
ENDBRANCH  18  20
ENDBRANCH  16  18
ENDBRANCH   1  16
BRANCH   3  21
ATOM     21  C   UNL     1      -4.887  -5.784  -1.875  0.00  0.00    +0.141 C 
BRANCH  21  22
ATOM     22  C   UNL     1      -5.459  -6.768  -0.887  0.00  0.00    -0.015 C 
ATOM     23  C   UNL     1      -6.627  -7.316  -1.111  0.00  0.00    +0.005 C 
ENDBRANCH  21  22
ENDBRANCH   3  21
BRANCH   2  24
ATOM     24  C   UNL     1      -2.274  -5.370  -0.961  0.00  0.00    -0.026 C 
BRANCH  24  25
ATOM     25  N   UNL     1      -1.859  -5.366  -2.370  0.00  0.00    +0.384 N 
ATOM     26  C   UNL     1      -1.064  -6.566  -2.621  0.00  0.00    -0.077 C 
ATOM     27  C   UNL     1      -1.228  -6.980  -4.066  0.00  0.00    +0.000 C 
ATOM     28  C   UNL     1      -0.096  -6.362  -4.908  0.00  0.00    +0.107 C 
ATOM     29  N   UNL     1       0.191  -4.979  -4.477  0.00  0.00    -0.287 N 
ATOM     30  C   UNL     1      -0.858  -4.039  -4.141  0.00  0.00    +0.091 C 
ATOM     31  C   UNL     1      -1.197  -4.147  -2.636  0.00  0.00    -0.059 C 
ATOM     32  C   UNL     1       1.474  -4.577  -4.395  0.00  0.00    +0.302 C 
ATOM     33  O   UNL     1       2.368  -5.318  -4.757  0.00  0.00    -0.253 OA
ATOM     34  N   UNL     1       1.768  -3.354  -3.911  0.00  0.00    -0.297 N 
ATOM     35  H   UNL     1       1.054  -2.736  -3.689  0.00  0.00    +0.150 HD
ATOM     36  H   UNL     1      -2.688  -5.410  -2.945  0.00  0.00    -0.081 HD
BRANCH  34  37
ATOM     37  C   UNL     1       3.165  -2.959  -3.718  0.00  0.00    +0.068 C 
ATOM     38  C   UNL     1       3.276  -1.434  -3.776  0.00  0.00    +0.027 C 
ATOM     39  C   UNL     1       3.653  -3.454  -2.355  0.00  0.00    +0.027 C 
ENDBRANCH  34  37
ENDBRANCH  24  25
ENDBRANCH   2  24
TORSDOF 9
