REMARK  Name = ZINC34757491
REMARK  12 active torsions:
REMARK  status: ('A' for Active; 'I' for Inactive)
REMARK    1  A    between atoms: C_1  and  C_2
REMARK    2  A    between atoms: C_2  and  C_3
REMARK    3  A    between atoms: C_3  and  C_4
REMARK    4  A    between atoms: C_9  and  S_13
REMARK    5  A    between atoms: S_13  and  C_14
REMARK    6  A    between atoms: C_14  and  C_15
REMARK    7  A    between atoms: N_25  and  C_28
REMARK    8  A    between atoms: C_28  and  C_29
REMARK    9  A    between atoms: N_31  and  C_32
REMARK   10  A    between atoms: N_31  and  C_34
REMARK   11  A    between atoms: C_32  and  C_33
REMARK   12  A    between atoms: C_34  and  C_35
REMARK                            x       y       z     vdW  Elec       q    Type
REMARK                         _______ _______ _______ _____ _____    ______ ____
ROOT
ATOM      1  C   UNL     1      -1.641  -5.897   1.465  0.00  0.00    -0.007 A 
ATOM      2  C   UNL     1      -1.874  -5.641   0.170  0.00  0.00    +0.024 A 
ATOM      3  C   UNL     1      -0.757  -5.602  -0.759  0.00  0.00    +0.048 A 
ATOM      4  C   UNL     1      -0.748  -5.354  -2.160  0.00  0.00    +0.134 A 
ATOM      5  N   UNL     1       0.401  -5.366  -2.813  0.00  0.00    -0.206 NA
ATOM      6  C   UNL     1       1.557  -5.604  -2.203  0.00  0.00    +0.191 A 
ATOM      7  N   UNL     1       1.610  -5.842  -0.899  0.00  0.00    -0.215 NA
ATOM      8  C   UNL     1       0.506  -5.846  -0.177  0.00  0.00    +0.115 A 
ATOM      9  S   UNL     1       0.129  -6.100   1.537  0.00  0.00    -0.073 S 
ATOM     10  N   UNL     1      -1.931  -5.102  -2.832  0.00  0.00    -0.318 N 
ATOM     11  C   UNL     1      -2.438  -3.729  -2.983  0.00  0.00    +0.088 C 
ATOM     12  C   UNL     1      -2.768  -3.494  -4.460  0.00  0.00    -0.059 C 
ATOM     13  N   UNL     1      -3.692  -4.536  -4.926  0.00  0.00    +0.387 N 
ATOM     14  C   UNL     1      -3.034  -5.847  -4.873  0.00  0.00    -0.059 C 
ATOM     15  C   UNL     1      -2.714  -6.199  -3.421  0.00  0.00    +0.088 C 
ATOM     16  H   UNL     1      -4.510  -4.547  -4.336  0.00  0.00    -0.081 HD
ENDROOT
BRANCH   1  17
ATOM     17  C   UNL     1      -2.637  -5.985   2.592  0.00  0.00    +0.042 C 
BRANCH  17  19
ATOM     18  C   UNL     1      -4.138  -7.518   3.873  0.00  0.00    +0.004 C 
ATOM     19  C   UNL     1      -3.126  -7.428   2.728  0.00  0.00    +0.002 C 
ENDBRANCH  17  19
ENDBRANCH   1  17
BRANCH   6  20
ATOM     20  S   UNL     1       3.047  -5.605  -3.143  0.00  0.00    -0.081 S 
BRANCH  20  21
ATOM     21  C   UNL     1       4.337  -5.966  -1.920  0.00  0.00    +0.112 C 
BRANCH  21  22
ATOM     22  C   UNL     1       5.681  -5.996  -2.602  0.00  0.00    -0.037 A 
ATOM     23  C   UNL     1       6.163  -7.181  -3.127  0.00  0.00    +0.007 A 
ATOM     24  C   UNL     1       7.394  -7.210  -3.753  0.00  0.00    +0.038 A 
ATOM     25  C   UNL     1       8.146  -6.051  -3.854  0.00  0.00    +0.123 A 
ATOM     26  C   UNL     1       7.663  -4.865  -3.328  0.00  0.00    +0.038 A 
ATOM     27  C   UNL     1       6.428  -4.838  -2.707  0.00  0.00    +0.007 A 
ATOM     28  F   UNL     1       9.351  -6.078  -4.465  0.00  0.00    -0.205 F 
ENDBRANCH  21  22
ENDBRANCH  20  21
ENDBRANCH   6  20
BRANCH  13  29
ATOM     29  C   UNL     1      -4.095  -4.247  -6.309  0.00  0.00    +0.019 C 
BRANCH  29  30
ATOM     30  C   UNL     1      -5.136  -5.245  -6.747  0.00  0.00    +0.199 C 
ATOM     31  O   UNL     1      -5.506  -6.111  -5.983  0.00  0.00    -0.278 OA
ATOM     32  N   UNL     1      -5.656  -5.175  -7.989  0.00  0.00    -0.304 N 
BRANCH  32  33
ATOM     33  C   UNL     1      -6.668  -6.145  -8.415  0.00  0.00    +0.104 C 
ATOM     34  C   UNL     1      -8.061  -5.610  -8.078  0.00  0.00    +0.024 C 
ENDBRANCH  32  33
BRANCH  32  35
ATOM     35  C   UNL     1      -5.209  -4.130  -8.912  0.00  0.00    +0.104 C 
ATOM     36  C   UNL     1      -4.013  -4.638  -9.719  0.00  0.00    +0.024 C 
ENDBRANCH  32  35
ENDBRANCH  29  30
ENDBRANCH  13  29
TORSDOF 9
