REMARK  Name = ZINC09126843
REMARK  8 active torsions:
REMARK  status: ('A' for Active; 'I' for Inactive)
REMARK    1  A    between atoms: C_1  and  O_2
REMARK    2  A    between atoms: O_2  and  C_3
REMARK    3  A    between atoms: C_6  and  C_9
REMARK    4  A    between atoms: C_9  and  C_27
REMARK    5  A    between atoms: N_12  and  C_16
REMARK    6  A    between atoms: C_16  and  C_17
REMARK    7  A    between atoms: C_30  and  O_33
REMARK    8  A    between atoms: O_33  and  C_34
REMARK                            x       y       z     vdW  Elec       q    Type
REMARK                         _______ _______ _______ _____ _____    ______ ____
ROOT
ATOM      1  C   UNL     1       3.020   4.077   3.377  0.00  0.00    +0.164 C 
ATOM      2  C   UNL     1       3.107   2.900   2.425  0.00  0.00    +0.256 C 
ATOM      3  O   UNL     1       3.944   2.023   2.420  0.00  0.00    -0.272 OA
ATOM      4  N   UNL     1       2.062   3.033   1.585  0.00  0.00    -0.218 N 
ATOM      5  C   UNL     1       1.337   4.122   1.867  0.00  0.00    +0.310 C 
ATOM      6  O   UNL     1       0.347   4.454   1.245  0.00  0.00    -0.252 OA
ATOM      7  N   UNL     1       1.823   4.804   2.920  0.00  0.00    -0.278 N 
ATOM      8  H   UNL     1       1.459   5.618   3.301  0.00  0.00    +0.152 HD
ENDROOT
BRANCH   1  12
ATOM      9  C   UNL     1       2.511   2.723   7.398  0.00  0.00    +0.120 A 
ATOM     10  C   UNL     1       3.501   2.170   6.599  0.00  0.00    +0.046 A 
ATOM     11  C   UNL     1       3.663   2.609   5.299  0.00  0.00    +0.010 A 
ATOM     12  C   UNL     1       2.840   3.599   4.795  0.00  0.00    -0.011 A 
ATOM     13  C   UNL     1       1.857   4.156   5.591  0.00  0.00    +0.010 A 
ATOM     14  C   UNL     1       1.686   3.716   6.890  0.00  0.00    +0.046 A 
BRANCH   9  16
ATOM     15  C   UNL     1       1.311   2.907   9.442  0.00  0.00    +0.277 C 
ATOM     16  O   UNL     1       2.350   2.293   8.677  0.00  0.00    -0.495 OA
ENDBRANCH   9  16
ENDBRANCH   1  12
BRANCH   1  17
ATOM     17  C   UNL     1       4.246   4.946   3.260  0.00  0.00    -0.011 A 
ATOM     18  C   UNL     1       5.504   4.380   3.353  0.00  0.00    +0.010 A 
ATOM     19  C   UNL     1       6.629   5.174   3.240  0.00  0.00    +0.046 A 
ATOM     20  C   UNL     1       6.496   6.541   3.045  0.00  0.00    +0.120 A 
ATOM     21  C   UNL     1       5.232   7.107   2.958  0.00  0.00    +0.046 A 
ATOM     22  C   UNL     1       4.110   6.308   3.065  0.00  0.00    +0.010 A 
BRANCH  20  23
ATOM     23  O   UNL     1       7.601   7.325   2.941  0.00  0.00    -0.495 OA
ATOM     24  C   UNL     1       8.869   6.674   3.040  0.00  0.00    +0.277 C 
ENDBRANCH  20  23
ENDBRANCH   1  17
BRANCH   4  25
ATOM     25  C   UNL     1       1.760   2.104   0.493  0.00  0.00    +0.175 C 
BRANCH  25  26
ATOM     26  C   UNL     1       0.852   1.013   0.998  0.00  0.00    +0.078 A 
ATOM     27  C   UNL     1      -0.496   1.004   0.904  0.00  0.00    +0.117 A 
ATOM     28  N   UNL     1      -0.933  -0.158   1.481  0.00  0.00    -0.305 N 
ATOM     29  C   UNL     1      -2.179  -0.685   1.666  0.00  0.00    +0.112 A 
ATOM     30  C   UNL     1      -2.336  -1.878   2.279  0.00  0.00    +0.058 A 
ATOM     31  C   UNL     1      -1.215  -2.594   2.735  0.00  0.00    +0.025 A 
ATOM     32  C   UNL     1       0.031  -2.079   2.557  0.00  0.00    +0.048 A 
ATOM     33  C   UNL     1       0.178  -0.832   1.915  0.00  0.00    +0.138 A 
ATOM     34  N   UNL     1       1.245  -0.105   1.612  0.00  0.00    -0.231 NA
ATOM     35 CL   UNL     1      -3.928  -2.531   2.504  0.00  0.00    -0.082 Cl
ENDBRANCH  25  26
ENDBRANCH   4  25
TORSDOF 6
