REMARK  Name = ZINC22762074
REMARK  8 active torsions:
REMARK  status: ('A' for Active; 'I' for Inactive)
REMARK    1  A    between atoms: C_1  and  C_2
REMARK    2  A    between atoms: C_5  and  N_9
REMARK    3  A    between atoms: C_6  and  C_8
REMARK    4  A    between atoms: C_13  and  C_15
REMARK    5  A    between atoms: C_15  and  C_17
REMARK    6  A    between atoms: C_15  and  S_18
REMARK    7  A    between atoms: S_18  and  C_19
REMARK    8  A    between atoms: N_23  and  C_24
REMARK                            x       y       z     vdW  Elec       q    Type
REMARK                         _______ _______ _______ _____ _____    ______ ____
ROOT
ATOM      1  N   UNL     1      -1.237   2.069   0.019  0.00  0.00    -0.269 N 
ATOM      2  C   UNL     1      -2.394   1.385  -0.081  0.00  0.00    +0.310 C 
ATOM      3  O   UNL     1      -2.383   0.170  -0.088  0.00  0.00    -0.252 OA
ATOM      4  N   UNL     1      -3.563   2.049  -0.173  0.00  0.00    -0.239 N 
ATOM      5  C   UNL     1      -4.721   1.365  -0.273  0.00  0.00    +0.234 C 
ATOM      6  O   UNL     1      -4.710   0.153  -0.280  0.00  0.00    -0.274 OA
ATOM      7  H   UNL     1      -1.252   3.166   0.100  0.00  0.00    +0.156 HD
ATOM      8  H   UNL     1      -3.574   3.149  -0.167  0.00  0.00    +0.159 HD
ENDROOT
BRANCH   1  13
ATOM      9  C   UNL     1       3.704  -0.718   0.008  0.00  0.00    +0.044 C 
ATOM     10  C   UNL     1       2.392   0.023   0.013  0.00  0.00    -0.050 A 
ATOM     11  C   UNL     1       1.282  -0.542   0.613  0.00  0.00    +0.005 A 
ATOM     12  C   UNL     1       0.078   0.134   0.619  0.00  0.00    +0.024 A 
ATOM     13  C   UNL     1      -0.017   1.384   0.020  0.00  0.00    +0.038 A 
ATOM     14  C   UNL     1       1.099   1.949  -0.581  0.00  0.00    -0.029 A 
ATOM     15  C   UNL     1       2.300   1.267  -0.584  0.00  0.00    +0.008 A 
ATOM     16  C   UNL     1       1.000   3.305  -1.232  0.00  0.00    +0.045 C 
ENDBRANCH   1  13
BRANCH   5  17
ATOM     17  C   UNL     1      -6.028   2.108  -0.377  0.00  0.00    +0.137 C 
ATOM     18  C   UNL     1      -6.465   2.568   1.016  0.00  0.00    +0.029 C 
BRANCH  17  19
ATOM     19  S   UNL     1      -7.290   1.013  -1.073  0.00  0.00    -0.073 S 
BRANCH  19  20
ATOM     20  C   UNL     1      -8.631   2.147  -1.221  0.00  0.00    +0.197 A 
ATOM     21  N   UNL     1      -8.619   3.417  -0.890  0.00  0.00    -0.122 NA
ATOM     22  N   UNL     1      -9.767   3.943  -1.131  0.00  0.00    -0.137 NA
ATOM     23  C   UNL     1     -10.575   3.049  -1.627  0.00  0.00    +0.230 A 
ATOM     24  N   UNL     1      -9.879   1.872  -1.708  0.00  0.00    -0.277 N 
BRANCH  24  25
ATOM     25  C   UNL     1     -10.349   0.640  -2.187  0.00  0.00    +0.051 A 
ATOM     26  C   UNL     1      -9.616  -0.064  -3.133  0.00  0.00    +0.026 A 
ATOM     27  C   UNL     1     -10.078  -1.278  -3.600  0.00  0.00    +0.003 A 
ATOM     28  C   UNL     1     -11.276  -1.789  -3.136  0.00  0.00    +0.020 A 
ATOM     29  C   UNL     1     -12.013  -1.087  -2.198  0.00  0.00    +0.043 A 
ATOM     30  C   UNL     1     -11.552   0.127  -1.722  0.00  0.00    +0.046 A 
ATOM     31 CL   UNL     1     -13.517  -1.731  -1.618  0.00  0.00    -0.083 Cl
ENDBRANCH  24  25
ENDBRANCH  19  20
ENDBRANCH  17  19
ENDBRANCH   5  17
TORSDOF 5
