REMARK  Name = ZINC11871109
REMARK  6 active torsions:
REMARK  status: ('A' for Active; 'I' for Inactive)
REMARK    1  A    between atoms: C_1  and  C_2
REMARK    2  A    between atoms: C_2  and  C_15
REMARK    3  A    between atoms: N_5  and  C_9
REMARK    4  A    between atoms: C_9  and  C_10
REMARK    5  A    between atoms: C_20  and  C_21
REMARK    6  A    between atoms: C_20  and  N_56
REMARK                            x       y       z     vdW  Elec       q    Type
REMARK                         _______ _______ _______ _____ _____    ______ ____
ROOT
ATOM      1  C   UNL     1       3.610   3.585   0.893  0.00  0.00    +0.018 C 
ATOM      2  C   UNL     1       2.833   3.931  -0.380  0.00  0.00    -0.013 C 
ATOM      3  C   UNL     1       1.384   3.461  -0.231  0.00  0.00    -0.078 C 
ATOM      4  C   UNL     1       2.060   1.659   1.242  0.00  0.00    -0.078 C 
ATOM      5  C   UNL     1       3.529   2.075   1.136  0.00  0.00    -0.013 C 
ATOM      6  N   UNL     1       1.373   1.998  -0.023  0.00  0.00    +0.383 N 
ATOM      7  H   UNL     1       1.869   1.547  -0.802  0.00  0.00    -0.081 HD
ENDROOT
BRANCH   1   9
ATOM      8  C   UNL     1       5.176   5.491   0.405  0.00  0.00    +0.042 C 
ATOM      9  C   UNL     1       5.074   3.999   0.726  0.00  0.00    +0.112 C 
ATOM     10  C   UNL     1       5.867   3.667   1.974  0.00  0.00    +0.247 C 
ATOM     11  O   UNL     1       5.689   4.100   3.092  0.00  0.00    -0.273 OA
ATOM     12  N   UNL     1       6.812   2.789   1.583  0.00  0.00    -0.220 N 
ATOM     13  C   UNL     1       6.726   2.523   0.274  0.00  0.00    +0.310 C 
ATOM     14  O   UNL     1       7.470   1.760  -0.311  0.00  0.00    -0.252 OA
ATOM     15  N   UNL     1       5.724   3.194  -0.322  0.00  0.00    -0.285 N 
ATOM     16  H   UNL     1       5.478   3.155  -1.260  0.00  0.00    +0.151 HD
BRANCH  12  17
ATOM     17  C   UNL     1       7.809   2.199   2.478  0.00  0.00    +0.153 C 
BRANCH  17  18
ATOM     18  C   UNL     1       7.266   0.920   3.063  0.00  0.00    -0.023 A 
ATOM     19  C   UNL     1       7.471  -0.287   2.422  0.00  0.00    +0.013 A 
ATOM     20  C   UNL     1       6.969  -1.418   2.975  0.00  0.00    +0.045 A 
ATOM     21  S   UNL     1       6.177  -0.790   4.447  0.00  0.00    -0.105 S 
ATOM     22  C   UNL     1       6.574   0.937   4.228  0.00  0.00    +0.050 A 
ENDBRANCH  17  18
ENDBRANCH  12  17
ENDBRANCH   1   9
BRANCH   6  23
ATOM     23  C   UNL     1      -0.018   1.503   0.010  0.00  0.00    -0.025 C 
BRANCH  23  24
ATOM     24  C   UNL     1       0.002  -0.004   0.002  0.00  0.00    +0.000 A 
ATOM     25  C   UNL     1      -0.073  -0.782   1.094  0.00  0.00    +0.029 A 
ATOM     26  C   UNL     1      -0.019  -2.172   0.634  0.00  0.00    -0.000 A 
ATOM     27  C   UNL     1      -0.053  -3.409   1.279  0.00  0.00    +0.010 A 
ATOM     28  C   UNL     1       0.019  -4.559   0.545  0.00  0.00    +0.001 A 
ATOM     29  C   UNL     1       0.126  -4.507  -0.839  0.00  0.00    +0.002 A 
ATOM     30  C   UNL     1       0.161  -3.297  -1.496  0.00  0.00    +0.026 A 
ATOM     31  C   UNL     1       0.090  -2.113  -0.768  0.00  0.00    +0.047 A 
ATOM     32  N   UNL     1       0.094  -0.782  -1.120  0.00  0.00    -0.360 N 
ATOM     33  H   UNL     1       0.155  -0.446  -2.028  0.00  0.00    +0.166 HD
ENDBRANCH  23  24
ENDBRANCH   6  23
TORSDOF 5
