REMARK  Name = ZINC01626567
REMARK  13 active torsions:
REMARK  status: ('A' for Active; 'I' for Inactive)
REMARK    1  A    between atoms: C_1  and  C_2
REMARK    2  A    between atoms: C_2  and  C_3
REMARK    3  A    between atoms: C_3  and  C_4
REMARK    4  A    between atoms: C_4  and  C_5
REMARK    5  A    between atoms: C_5  and  C_6
REMARK    6  A    between atoms: C_7  and  C_8
REMARK    7  A    between atoms: C_7  and  C_20
REMARK    8  A    between atoms: C_10  and  C_17
REMARK    9  A    between atoms: C_11  and  O_15
REMARK   10  A    between atoms: O_15  and  C_16
REMARK   11  A    between atoms: C_22  and  C_29
REMARK   12  A    between atoms: C_23  and  O_27
REMARK   13  A    between atoms: O_27  and  C_28
REMARK                            x       y       z     vdW  Elec       q    Type
REMARK                         _______ _______ _______ _____ _____    ______ ____
ROOT
ATOM      1  C   UNL     1      -0.013   1.076   0.008  0.00  0.00    -0.018 C 
ATOM      2  C   UNL     1      -1.181   1.729   0.017  0.00  0.00    -0.015 C 
ENDROOT
BRANCH   2   3
ATOM      3  C   UNL     1      -2.455   0.970   0.019  0.00  0.00    -0.015 A 
ATOM      4  C   UNL     1      -2.799   0.188  -1.077  0.00  0.00    +0.025 A 
ATOM      5  C   UNL     1      -3.995  -0.528  -1.069  0.00  0.00    +0.080 A 
ATOM      6  C   UNL     1      -4.848  -0.446   0.040  0.00  0.00    +0.150 A 
ATOM      7  C   UNL     1      -4.497   0.343   1.128  0.00  0.00    +0.084 A 
ATOM      8  C   UNL     1      -3.310   1.047   1.120  0.00  0.00    +0.032 A 
ATOM      9 CL   UNL     1      -5.553   0.443   2.502  0.00  0.00    -0.080 Cl
BRANCH   5  10
ATOM     10  C   UNL     1      -4.365  -1.366  -2.227  0.00  0.00    +0.245 C 
ATOM     11  O   UNL     1      -5.411  -1.986  -2.220  0.00  0.00    -0.270 OA
ATOM     12  N   UNL     1      -3.543  -1.443  -3.293  0.00  0.00    -0.325 N 
ATOM     13  H   UNL     1      -2.709  -0.948  -3.299  0.00  0.00    +0.145 HD
ATOM     14  H   UNL     1      -3.786  -1.993  -4.053  0.00  0.00    +0.145 HD
ENDBRANCH   5  10
BRANCH   6  15
ATOM     15  O   UNL     1      -6.015  -1.137   0.052  0.00  0.00    -0.493 OA
ATOM     16  C   UNL     1      -7.167  -0.474  -0.472  0.00  0.00    +0.277 C 
ENDBRANCH   6  15
ENDBRANCH   2   3
BRANCH   2  17
ATOM     17  C   UNL     1      -1.201   3.212   0.025  0.00  0.00    -0.015 A 
ATOM     18  C   UNL     1      -0.701   3.907   1.121  0.00  0.00    +0.025 A 
ATOM     19  C   UNL     1      -0.717   5.302   1.122  0.00  0.00    +0.080 A 
ATOM     20  C   UNL     1      -1.246   5.993   0.023  0.00  0.00    +0.150 A 
ATOM     21  C   UNL     1      -1.748   5.288  -1.063  0.00  0.00    +0.084 A 
ATOM     22  C   UNL     1      -1.727   3.909  -1.065  0.00  0.00    +0.032 A 
ATOM     23 CL   UNL     1      -2.402   6.144  -2.424  0.00  0.00    -0.080 Cl
BRANCH  19  24
ATOM     24  C   UNL     1      -0.183   6.047   2.278  0.00  0.00    +0.245 C 
ATOM     25  O   UNL     1      -0.202   7.263   2.279  0.00  0.00    -0.270 OA
ATOM     26  N   UNL     1       0.325   5.380   3.333  0.00  0.00    -0.325 N 
ATOM     27  H   UNL     1       0.340   4.411   3.333  0.00  0.00    +0.145 HD
ATOM     28  H   UNL     1       0.676   5.870   4.093  0.00  0.00    +0.145 HD
ENDBRANCH  19  24
BRANCH  20  29
ATOM     29  O   UNL     1      -1.268   7.349   0.020  0.00  0.00    -0.493 OA
ATOM     30  C   UNL     1      -2.431   7.980   0.562  0.00  0.00    +0.277 C 
ENDBRANCH  20  29
ENDBRANCH   2  17
BRANCH   1  31
ATOM     31  C   UNL     1       1.282   1.847  -0.000  0.00  0.00    +0.028 C 
BRANCH  31  32
ATOM     32  C   UNL     1       2.155   1.391   1.171  0.00  0.00    +0.004 C 
BRANCH  32  33
ATOM     33  C   UNL     1       3.469   2.174   1.162  0.00  0.00    +0.000 C 
BRANCH  33  35
ATOM     34  C   UNL     1       5.657   2.501   2.325  0.00  0.00    +0.004 C 
ATOM     35  C   UNL     1       4.342   1.718   2.333  0.00  0.00    -0.003 C 
ENDBRANCH  33  35
ENDBRANCH  32  33
ENDBRANCH  31  32
ENDBRANCH   1  31
TORSDOF 10
