REMARK  Name = ZINC25784127
REMARK  6 active torsions:
REMARK  status: ('A' for Active; 'I' for Inactive)
REMARK    1  A    between atoms: C_1  and  C_2
REMARK    2  A    between atoms: C_2  and  C_29
REMARK    3  A    between atoms: N_3  and  N_4
REMARK    4  A    between atoms: C_5  and  C_7
REMARK    5  A    between atoms: C_8  and  C_18
REMARK    6  A    between atoms: C_18  and  N_19
REMARK                            x       y       z     vdW  Elec       q    Type
REMARK                         _______ _______ _______ _____ _____    ______ ____
ROOT
ATOM      1  C   UNL     1      -0.117   8.023  -0.469  0.00  0.00    +0.174 A 
ATOM      2  C   UNL     1      -0.185   9.381  -0.339  0.00  0.00    +0.096 A 
ATOM      3  N   UNL     1      -1.475   9.683  -0.069  0.00  0.00    -0.190 N 
ATOM      4  N   UNL     1      -2.177   8.470  -0.041  0.00  0.00    -0.058 NA
ATOM      5  N   UNL     1      -1.349   7.515  -0.286  0.00  0.00    -0.124 NA
ATOM      6  C   UNL     1      -2.006  10.961   0.142  0.00  0.00    +0.240 A 
ATOM      7  C   UNL     1      -3.409  11.269   0.434  0.00  0.00    +0.206 A 
ATOM      8  N   UNL     1      -3.526  12.561   0.569  0.00  0.00    -0.032 NA
ATOM      9  O   UNL     1      -2.244  13.135   0.377  0.00  0.00    -0.239 OA
ATOM     10  N   UNL     1      -1.337  12.078   0.118  0.00  0.00    -0.027 NA
ATOM     11  N   UNL     1      -4.439  10.342   0.547  0.00  0.00    -0.337 N 
ATOM     12  H   UNL     1      -5.462  10.681   0.770  0.00  0.00    +0.144 HD
ATOM     13  H   UNL     1      -4.232   9.270   0.413  0.00  0.00    +0.144 HD
ENDROOT
BRANCH   1  15
ATOM     14  N   UNL     1       1.045   5.899  -0.815  0.00  0.00    -0.201 N 
ATOM     15  C   UNL     1       1.100   7.245  -0.766  0.00  0.00    +0.285 C 
ATOM     16  O   UNL     1       2.154   7.818  -0.967  0.00  0.00    -0.267 OA
ATOM     17  H   UNL     1       0.092   5.381  -0.633  0.00  0.00    +0.178 HD
BRANCH  14  20
ATOM     18  C   UNL     1       3.370   3.064  -1.484  0.00  0.00    +0.068 C 
ATOM     19  C   UNL     1       2.173   3.864  -1.040  0.00  0.00    +0.063 C 
ATOM     20  N   UNL     1       2.201   5.160  -1.097  0.00  0.00    -0.184 NA
BRANCH  19  21
ATOM     21  C   UNL     1       0.970   3.174  -0.539  0.00  0.00    -0.002 A 
ATOM     22  C   UNL     1       0.214   3.751   0.498  0.00  0.00    +0.010 A 
ATOM     23  C   UNL     1      -0.897   3.136   0.975  0.00  0.00    +0.009 A 
ATOM     24  C   UNL     1      -1.304   1.901   0.436  0.00  0.00    -0.018 A 
ATOM     25  C   UNL     1      -2.454   1.248   0.910  0.00  0.00    +0.008 A 
ATOM     26  C   UNL     1      -2.826   0.057   0.366  0.00  0.00    +0.001 A 
ATOM     27  C   UNL     1      -2.087  -0.525  -0.662  0.00  0.00    +0.001 A 
ATOM     28  C   UNL     1      -0.971   0.080  -1.152  0.00  0.00    +0.008 A 
ATOM     29  C   UNL     1      -0.555   1.312  -0.614  0.00  0.00    -0.017 A 
ATOM     30  C   UNL     1       0.591   1.962  -1.095  0.00  0.00    +0.018 A 
ENDBRANCH  19  21
ENDBRANCH  14  20
ENDBRANCH   1  15
BRANCH   2  31
ATOM     31  C   UNL     1       0.958  10.355  -0.471  0.00  0.00    +0.163 C 
BRANCH  31  32
ATOM     32  N   UNL     1       1.475  10.686   0.864  0.00  0.00    -0.324 N 
ATOM     33  C   UNL     1       1.731   9.473   1.643  0.00  0.00    +0.106 C 
ATOM     34  C   UNL     1       2.294   9.878   3.011  0.00  0.00    +0.024 C 
ATOM     35  C   UNL     1       3.690  10.465   2.790  0.00  0.00    +0.038 C 
ATOM     36  C   UNL     1       3.648  11.463   1.660  0.00  0.00    -0.026 A 
ATOM     37  C   UNL     1       2.585  11.524   0.775  0.00  0.00    +0.033 A 
ATOM     38  C   UNL     1       2.607  12.463  -0.257  0.00  0.00    +0.023 A 
ATOM     39  C   UNL     1       3.674  13.325  -0.395  0.00  0.00    +0.002 A 
ATOM     40  C   UNL     1       4.731  13.262   0.495  0.00  0.00    +0.000 A 
ATOM     41  C   UNL     1       4.715  12.334   1.518  0.00  0.00    +0.005 A 
ENDBRANCH  31  32
ENDBRANCH   2  31
TORSDOF 5
