REMARK  Name = ZINC16808716
REMARK  7 active torsions:
REMARK  status: ('A' for Active; 'I' for Inactive)
REMARK    1  A    between atoms: C_1  and  C_2
REMARK    2  A    between atoms: C_3  and  C_25
REMARK    3  A    between atoms: C_16  and  C_20
REMARK    4  A    between atoms: C_17  and  C_19
REMARK    5  A    between atoms: C_25  and  C_26
REMARK    6  A    between atoms: C_26  and  C_27
REMARK    7  A    between atoms: C_26  and  C_28
REMARK                            x       y       z     vdW  Elec       q    Type
REMARK                         _______ _______ _______ _____ _____    ______ ____
ROOT
ATOM      1  C   UNL     1       1.054   3.527   0.011  0.00  0.00    +0.066 C 
ATOM      2  C   UNL     1       1.111   2.021   0.002  0.00  0.00    +0.050 A 
ATOM      3  C   UNL     1       2.319   1.386  -0.013  0.00  0.00    +0.038 A 
ATOM      4  C   UNL     1       2.346  -0.020  -0.020  0.00  0.00    +0.256 A 
ATOM      5  O   UNL     1       3.408  -0.621  -0.033  0.00  0.00    -0.267 OA
ATOM      6  N   UNL     1       1.175  -0.692  -0.012  0.00  0.00    -0.295 N 
ATOM      7  H   UNL     1       1.170  -1.662  -0.017  0.00  0.00    +0.172 HD
ATOM      8  C   UNL     1       0.002  -0.004   0.002  0.00  0.00    +0.202 A 
ATOM      9  N   UNL     1      -0.016   1.313   0.009  0.00  0.00    -0.221 NA
ATOM     10  N   UNL     1      -1.186  -0.695   0.010  0.00  0.00    -0.255 N 
ATOM     11  C   UNL     1      -2.378  -0.012   0.025  0.00  0.00    +0.202 A 
ATOM     12  N   UNL     1      -3.547  -0.708   0.032  0.00  0.00    -0.295 N 
ATOM     13  H   UNL     1      -3.535  -1.678   0.027  0.00  0.00    +0.172 HD
ATOM     14  C   UNL     1      -4.723  -0.044   0.047  0.00  0.00    +0.256 A 
ATOM     15  O   UNL     1      -5.780  -0.653   0.054  0.00  0.00    -0.267 OA
ATOM     16  C   UNL     1      -4.704   1.362   0.055  0.00  0.00    +0.041 A 
ATOM     17  C   UNL     1      -3.501   2.006   0.047  0.00  0.00    +0.050 A 
ATOM     18  N   UNL     1      -2.369   1.305   0.037  0.00  0.00    -0.221 NA
ATOM     19  C   UNL     1      -3.454   3.512   0.055  0.00  0.00    +0.066 C 
ATOM     20  H   UNL     1      -1.183  -1.665   0.004  0.00  0.00    +0.158 HD
ENDROOT
BRANCH  16  21
ATOM     21  C   UNL     1      -5.992   2.145   0.072  0.00  0.00    +0.026 C 
ATOM     22  C   UNL     1      -6.840   1.741   1.295  0.00  0.00    +0.008 C 
ATOM     23  C   UNL     1      -8.298   1.771   0.773  0.00  0.00    +0.001 C 
ATOM     24  C   UNL     1      -8.158   1.212  -0.665  0.00  0.00    +0.001 C 
ATOM     25  C   UNL     1      -6.830   1.808  -1.174  0.00  0.00    +0.008 C 
ENDBRANCH  16  21
BRANCH   3  26
ATOM     26  C   UNL     1       3.601   2.178  -0.021  0.00  0.00    +0.045 C 
BRANCH  26  27
ATOM     27  C   UNL     1       4.114   2.332   1.412  0.00  0.00    -0.013 C 
ATOM     28  C   UNL     1       4.491   0.957   1.970  0.00  0.00    +0.007 C 
ATOM     29  C   UNL     1       5.346   3.239   1.418  0.00  0.00    +0.007 C 
ENDBRANCH  26  27
ENDBRANCH   3  26
TORSDOF 3
