REMARK  Name = ZINC60330186
REMARK  10 active torsions:
REMARK  status: ('A' for Active; 'I' for Inactive)
REMARK    1  A    between atoms: C_1  and  C_2
REMARK    2  A    between atoms: C_2  and  C_4
REMARK    3  A    between atoms: C_2  and  O_11
REMARK    4  A    between atoms: O_11  and  C_12
REMARK    5  A    between atoms: C_12  and  C_13
REMARK    6  A    between atoms: C_13  and  C_15
REMARK    7  A    between atoms: C_13  and  O_35
REMARK    8  A    between atoms: C_15  and  N_16
REMARK    9  A    between atoms: N_23  and  C_25
REMARK   10  A    between atoms: C_25  and  C_26
REMARK                            x       y       z     vdW  Elec       q    Type
REMARK                         _______ _______ _______ _____ _____    ______ ____
ROOT
ATOM      1  N   UNL     1       4.755  -1.912  -3.374  0.00  0.00    -0.222 N 
ATOM      2  C   UNL     1       4.796  -3.207  -3.752  0.00  0.00    +0.245 C 
ATOM      3  O   UNL     1       4.375  -4.164  -3.139  0.00  0.00    -0.273 OA
ATOM      4  C   UNL     1       5.479  -3.212  -5.100  0.00  0.00    +0.098 C 
ATOM      5  C   UNL     1       4.541  -3.764  -6.170  0.00  0.00    +0.031 C 
ATOM      6  C   UNL     1       5.277  -3.795  -7.514  0.00  0.00    -0.016 C 
ATOM      7  C   UNL     1       6.562  -4.612  -7.365  0.00  0.00    -0.078 C 
ATOM      8  N   UNL     1       7.429  -3.993  -6.355  0.00  0.00    +0.384 N 
ATOM      9  C   UNL     1       6.767  -4.025  -5.045  0.00  0.00    -0.043 C 
ATOM     10  N   UNL     1       5.773  -1.796  -5.357  0.00  0.00    -0.287 N 
ATOM     11  C   UNL     1       5.308  -1.112  -4.294  0.00  0.00    +0.309 C 
ATOM     12  O   UNL     1       5.386   0.095  -4.181  0.00  0.00    -0.252 OA
ATOM     13  H   UNL     1       6.212  -1.427  -6.139  0.00  0.00    +0.151 HD
ATOM     14  H   UNL     1       7.615  -3.036  -6.614  0.00  0.00    -0.081 HD
ENDROOT
BRANCH   1  15
ATOM     15  C   UNL     1       4.173  -1.440  -2.115  0.00  0.00    +0.151 C 
BRANCH  15  16
ATOM     16  C   UNL     1       2.688  -1.133  -2.324  0.00  0.00    +0.158 C 
BRANCH  16  17
ATOM     17  O   UNL     1       2.547  -0.122  -3.324  0.00  0.00    -0.388 OA
ATOM     18  H   UNL     1       2.983   0.713  -3.103  0.00  0.00    +0.210 HD
ENDBRANCH  16  17
BRANCH  16  19
ATOM     19  C   UNL     1       2.080  -0.640  -1.010  0.00  0.00    +0.193 C 
BRANCH  19  20
ATOM     20  O   UNL     1       0.671  -0.465  -1.174  0.00  0.00    -0.370 OA
BRANCH  20  22
ATOM     21  C   UNL     1      -0.019   1.526   0.010  0.00  0.00    +0.043 C 
ATOM     22  C   UNL     1       0.002  -0.004   0.002  0.00  0.00    +0.145 C 
BRANCH  22  23
ATOM     23  C   UNL     1      -1.412  -0.526   0.013  0.00  0.00    -0.019 A 
ATOM     24  C   UNL     1      -2.106  -0.666  -1.175  0.00  0.00    +0.007 A 
ATOM     25  C   UNL     1      -3.402  -1.144  -1.166  0.00  0.00    +0.020 A 
ATOM     26  C   UNL     1      -4.006  -1.483   0.032  0.00  0.00    +0.041 A 
ATOM     27  C   UNL     1      -3.311  -1.342   1.220  0.00  0.00    +0.020 A 
ATOM     28  C   UNL     1      -2.012  -0.869   1.210  0.00  0.00    +0.007 A 
ATOM     29 CL   UNL     1      -5.635  -2.083   0.045  0.00  0.00    -0.084 Cl
ENDBRANCH  22  23
ENDBRANCH  20  22
ENDBRANCH  19  20
ENDBRANCH  16  19
ENDBRANCH  15  16
ENDBRANCH   1  15
BRANCH   8  30
ATOM     30  C   UNL     1       8.696  -4.732  -6.280  0.00  0.00    -0.043 C 
BRANCH  30  31
ATOM     31  C   UNL     1       9.438  -4.591  -7.584  0.00  0.00    -0.064 A 
ATOM     32  C   UNL     1       9.227  -5.503  -8.602  0.00  0.00    +0.002 A 
ATOM     33  C   UNL     1       9.908  -5.373  -9.798  0.00  0.00    +0.000 A 
ATOM     34  C   UNL     1      10.799  -4.331  -9.977  0.00  0.00    +0.000 A 
ATOM     35  C   UNL     1      11.009  -3.419  -8.960  0.00  0.00    +0.000 A 
ATOM     36  C   UNL     1      10.325  -3.546  -7.765  0.00  0.00    +0.002 A 
ENDBRANCH  30  31
ENDBRANCH   8  30
TORSDOF 9
