REMARK  Name = ZINC03012328
REMARK  6 active torsions:
REMARK  status: ('A' for Active; 'I' for Inactive)
REMARK    1  A    between atoms: C_7  and  C_11
REMARK    2  A    between atoms: C_11  and  C_12
REMARK    3  A    between atoms: C_12  and  N_13
REMARK    4  A    between atoms: C_14  and  C_16
REMARK    5  A    between atoms: C_21  and  C_36
REMARK    6  A    between atoms: C_24  and  C_27
REMARK                            x       y       z     vdW  Elec       q    Type
REMARK                         _______ _______ _______ _____ _____    ______ ____
ROOT
ATOM      1  C   UNL     1      -2.104  -6.352  -2.609  0.00  0.00    +0.149 A 
ATOM      2  C   UNL     1      -2.705  -6.937  -3.746  0.00  0.00    +0.078 A 
ATOM      3  C   UNL     1      -3.470  -7.962  -3.321  0.00  0.00    +0.119 A 
ATOM      4  N   UNL     1      -3.364  -8.036  -1.961  0.00  0.00    -0.238 N 
ATOM      5  N   UNL     1      -2.502  -7.023  -1.542  0.00  0.00    -0.164 NA
ATOM      6  C   UNL     1      -4.056  -9.037  -1.145  0.00  0.00    +0.215 C 
ATOM      7  C   UNL     1      -4.474 -10.207  -2.044  0.00  0.00    +0.063 C 
ATOM      8  C   UNL     1      -5.203  -9.677  -3.284  0.00  0.00    +0.104 C 
ATOM      9  N   UNL     1      -4.263  -8.844  -4.060  0.00  0.00    -0.322 N 
ATOM     10  H   UNL     1      -4.200  -8.905  -5.026  0.00  0.00    +0.148 HD
ENDROOT
BRANCH   8  11
ATOM     11  C   UNL     1      -6.388  -8.848  -2.859  0.00  0.00    -0.024 A 
ATOM     12  C   UNL     1      -6.205  -7.538  -2.457  0.00  0.00    +0.009 A 
ATOM     13  C   UNL     1      -7.289  -6.774  -2.067  0.00  0.00    +0.050 A 
ATOM     14  C   UNL     1      -8.562  -7.320  -2.078  0.00  0.00    +0.166 A 
ATOM     15  C   UNL     1      -8.746  -8.640  -2.483  0.00  0.00    +0.167 A 
ATOM     16  C   UNL     1      -7.656  -9.398  -2.878  0.00  0.00    +0.055 A 
ATOM     17  O   UNL     1     -10.076  -8.938  -2.405  0.00  0.00    -0.453 OA
ATOM     18  C   UNL     1     -10.650  -7.921  -1.563  0.00  0.00    +0.466 C 
ATOM     19  O   UNL     1      -9.777  -6.792  -1.747  0.00  0.00    -0.453 OA
ENDBRANCH   8  11
BRANCH   1  21
ATOM     20  N   UNL     1      -0.675  -4.736  -1.452  0.00  0.00    -0.310 N 
ATOM     21  C   UNL     1      -1.186  -5.195  -2.612  0.00  0.00    +0.264 C 
ATOM     22  O   UNL     1      -0.890  -4.656  -3.661  0.00  0.00    -0.268 OA
ATOM     23  H   UNL     1      -0.911  -5.166  -0.615  0.00  0.00    +0.149 HD
BRANCH  20  24
ATOM     24  C   UNL     1       0.236  -3.589  -1.455  0.00  0.00    +0.109 C 
BRANCH  24  25
ATOM     25  C   UNL     1       0.666  -3.275  -0.021  0.00  0.00    +0.056 C 
BRANCH  25  32
ATOM     26  C   UNL     1      -0.017   1.362   0.009  0.00  0.00    +0.001 A 
ATOM     27  C   UNL     1       1.170   2.083   0.002  0.00  0.00    +0.002 A 
ATOM     28  C   UNL     1       2.386   1.436  -0.013  0.00  0.00    +0.026 A 
ATOM     29  C   UNL     1       2.428   0.046  -0.021  0.00  0.00    +0.047 A 
ATOM     30  C   UNL     1       1.223  -0.681  -0.013  0.00  0.00    +0.003 A 
ATOM     31  C   UNL     1       0.002  -0.004   0.002  0.00  0.00    +0.010 A 
ATOM     32  C   UNL     1       1.604  -2.095  -0.025  0.00  0.00    -0.021 A 
ATOM     33  C   UNL     1       2.945  -2.141  -0.038  0.00  0.00    +0.087 A 
ATOM     34  N   UNL     1       3.455  -0.871  -0.036  0.00  0.00    -0.360 N 
ATOM     35  H   UNL     1       4.399  -0.650  -0.044  0.00  0.00    +0.165 HD
ENDBRANCH  25  32
ENDBRANCH  24  25
ENDBRANCH  20  24
ENDBRANCH   1  21
BRANCH   6  36
ATOM     36  C   UNL     1      -3.116  -9.542  -0.048  0.00  0.00    +0.412 C 
ATOM     37  F   UNL     1      -2.727  -8.470   0.763  0.00  0.00    -0.168 F 
ATOM     38  F   UNL     1      -3.779 -10.498   0.730  0.00  0.00    -0.168 F 
ATOM     39  F   UNL     1      -1.984 -10.120  -0.632  0.00  0.00    -0.168 F 
ENDBRANCH   6  36
TORSDOF 6
