REMARK  Name = ZINC00979622
REMARK  8 active torsions:
REMARK  status: ('A' for Active; 'I' for Inactive)
REMARK    1  A    between atoms: C_1  and  C_2
REMARK    2  A    between atoms: C_5  and  C_8
REMARK    3  A    between atoms: C_8  and  O_9
REMARK    4  A    between atoms: O_9  and  C_10
REMARK    5  A    between atoms: C_11  and  O_23
REMARK    6  A    between atoms: C_13  and  C_17
REMARK    7  A    between atoms: N_18  and  N_19
REMARK    8  A    between atoms: O_23  and  C_24
REMARK                            x       y       z     vdW  Elec       q    Type
REMARK                         _______ _______ _______ _____ _____    ______ ____
ROOT
ATOM      1  C   UNL     1       1.185   2.058   0.002  0.00  0.00    +0.175 A 
ATOM      2  C   UNL     1       1.809   2.381   1.205  0.00  0.00    +0.163 A 
ATOM      3  C   UNL     1       3.035   3.020   1.199  0.00  0.00    +0.059 A 
ATOM      4  C   UNL     1       3.641   3.351  -0.016  0.00  0.00    -0.001 A 
ATOM      5  C   UNL     1       3.007   3.030  -1.218  0.00  0.00    +0.027 A 
ATOM      6  C   UNL     1       1.786   2.387  -1.205  0.00  0.00    +0.059 A 
ATOM      7  I   UNL     1       0.838   1.907  -3.010  0.00  0.00    -0.040 I 
ENDROOT
BRANCH   4   8
ATOM      8  C   UNL     1       4.945   4.038  -0.028  0.00  0.00    +0.138 C 
ATOM      9  N   UNL     1       5.506   4.346  -1.157  0.00  0.00    -0.186 NA
BRANCH   9  10
ATOM     10  N   UNL     1       6.745   4.999  -1.168  0.00  0.00    -0.191 N 
ATOM     11  C   UNL     1       7.328   5.318  -2.341  0.00  0.00    +0.317 C 
ATOM     12  O   UNL     1       8.404   5.885  -2.351  0.00  0.00    -0.251 OA
ATOM     13  N   UNL     1       6.718   5.009  -3.502  0.00  0.00    -0.312 N 
ATOM     14  H   UNL     1       7.184   5.221  -0.332  0.00  0.00    +0.179 HD
ATOM     15  H   UNL     1       5.860   4.557  -3.494  0.00  0.00    +0.147 HD
ATOM     16  H   UNL     1       7.138   5.238  -4.346  0.00  0.00    +0.147 HD
ENDBRANCH   9  10
ENDBRANCH   4   8
BRANCH   2  17
ATOM     17  O   UNL     1       1.214   2.062   2.386  0.00  0.00    -0.491 OA
ATOM     18  C   UNL     1       1.910   2.423   3.581  0.00  0.00    +0.277 C 
ENDBRANCH   2  17
BRANCH   1  19
ATOM     19  O   UNL     1      -0.017   1.425   0.010  0.00  0.00    -0.483 OA
BRANCH  19  20
ATOM     20  C   UNL     1       0.002  -0.004   0.002  0.00  0.00    +0.264 C 
BRANCH  20  25
ATOM     21  C   UNL     1      -5.419  -2.005   0.043  0.00  0.00    +0.044 C 
ATOM     22  C   UNL     1      -4.005  -1.483   0.032  0.00  0.00    -0.050 A 
ATOM     23  C   UNL     1      -3.369  -1.237  -1.170  0.00  0.00    +0.004 A 
ATOM     24  C   UNL     1      -2.072  -0.758  -1.179  0.00  0.00    +0.007 A 
ATOM     25  C   UNL     1      -1.412  -0.526   0.013  0.00  0.00    -0.010 A 
ATOM     26  C   UNL     1      -2.047  -0.777   1.215  0.00  0.00    +0.007 A 
ATOM     27  C   UNL     1      -3.345  -1.251   1.224  0.00  0.00    +0.004 A 
ENDBRANCH  20  25
ENDBRANCH  19  20
ENDBRANCH   1  19
TORSDOF 6
