REMARK  Name = ZINC39237459
REMARK  5 active torsions:
REMARK  status: ('A' for Active; 'I' for Inactive)
REMARK    1  A    between atoms: C_4  and  N_7
REMARK    2  A    between atoms: N_9  and  C_24
REMARK    3  A    between atoms: C_13  and  C_14
REMARK    4  A    between atoms: C_24  and  C_25
REMARK    5  A    between atoms: C_25  and  C_26
REMARK                            x       y       z     vdW  Elec       q    Type
REMARK                         _______ _______ _______ _____ _____    ______ ____
ROOT
ATOM      1  N   UNL     1       3.599  -0.629  -0.037  0.00  0.00    -0.225 NA
ATOM      2  C   UNL     1       3.791  -1.655   0.760  0.00  0.00    +0.168 C 
ATOM      3  N   UNL     1       4.917  -2.438   0.890  0.00  0.00    -0.246 N 
ATOM      4  C   UNL     1       4.945  -3.444   1.748  0.00  0.00    +0.259 C 
ATOM      5  O   UNL     1       5.929  -4.146   1.877  0.00  0.00    -0.269 OA
ATOM      6  C   UNL     1       3.716  -3.674   2.548  0.00  0.00    +0.078 C 
ATOM      7  C   UNL     1       3.461  -4.635   3.507  0.00  0.00    +0.026 C 
ATOM      8  S   UNL     1       2.658  -2.367   1.942  0.00  0.00    -0.049 S 
ENDROOT
BRANCH   7   9
ATOM      9  C   UNL     1       2.221  -4.672   4.145  0.00  0.00    -0.018 C 
ATOM     10  C   UNL     1       1.805  -5.567   5.133  0.00  0.00    +0.003 A 
ATOM     11  C   UNL     1       2.447  -6.651   5.769  0.00  0.00    +0.010 A 
ATOM     12  C   UNL     1       1.785  -7.363   6.717  0.00  0.00    +0.001 A 
ATOM     13  C   UNL     1       0.473  -7.051   7.084  0.00  0.00    +0.002 A 
ATOM     14  C   UNL     1      -0.205  -6.026   6.515  0.00  0.00    +0.026 A 
ATOM     15  C   UNL     1       0.422  -5.234   5.516  0.00  0.00    +0.043 A 
ATOM     16  N   UNL     1      -0.011  -4.202   4.823  0.00  0.00    -0.380 N 
ATOM     17  C   UNL     1       1.046  -3.747   3.917  0.00  0.00    +0.149 C 
ATOM     18  H   UNL     1      -0.892  -3.803   4.903  0.00  0.00    +0.160 HD
ENDBRANCH   7   9
BRANCH   1  22
ATOM     19  C   UNL     1      -0.017   1.380   0.010  0.00  0.00    +0.000 A 
ATOM     20  C   UNL     1       1.168   2.095   0.002  0.00  0.00    +0.002 A 
ATOM     21  C   UNL     1       2.377   1.432  -0.013  0.00  0.00    +0.028 A 
ATOM     22  C   UNL     1       2.404   0.035  -0.021  0.00  0.00    +0.067 A 
ATOM     23  C   UNL     1       1.204  -0.681  -0.013  0.00  0.00    +0.028 A 
ATOM     24  C   UNL     1       0.002  -0.004   0.002  0.00  0.00    +0.002 A 
ENDBRANCH   1  22
BRANCH   3  25
ATOM     25  C   UNL     1       6.096  -2.155   0.068  0.00  0.00    +0.120 C 
BRANCH  25  26
ATOM     26  C   UNL     1       7.005  -1.169   0.803  0.00  0.00    +0.056 C 
BRANCH  26  27
ATOM     27  C   UNL     1       8.218  -0.877  -0.043  0.00  0.00    -0.021 A 
ATOM     28  C   UNL     1       8.318   0.125  -1.106  0.00  0.00    +0.003 A 
ATOM     29  C   UNL     1       7.430   1.056  -1.649  0.00  0.00    +0.010 A 
ATOM     30  C   UNL     1       7.840   1.873  -2.665  0.00  0.00    +0.001 A 
ATOM     31  C   UNL     1       9.133   1.785  -3.162  0.00  0.00    +0.002 A 
ATOM     32  C   UNL     1      10.026   0.873  -2.640  0.00  0.00    +0.026 A 
ATOM     33  C   UNL     1       9.630   0.032  -1.606  0.00  0.00    +0.047 A 
ATOM     34  N   UNL     1      10.268  -0.956  -0.890  0.00  0.00    -0.360 N 
ATOM     35  C   UNL     1       9.413  -1.482   0.040  0.00  0.00    +0.087 A 
ATOM     36  H   UNL     1      11.187  -1.235  -1.023  0.00  0.00    +0.165 HD
ENDBRANCH  26  27
ENDBRANCH  25  26
ENDBRANCH   3  25
TORSDOF 5
