REMARK  Name = ZINC16491922
REMARK  4 active torsions:
REMARK  status: ('A' for Active; 'I' for Inactive)
REMARK    1  A    between atoms: C_4  and  C_7
REMARK    2  A    between atoms: C_8  and  C_18
REMARK    3  A    between atoms: N_9  and  O_17
REMARK    4  A    between atoms: C_10  and  C_12
REMARK                            x       y       z     vdW  Elec       q    Type
REMARK                         _______ _______ _______ _____ _____    ______ ____
ROOT
ATOM      1  C   UNL     1       3.962   3.259  -0.802  0.00  0.00    +0.101 A 
ATOM      2  C   UNL     1       3.655   2.158  -0.021  0.00  0.00    +0.115 A 
ATOM      3  N   UNL     1       4.768   1.907   0.753  0.00  0.00    -0.164 N 
ATOM      4  C   UNL     1       5.709   2.841   0.420  0.00  0.00    +0.184 A 
ATOM      5  N   UNL     1       5.215   3.639  -0.502  0.00  0.00    -0.224 NA
ENDROOT
BRANCH   1   9
ATOM      6  C   UNL     1       1.398   5.106  -3.645  0.00  0.00    +0.000 A 
ATOM      7  C   UNL     1       2.272   5.879  -2.900  0.00  0.00    +0.001 A 
ATOM      8  C   UNL     1       3.106   5.285  -1.976  0.00  0.00    +0.010 A 
ATOM      9  C   UNL     1       3.068   3.903  -1.792  0.00  0.00    +0.003 A 
ATOM     10  C   UNL     1       2.189   3.129  -2.549  0.00  0.00    +0.010 A 
ATOM     11  C   UNL     1       1.355   3.735  -3.467  0.00  0.00    +0.001 A 
ENDBRANCH   1   9
BRANCH   2  12
ATOM     12  C   UNL     1       2.385   1.407  -0.013  0.00  0.00    +0.004 A 
ATOM     13  C   UNL     1       1.166   2.089   0.002  0.00  0.00    +0.010 A 
ATOM     14  C   UNL     1      -0.017   1.380   0.010  0.00  0.00    +0.001 A 
ATOM     15  C   UNL     1       0.002  -0.004   0.002  0.00  0.00    +0.000 A 
ATOM     16  C   UNL     1       1.206  -0.686  -0.013  0.00  0.00    +0.001 A 
ATOM     17  C   UNL     1       2.397   0.009  -0.020  0.00  0.00    +0.010 A 
ENDBRANCH   2  12
BRANCH   4  18
ATOM     18  C   UNL     1       7.055   2.942   1.004  0.00  0.00    +0.058 A 
ATOM     19  C   UNL     1       7.955   3.990   0.944  0.00  0.00    +0.019 A 
ATOM     20  C   UNL     1       9.166   3.850   1.581  0.00  0.00    +0.008 A 
ATOM     21  C   UNL     1       9.443   2.691   2.235  0.00  0.00    +0.046 A 
ATOM     22  S   UNL     1       7.956   1.740   1.969  0.00  0.00    -0.094 S 
ENDBRANCH   4  18
BRANCH   3  23
ATOM     23  O   UNL     1       4.910   0.873   1.710  0.00  0.00    -0.424 OA
ATOM     24  H   UNL     1       5.264   0.048   1.349  0.00  0.00    +0.326 HD
ENDBRANCH   3  23
TORSDOF 4
