REMARK  Name = ZINC39682536
REMARK  6 active torsions:
REMARK  status: ('A' for Active; 'I' for Inactive)
REMARK    1  A    between atoms: C_4  and  C_7
REMARK    2  A    between atoms: C_7  and  C_9
REMARK    3  A    between atoms: C_7  and  N_13
REMARK    4  A    between atoms: C_9  and  C_10
REMARK    5  A    between atoms: C_14  and  C_16
REMARK    6  A    between atoms: C_27  and  C_29
REMARK                            x       y       z     vdW  Elec       q    Type
REMARK                         _______ _______ _______ _____ _____    ______ ____
ROOT
ATOM      1  C   UNL     1       4.638  -3.628   1.908  0.00  0.00    +0.100 C 
ATOM      2  C   UNL     1       4.380  -4.772   0.903  0.00  0.00    +0.121 C 
ATOM      3  N   UNL     1       5.724  -5.322   0.608  0.00  0.00    -0.297 N 
ATOM      4  C   UNL     1       6.426  -5.302   1.914  0.00  0.00    +0.115 C 
ATOM      5  C   UNL     1       5.980  -3.981   2.572  0.00  0.00    -0.004 C 
ATOM      6  C   UNL     1       7.007  -2.886   2.303  0.00  0.00    -0.010 C 
ATOM      7  C   UNL     1       8.315  -3.232   3.020  0.00  0.00    -0.082 C 
ATOM      8  N   UNL     1       8.067  -3.354   4.462  0.00  0.00    +0.379 N 
ATOM      9  C   UNL     1       7.149  -4.470   4.719  0.00  0.00    -0.082 C 
ATOM     10  C   UNL     1       5.792  -4.176   4.074  0.00  0.00    -0.010 C 
ATOM     11  C   UNL     1       6.202  -5.745  -0.580  0.00  0.00    +0.260 C 
ATOM     12  O   UNL     1       7.333  -6.174  -0.660  0.00  0.00    -0.271 OA
ATOM     13  H   UNL     1       8.940  -3.521   4.939  0.00  0.00    -0.086 HD
ATOM     14  H   UNL     1       7.658  -2.498   4.805  0.00  0.00    -0.086 HD
ENDROOT
BRANCH  11  15
ATOM     15  C   UNL     1       5.329  -5.686  -1.807  0.00  0.00    +0.296 C 
ATOM     16  C   UNL     1       4.144  -6.649  -1.646  0.00  0.00    +0.283 C 
ATOM     17  O   UNL     1       3.346  -6.579  -2.832  0.00  0.00    -0.484 OA
ATOM     18  C   UNL     1       4.009  -6.625  -4.020  0.00  0.00    +0.162 A 
ATOM     19  C   UNL     1       3.309  -6.924  -5.179  0.00  0.00    +0.049 A 
ATOM     20  C   UNL     1       3.968  -6.972  -6.393  0.00  0.00    +0.004 A 
ATOM     21  C   UNL     1       5.326  -6.721  -6.455  0.00  0.00    +0.004 A 
ATOM     22  C   UNL     1       6.030  -6.424  -5.303  0.00  0.00    +0.049 A 
ATOM     23  C   UNL     1       5.375  -6.376  -4.082  0.00  0.00    +0.163 A 
ATOM     24  O   UNL     1       6.083  -6.089  -2.955  0.00  0.00    -0.473 OA
ENDBRANCH  11  15
BRANCH   1  26
ATOM     25  N   UNL     1       4.516  -1.158   1.851  0.00  0.00    -0.308 N 
ATOM     26  C   UNL     1       4.741  -2.309   1.187  0.00  0.00    +0.219 C 
ATOM     27  O   UNL     1       5.026  -2.283   0.008  0.00  0.00    -0.275 OA
ATOM     28  H   UNL     1       4.221  -1.181   2.775  0.00  0.00    +0.149 HD
BRANCH  25  29
ATOM     29  C   UNL     1       4.718   0.128   1.179  0.00  0.00    +0.114 C 
BRANCH  29  33
ATOM     30  C   UNL     1       5.762   3.098   4.066  0.00  0.00    +0.000 A 
ATOM     31  C   UNL     1       6.393   3.077   2.837  0.00  0.00    +0.000 A 
ATOM     32  C   UNL     1       6.056   2.116   1.902  0.00  0.00    +0.005 A 
ATOM     33  C   UNL     1       5.087   1.175   2.198  0.00  0.00    -0.027 A 
ATOM     34  C   UNL     1       4.456   1.195   3.428  0.00  0.00    +0.005 A 
ATOM     35  C   UNL     1       4.793   2.157   4.362  0.00  0.00    +0.000 A 
ENDBRANCH  29  33
BRANCH  29  36
ATOM     36  C   UNL     1       3.428   0.540   0.468  0.00  0.00    +0.152 C 
BRANCH  36  37
ATOM     37  C   UNL     1       3.682   1.772  -0.362  0.00  0.00    +0.358 C 
ATOM     38  O   UNL     1       4.816   2.207  -0.474  0.00  0.00    -0.246 OA
ATOM     39  O   UNL     1       2.755   2.332  -0.921  0.00  0.00    -0.246 OA
ENDBRANCH  36  37
ENDBRANCH  29  36
ENDBRANCH  25  29
ENDBRANCH   1  26
TORSDOF 6
