REMARK  Name = ZINC14467204
REMARK  3 active torsions:
REMARK  status: ('A' for Active; 'I' for Inactive)
REMARK    1  A    between atoms: C_6  and  N_7
REMARK    2  A    between atoms: C_17  and  C_20
REMARK    3  A    between atoms: C_25  and  O_26
REMARK                            x       y       z     vdW  Elec       q    Type
REMARK                         _______ _______ _______ _____ _____    ______ ____
ROOT
ATOM      1  C   UNL     1       3.044  -3.688  -1.375  0.00  0.00    +0.036 A 
ATOM      2  C   UNL     1       2.004  -4.600  -1.398  0.00  0.00    +0.042 A 
ATOM      3  C   UNL     1       0.701  -4.168  -1.272  0.00  0.00    +0.145 A 
ATOM      4  C   UNL     1       0.409  -2.809  -1.118  0.00  0.00    +0.069 A 
ATOM      5  C   UNL     1       1.469  -1.901  -1.108  0.00  0.00    +0.014 A 
ATOM      6  C   UNL     1       2.770  -2.342  -1.231  0.00  0.00    +0.132 A 
ATOM      7  C   UNL     1       1.145  -0.464  -0.964  0.00  0.00    +0.051 C 
ATOM      8  C   UNL     1       2.072   0.503  -0.326  0.00  0.00    -0.023 C 
ATOM      9  C   UNL     1       1.353   1.442   0.279  0.00  0.00    -0.030 C 
ATOM     10  C   UNL     1      -0.139   1.142   0.117  0.00  0.00    +0.033 C 
ATOM     11  C   UNL     1      -0.126  -0.381  -0.061  0.00  0.00    +0.029 C 
ATOM     12  C   UNL     1      -1.225  -1.010  -0.891  0.00  0.00    +0.109 C 
ATOM     13  N   UNL     1      -0.931  -2.450  -0.975  0.00  0.00    -0.334 N 
ATOM     14  F   UNL     1      -0.306  -5.069  -1.296  0.00  0.00    -0.204 F 
ATOM     15  H   UNL     1      -1.361  -2.951  -0.211  0.00  0.00    +0.147 HD
ENDROOT
BRANCH  12  16
ATOM     16  C   UNL     1      -2.559  -0.795  -0.225  0.00  0.00    +0.017 A 
ATOM     17  C   UNL     1      -3.042  -1.729   0.672  0.00  0.00    +0.029 A 
ATOM     18  C   UNL     1      -4.267  -1.533   1.285  0.00  0.00    +0.043 A 
ATOM     19  C   UNL     1      -5.011  -0.401   1.001  0.00  0.00    +0.043 A 
ATOM     20  C   UNL     1      -4.532   0.535   0.104  0.00  0.00    +0.084 A 
ATOM     21  C   UNL     1      -3.301   0.342  -0.507  0.00  0.00    +0.140 A 
ATOM     22 CL   UNL     1      -5.466   1.954  -0.252  0.00  0.00    -0.080 Cl
ATOM     23 CL   UNL     1      -4.870  -2.707   2.412  0.00  0.00    -0.083 Cl
BRANCH  21  24
ATOM     24  O   UNL     1      -2.825   1.264  -1.385  0.00  0.00    -0.505 OA
ATOM     25  H   UNL     1      -3.087   1.105  -2.303  0.00  0.00    +0.292 HD
ENDBRANCH  21  24
ENDBRANCH  12  16
BRANCH   6  26
ATOM     26  N   UNL     1       3.882  -1.365  -1.209  0.00  0.00    +0.057 N 
ATOM     27  O   UNL     1       3.846  -0.385  -1.932  0.00  0.00    -0.126 OA
ATOM     28  O   UNL     1       4.832  -1.540  -0.467  0.00  0.00    -0.126 OA
ENDBRANCH   6  26
TORSDOF 3
