REMARK  Name = ZINC20552683
REMARK  3 active torsions:
REMARK  status: ('A' for Active; 'I' for Inactive)
REMARK    1  A    between atoms: C_8  and  C_11
REMARK    2  A    between atoms: C_11  and  C_13
REMARK    3  A    between atoms: C_11  and  N_23
REMARK                            x       y       z     vdW  Elec       q    Type
REMARK                         _______ _______ _______ _____ _____    ______ ____
ROOT
ATOM      1  C   UNL     1      -0.816   1.621  -1.179  0.00  0.00    +0.126 C 
ENDROOT
BRANCH   1   2
ATOM      2  C   UNL     1      -2.258   1.282  -1.455  0.00  0.00    +0.012 A 
ATOM      3  C   UNL     1      -2.575   0.345  -2.422  0.00  0.00    +0.065 A 
ATOM      4  C   UNL     1      -3.900   0.031  -2.673  0.00  0.00    +0.061 A 
ATOM      5  C   UNL     1      -4.907   0.661  -1.964  0.00  0.00    +0.043 A 
ATOM      6  C   UNL     1      -4.589   1.601  -1.000  0.00  0.00    +0.061 A 
ATOM      7  C   UNL     1      -3.264   1.912  -0.746  0.00  0.00    +0.065 A 
ATOM      8 CL   UNL     1      -2.866   3.093   0.463  0.00  0.00    -0.082 Cl
ATOM      9 CL   UNL     1      -5.853   2.392  -0.110  0.00  0.00    -0.082 Cl
ATOM     10 CL   UNL     1      -4.298  -1.149  -3.883  0.00  0.00    -0.082 Cl
ATOM     11 CL   UNL     1      -1.312  -0.440  -3.317  0.00  0.00    -0.082 Cl
ENDBRANCH   1   2
BRANCH   1  19
ATOM     12  C   UNL     1       1.497   1.519   4.361  0.00  0.00    +0.000 A 
ATOM     13  C   UNL     1       0.154   1.460   4.683  0.00  0.00    +0.004 A 
ATOM     14  C   UNL     1      -0.800   1.397   3.689  0.00  0.00    +0.046 A 
ATOM     15  C   UNL     1      -0.417   1.391   2.349  0.00  0.00    +0.124 A 
ATOM     16  C   UNL     1       0.935   1.444   2.038  0.00  0.00    -0.002 A 
ATOM     17  C   UNL     1       1.885   1.510   3.033  0.00  0.00    +0.007 A 
ATOM     18  C   UNL     1       1.045   1.411   0.526  0.00  0.00    +0.085 C 
ATOM     19  C   UNL     1      -0.369   0.935   0.113  0.00  0.00    +0.199 C 
ATOM     20  O   UNL     1      -1.181   1.352   1.223  0.00  0.00    -0.486 OA
ENDBRANCH   1  19
BRANCH   1  21
ATOM     21  N   UNL     1      -0.673   3.076  -1.035  0.00  0.00    -0.321 NA
ATOM     22  H   UNL     1      -0.995   3.570  -1.964  0.00  0.00    +0.119 HD
ATOM     23  H   UNL     1      -1.298   3.425  -0.200  0.00  0.00    +0.119 HD
ENDBRANCH   1  21
TORSDOF 3
