REMARK  Name = ZINC63818108
REMARK  11 active torsions:
REMARK  status: ('A' for Active; 'I' for Inactive)
REMARK    1  A    between atoms: CD1_1  and  CG1_2
REMARK    2  A    between atoms: CG1_2  and  CB_3
REMARK    3  A    between atoms: CB_3  and  CG2_5
REMARK    4  A    between atoms: CB_3  and  CA_6
REMARK    5  A    between atoms: CA_6  and  C_8
REMARK    6  A    between atoms: CA_6  and  N_10
REMARK    7  A    between atoms: C_8  and  O_9
REMARK    8  A    between atoms: C_11  and  C_13
REMARK    9  A    between atoms: N_21  and  C_24
REMARK   10  A    between atoms: C_24  and  C_25
REMARK   11  A    between atoms: C_25  and  C_26
REMARK                            x       y       z     vdW  Elec       q    Type
REMARK                         _______ _______ _______ _____ _____    ______ ____
ROOT
ATOM      1  C   UNK A   0       2.776  -4.097   3.686  0.00  0.00    +0.037 A 
ATOM      2  C   UNK A   0       2.565  -3.354   4.847  0.00  0.00    +0.014 A 
ATOM      3  C   UNK A   0       3.087  -3.782   6.056  0.00  0.00    +0.014 A 
ATOM      4  C   UNK A   0       3.823  -4.955   6.113  0.00  0.00    +0.049 A 
ATOM      5  C   UNK A   0       4.040  -5.711   4.943  0.00  0.00    +0.050 A 
ATOM      6  C   UNK A   0       3.512  -5.284   3.736  0.00  0.00    +0.027 A 
ATOM      7  C   UNK A   0       4.848  -6.877   5.359  0.00  0.00    +0.254 C 
ATOM      8  O   UNK A   0       5.239  -7.764   4.628  0.00  0.00    -0.270 OA
ATOM      9  N   UNK A   0       5.077  -6.792   6.681  0.00  0.00    -0.234 N 
ATOM     10  C   UNK A   0       4.508  -5.689   7.201  0.00  0.00    +0.254 C 
ATOM     11  O   UNK A   0       4.548  -5.353   8.367  0.00  0.00    -0.270 OA
ENDROOT
BRANCH   1  13
ATOM     12  N   ILE A   1       1.504  -2.486   2.348  0.00  0.00    -0.306 N 
ATOM     13  C   UNK A   0       2.214  -3.631   2.398  0.00  0.00    +0.244 C 
ATOM     14  O   UNK A   0       2.393  -4.280   1.387  0.00  0.00    -0.270 OA
ATOM     15  H   ILE A   1       1.361  -1.968   3.155  0.00  0.00    +0.149 HD
BRANCH  12  16
ATOM     16  CA  ILE A   1       0.948  -2.025   1.073  0.00  0.00    +0.101 C 
BRANCH  16  17
ATOM     17  CB  ILE A   1       0.757  -0.508   1.120  0.00  0.00    +0.008 C 
ATOM     18  CG2 ILE A   1       0.263  -0.014  -0.242  0.00  0.00    +0.009 C 
BRANCH  17  20
ATOM     19  CD1 ILE A   1       1.876   1.669   1.621  0.00  0.00    +0.004 C 
ATOM     20  CG1 ILE A   1       2.091   0.164   1.452  0.00  0.00    +0.002 C 
ENDBRANCH  17  20
ENDBRANCH  16  17
BRANCH  16  21
ATOM     21  C   ILE A   1      -0.403  -2.702   0.832  0.00  0.00    +0.178 C 
BRANCH  21  22
ATOM     22  O   ILE A   1      -1.335  -2.273   1.826  0.00  0.00    -0.393 OA
ATOM     23  H   ILE A   1      -2.215  -2.663   1.734  0.00  0.00    +0.209 HD
ENDBRANCH  21  22
ENDBRANCH  16  21
ENDBRANCH  12  16
ENDBRANCH   1  13
BRANCH   9  24
ATOM     24  C   UNK A   0       5.846  -7.771   7.454  0.00  0.00    +0.121 C 
BRANCH  24  25
ATOM     25  C   UNK A   0       7.321  -7.366   7.466  0.00  0.00    +0.052 C 
BRANCH  25  26
ATOM     26  C   UNK A   0       8.112  -8.372   8.261  0.00  0.00    -0.040 C 
ATOM     27  C   UNK A   0       8.787  -9.440   7.778  0.00  0.00    -0.001 A 
ATOM     28  C   UNK A   0       8.979  -9.964   6.421  0.00  0.00    +0.010 A 
ATOM     29  C   UNK A   0       9.725 -11.080   6.248  0.00  0.00    +0.001 A 
ATOM     30  C   UNK A   0      10.317 -11.746   7.330  0.00  0.00    +0.002 A 
ATOM     31  C   UNK A   0      10.185 -11.325   8.605  0.00  0.00    +0.026 A 
ATOM     32  C   UNK A   0       9.423 -10.162   8.903  0.00  0.00    +0.043 A 
ATOM     33  N   UNK A   0       9.152  -9.563  10.038  0.00  0.00    -0.380 N 
ATOM     34  C   UNK A   0       8.316  -8.389   9.759  0.00  0.00    +0.144 C 
ATOM     35  H   UNK A   0       9.455  -9.847  10.914  0.00  0.00    +0.160 HD
ENDBRANCH  25  26
ENDBRANCH  24  25
ENDBRANCH   9  24
TORSDOF 9
