REMARK  Name = ZINC10761489
REMARK  7 active torsions:
REMARK  status: ('A' for Active; 'I' for Inactive)
REMARK    1  A    between atoms: C_1  and  O_2
REMARK    2  A    between atoms: O_2  and  C_3
REMARK    3  A    between atoms: C_6  and  C_8
REMARK    4  A    between atoms: C_12  and  N_13
REMARK    5  A    between atoms: C_14  and  C_16
REMARK    6  A    between atoms: N_21  and  S_23
REMARK    7  A    between atoms: S_23  and  C_26
REMARK                            x       y       z     vdW  Elec       q    Type
REMARK                         _______ _______ _______ _____ _____    ______ ____
ROOT
ATOM      1  C   UNL     1      -0.692  -2.614   7.550  0.00  0.00    +0.069 A 
ATOM      2  C   UNL     1      -0.686  -3.953   8.125  0.00  0.00    -0.023 A 
ATOM      3  C   UNL     1      -1.292  -4.897   7.375  0.00  0.00    -0.004 A 
ATOM      4  S   UNL     1      -1.877  -4.035   5.941  0.00  0.00    -0.077 S 
ATOM      5  C   UNL     1      -1.320  -2.441   6.326  0.00  0.00    +0.084 A 
ATOM      6  C   UNL     1      -1.429  -6.357   7.676  0.00  0.00    +0.043 C 
ATOM      7  C   UNL     1      -1.942  -6.532   9.112  0.00  0.00    +0.005 C 
ATOM      8  C   UNL     1      -0.739  -6.602  10.048  0.00  0.00    +0.001 C 
ATOM      9  C   UNL     1       0.392  -5.723   9.517  0.00  0.00    +0.005 C 
ATOM     10  C   UNL     1      -0.045  -4.263   9.472  0.00  0.00    +0.037 C 
ENDROOT
BRANCH   1  14
ATOM     11  C   UNL     1       1.819  -0.164   8.651  0.00  0.00    +0.407 C 
ATOM     12  O   UNL     1       1.176   0.507   9.433  0.00  0.00    -0.226 OA
ATOM     13  N   UNL     1       1.237  -1.199   8.014  0.00  0.00    -0.217 N 
ATOM     14  C   UNL     1      -0.059  -1.489   8.243  0.00  0.00    +0.255 C 
ATOM     15  O   UNL     1      -0.704  -0.817   9.026  0.00  0.00    -0.270 OA
ATOM     16  H   UNL     1       1.751  -1.736   7.390  0.00  0.00    +0.161 HD
BRANCH  11  18
ATOM     17  C   UNL     1       3.674   1.254   9.144  0.00  0.00    +0.282 C 
ATOM     18  O   UNL     1       3.114   0.125   8.422  0.00  0.00    -0.453 OA
ENDBRANCH  11  18
ENDBRANCH   1  14
BRANCH   5  19
ATOM     19  N   UNL     1      -1.462  -1.277   5.588  0.00  0.00    -0.279 N 
ATOM     20  C   UNL     1      -2.106  -1.304   4.404  0.00  0.00    +0.222 C 
ATOM     21  O   UNL     1      -2.561  -2.347   3.985  0.00  0.00    -0.275 OA
ATOM     22  H   UNL     1      -1.098  -0.442   5.923  0.00  0.00    +0.155 HD
BRANCH  20  23
ATOM     23  C   UNL     1      -2.260  -0.038   3.601  0.00  0.00    +0.091 C 
ATOM     24  C   UNL     1      -3.038   0.995   4.420  0.00  0.00    +0.015 C 
ATOM     25  C   UNL     1      -3.166   2.292   3.619  0.00  0.00    +0.018 C 
ATOM     26  C   UNL     1      -3.943   2.016   2.328  0.00  0.00    +0.109 C 
ATOM     27  N   UNL     1      -3.281   0.922   1.603  0.00  0.00    -0.175 NA
ATOM     28  C   UNL     1      -3.032  -0.343   2.308  0.00  0.00    +0.122 C 
BRANCH  27  29
ATOM     29  S   UNL     1      -2.832   1.109   0.021  0.00  0.00    +0.067 S 
ATOM     30  O   UNL     1      -3.664   2.126  -0.521  0.00  0.00    -0.152 OA
ATOM     31  O   UNL     1      -2.761  -0.196  -0.538  0.00  0.00    -0.152 OA
BRANCH  29  32
ATOM     32  C   UNL     1      -1.190   1.748   0.017  0.00  0.00    +0.143 A 
ATOM     33  C   UNL     1      -0.013   1.076   0.008  0.00  0.00    +0.036 A 
ATOM     34  C   UNL     1       1.169   1.793   0.001  0.00  0.00    +0.010 A 
ATOM     35  C   UNL     1       1.115   3.148   0.008  0.00  0.00    +0.047 A 
ATOM     36  S   UNL     1      -0.644   3.448   0.027  0.00  0.00    -0.077 S 
ENDBRANCH  29  32
ENDBRANCH  27  29
ENDBRANCH  20  23
ENDBRANCH   5  19
TORSDOF 6
