REMARK  Name = ZINC04704730
REMARK  5 active torsions:
REMARK  status: ('A' for Active; 'I' for Inactive)
REMARK    1  A    between atoms: C_1  and  C_2
REMARK    2  A    between atoms: C_2  and  O_3
REMARK    3  A    between atoms: O_3  and  C_4
REMARK    4  A    between atoms: C_7  and  N_10
REMARK    5  A    between atoms: C_16  and  C_17
REMARK                            x       y       z     vdW  Elec       q    Type
REMARK                         _______ _______ _______ _____ _____    ______ ____
ROOT
ATOM      1  N   UNL     1       0.784  -6.489   0.396  0.00  0.00    -0.226 NA
ATOM      2  C   UNL     1       0.976  -5.193   0.288  0.00  0.00    +0.166 C 
ATOM      3  N   UNL     1       0.034  -4.190   0.212  0.00  0.00    -0.260 N 
ATOM      4  C   UNL     1       0.406  -2.925   0.113  0.00  0.00    +0.256 C 
ATOM      5  O   UNL     1      -0.413  -2.025   0.052  0.00  0.00    -0.269 OA
ATOM      6  C   UNL     1       1.850  -2.651   0.073  0.00  0.00    +0.078 C 
ATOM      7  C   UNL     1       2.502  -1.459  -0.030  0.00  0.00    +0.035 C 
ATOM      8  S   UNL     1       2.521  -4.303   0.203  0.00  0.00    -0.049 S 
ATOM      9  H   UNL     1      -0.909  -4.413   0.238  0.00  0.00    +0.157 HD
ENDROOT
BRANCH   1  13
ATOM     10  C   UNL     1      -3.066  -8.005   0.550  0.00  0.00    +0.121 A 
ATOM     11  C   UNL     1      -2.117  -8.610  -0.261  0.00  0.00    +0.048 A 
ATOM     12  C   UNL     1      -0.833  -8.108  -0.316  0.00  0.00    +0.031 A 
ATOM     13  C   UNL     1      -0.489  -6.990   0.447  0.00  0.00    +0.067 A 
ATOM     14  C   UNL     1      -1.447  -6.389   1.266  0.00  0.00    +0.031 A 
ATOM     15  C   UNL     1      -2.730  -6.893   1.310  0.00  0.00    +0.048 A 
BRANCH  10  16
ATOM     16  O   UNL     1      -4.331  -8.503   0.601  0.00  0.00    -0.492 OA
BRANCH  16  18
ATOM     17  C   UNL     1      -6.617  -8.531   1.383  0.00  0.00    +0.048 C 
ATOM     18  C   UNL     1      -5.258  -7.832   1.457  0.00  0.00    +0.225 C 
ENDBRANCH  16  18
ENDBRANCH  10  16
ENDBRANCH   1  13
BRANCH   7  19
ATOM     19  C   UNL     1       1.774  -0.275  -0.296  0.00  0.00    +0.013 A 
ATOM     20  C   UNL     1       2.031   1.025   0.123  0.00  0.00    +0.015 A 
ATOM     21  C   UNL     1       1.151   1.997  -0.286  0.00  0.00    +0.008 A 
ATOM     22  C   UNL     1       0.094   1.649  -1.065  0.00  0.00    +0.046 A 
ATOM     23  S   UNL     1       0.287  -0.062  -1.259  0.00  0.00    -0.097 S 
ENDBRANCH   7  19
TORSDOF 4
