REMARK  Name = ZINC02363156
REMARK  4 active torsions:
REMARK  status: ('A' for Active; 'I' for Inactive)
REMARK    1  A    between atoms: C_1  and  O_2
REMARK    2  A    between atoms: O_2  and  C_3
REMARK    3  A    between atoms: C_6  and  C_9
REMARK    4  A    between atoms: C_27  and  C_29
REMARK                            x       y       z     vdW  Elec       q    Type
REMARK                         _______ _______ _______ _____ _____    ______ ____
ROOT
ATOM      1  C   UNL     1       2.587  -2.550   4.310  0.00  0.00    +0.234 C 
ATOM      2  C   UNL     1       4.007  -2.849   3.930  0.00  0.00    +0.027 C 
ATOM      3  C   UNL     1       4.329  -4.019   3.340  0.00  0.00    +0.083 C 
ATOM      4  C   UNL     1       3.231  -4.988   3.097  0.00  0.00    +0.045 A 
ATOM      5  C   UNL     1       3.385  -6.055   2.223  0.00  0.00    +0.052 A 
ATOM      6  C   UNL     1       2.335  -6.934   2.025  0.00  0.00    +0.124 A 
ATOM      7  C   UNL     1       1.136  -6.748   2.696  0.00  0.00    +0.042 A 
ATOM      8  C   UNL     1       0.977  -5.687   3.568  0.00  0.00    +0.049 A 
ATOM      9  C   UNL     1       2.020  -4.803   3.776  0.00  0.00    +0.131 A 
ATOM     10  O   UNL     1       1.894  -3.759   4.629  0.00  0.00    -0.479 OA
ATOM     11  F   UNL     1       2.477  -7.974   1.176  0.00  0.00    -0.205 F 
ATOM     12  N   UNL     1       5.605  -4.304   2.982  0.00  0.00    -0.213 NA
ATOM     13  C   UNL     1       6.626  -3.501   3.175  0.00  0.00    +0.237 C 
ATOM     14  N   UNL     1       7.940  -3.628   2.888  0.00  0.00    -0.205 NA
ATOM     15  C   UNL     1       8.592  -2.564   3.268  0.00  0.00    +0.203 C 
ATOM     16  N   UNL     1       7.726  -1.676   3.829  0.00  0.00    -0.251 N 
ATOM     17  N   UNL     1       6.462  -2.268   3.773  0.00  0.00    -0.208 N 
ATOM     18  C   UNL     1       5.117  -1.856   4.194  0.00  0.00    +0.159 C 
ATOM     19  H   UNL     1       7.943  -0.805   4.197  0.00  0.00    +0.171 HD
ENDROOT
BRANCH   1  23
ATOM     20  C   UNL     1       0.626  -0.618   1.042  0.00  0.00    +0.120 A 
ATOM     21  C   UNL     1       1.202   0.138   2.051  0.00  0.00    +0.046 A 
ATOM     22  C   UNL     1       1.835  -0.488   3.107  0.00  0.00    +0.011 A 
ATOM     23  C   UNL     1       1.895  -1.869   3.158  0.00  0.00    -0.003 A 
ATOM     24  C   UNL     1       1.322  -2.625   2.152  0.00  0.00    +0.011 A 
ATOM     25  C   UNL     1       0.682  -2.003   1.098  0.00  0.00    +0.046 A 
BRANCH  20  27
ATOM     26  C   UNL     1      -0.017   1.425   0.010  0.00  0.00    +0.277 C 
ATOM     27  O   UNL     1       0.002  -0.004   0.002  0.00  0.00    -0.495 OA
ENDBRANCH  20  27
ENDBRANCH   1  23
BRANCH  18  28
ATOM     28  C   UNL     1       5.154  -1.575   5.674  0.00  0.00    -0.021 A 
ATOM     29  C   UNL     1       5.776  -2.463   6.532  0.00  0.00    +0.006 A 
ATOM     30  C   UNL     1       5.809  -2.204   7.889  0.00  0.00    +0.000 A 
ATOM     31  C   UNL     1       5.221  -1.058   8.390  0.00  0.00    +0.000 A 
ATOM     32  C   UNL     1       4.599  -0.169   7.532  0.00  0.00    +0.000 A 
ATOM     33  C   UNL     1       4.570  -0.425   6.174  0.00  0.00    +0.006 A 
ENDBRANCH  18  28
TORSDOF 3
