REMARK  Name = ZINC44450042
REMARK  7 active torsions:
REMARK  status: ('A' for Active; 'I' for Inactive)
REMARK    1  A    between atoms: C_1  and  C_2
REMARK    2  A    between atoms: C_2  and  C_3
REMARK    3  A    between atoms: C_2  and  C_4
REMARK    4  A    between atoms: C_2  and  C_5
REMARK    5  A    between atoms: C_8  and  N_11
REMARK    6  A    between atoms: N_14  and  C_15
REMARK    7  A    between atoms: C_21  and  N_23
REMARK                            x       y       z     vdW  Elec       q    Type
REMARK                         _______ _______ _______ _____ _____    ______ ____
ROOT
ATOM      1  N   UNL     1       2.393  -1.684  -4.945  0.00  0.00    -0.269 N 
ATOM      2  C   UNL     1       3.675  -1.307  -5.120  0.00  0.00    +0.304 C 
ATOM      3  O   UNL     1       4.226  -0.617  -4.284  0.00  0.00    -0.253 OA
ATOM      4  N   UNL     1       4.347  -1.694  -6.222  0.00  0.00    -0.295 N 
ATOM      5  H   UNL     1       1.981  -2.304  -5.567  0.00  0.00    +0.156 HD
ATOM      6  H   UNL     1       3.908  -2.244  -6.890  0.00  0.00    +0.151 HD
ENDROOT
BRANCH   1  10
ATOM      7  C   UNL     1       0.200  -0.186  -1.735  0.00  0.00    -0.042 A 
ATOM      8  C   UNL     1       1.258   0.542  -2.248  0.00  0.00    +0.006 A 
ATOM      9  C   UNL     1       1.987   0.048  -3.312  0.00  0.00    +0.023 A 
ATOM     10  C   UNL     1       1.657  -1.181  -3.866  0.00  0.00    +0.035 A 
ATOM     11  C   UNL     1       0.594  -1.910  -3.349  0.00  0.00    +0.023 A 
ATOM     12  C   UNL     1      -0.127  -1.413  -2.281  0.00  0.00    +0.006 A 
BRANCH   7  14
ATOM     13  C   UNL     1      -0.496  -0.613   0.607  0.00  0.00    +0.015 C 
ATOM     14  C   UNL     1      -0.593   0.356  -0.574  0.00  0.00    -0.013 C 
ATOM     15  C   UNL     1      -2.058   0.513  -0.986  0.00  0.00    +0.015 C 
ATOM     16  C   UNL     1      -0.030   1.718  -0.163  0.00  0.00    +0.015 C 
ENDBRANCH   7  14
ENDBRANCH   1  10
BRANCH   4  17
ATOM     17  C   UNL     1       5.741  -1.284  -6.413  0.00  0.00    +0.095 C 
ATOM     18  C   UNL     1       6.664  -2.263  -5.684  0.00  0.00    +0.024 C 
ATOM     19  C   UNL     1       8.120  -1.834  -5.883  0.00  0.00    +0.002 C 
ATOM     20  C   UNL     1       8.452  -1.835  -7.377  0.00  0.00    +0.002 C 
ATOM     21  C   UNL     1       7.528  -0.856  -8.105  0.00  0.00    +0.025 C 
ATOM     22  C   UNL     1       6.073  -1.284  -7.906  0.00  0.00    +0.105 C 
BRANCH  22  23
ATOM     23  N   UNL     1       5.882  -2.632  -8.449  0.00  0.00    -0.228 N 
ATOM     24  C   UNL     1       5.005  -2.795  -9.425  0.00  0.00    +0.233 C 
ATOM     25  O   UNL     1       4.361  -1.874  -9.879  0.00  0.00    -0.274 OA
ATOM     26  C   UNL     1       4.859  -4.221  -9.939  0.00  0.00    +0.175 C 
ATOM     27  S   UNL     1       6.080  -5.072  -8.853  0.00  0.00    -0.058 S 
ATOM     28  C   UNL     1       6.612  -3.637  -7.931  0.00  0.00    +0.281 C 
ATOM     29  O   UNL     1       7.440  -3.582  -7.043  0.00  0.00    -0.262 OA
ENDBRANCH  22  23
ENDBRANCH   4  17
TORSDOF 4
