REMARK  Name = ZINC16827710
REMARK  5 active torsions:
REMARK  status: ('A' for Active; 'I' for Inactive)
REMARK    1  A    between atoms: C_1  and  C_2
REMARK    2  A    between atoms: C_2  and  C_4
REMARK    3  A    between atoms: C_2  and  S_19
REMARK    4  A    between atoms: N_6  and  C_7
REMARK    5  A    between atoms: S_19  and  C_20
REMARK                            x       y       z     vdW  Elec       q    Type
REMARK                         _______ _______ _______ _____ _____    ______ ____
ROOT
ATOM      1  C   UNL     1       2.623   7.706  -0.008  0.00  0.00    +0.230 C 
ATOM      2  O   UNL     1       3.670   8.051  -0.514  0.00  0.00    -0.274 OA
ATOM      3  N   UNL     1       1.876   8.600   0.671  0.00  0.00    -0.285 N 
ATOM      4  H   UNL     1       1.004   8.345   1.010  0.00  0.00    +0.155 HD
ENDROOT
BRANCH   3   5
ATOM      5  C   UNL     1       2.360   9.897   0.886  0.00  0.00    +0.035 A 
ATOM      6  C   UNL     1       1.476  10.970   0.923  0.00  0.00    +0.025 A 
ATOM      7  C   UNL     1       1.946  12.250   1.134  0.00  0.00    +0.029 A 
ATOM      8  C   UNL     1       3.304  12.468   1.311  0.00  0.00    +0.067 A 
ATOM      9  C   UNL     1       4.194  11.393   1.276  0.00  0.00    +0.069 A 
ATOM     10  C   UNL     1       3.719  10.108   1.068  0.00  0.00    +0.051 A 
ATOM     11  N   UNL     1       5.468  11.918   1.482  0.00  0.00    -0.306 N 
ATOM     12  H   UNL     1       6.294  11.409   1.510  0.00  0.00    +0.170 HD
ATOM     13  C   UNL     1       5.359  13.251   1.636  0.00  0.00    +0.325 A 
ATOM     14  O   UNL     1       6.288  14.011   1.833  0.00  0.00    -0.247 OA
ATOM     15  N   UNL     1       4.066  13.614   1.538  0.00  0.00    -0.306 N 
ATOM     16  H   UNL     1       3.724  14.518   1.613  0.00  0.00    +0.170 HD
ENDBRANCH   3   5
BRANCH   1  18
ATOM     17  C   UNL     1       1.200   6.161  -1.325  0.00  0.00    +0.029 C 
ATOM     18  C   UNL     1       2.157   6.279  -0.137  0.00  0.00    +0.137 C 
BRANCH  18  19
ATOM     19  S   UNL     1       3.586   5.200  -0.403  0.00  0.00    -0.075 S 
BRANCH  19  20
ATOM     20  C   UNL     1       2.792   3.627  -0.366  0.00  0.00    +0.168 A 
ATOM     21  N   UNL     1       3.424   2.425  -0.522  0.00  0.00    -0.333 N 
ATOM     22  H   UNL     1       4.402   2.284  -0.675  0.00  0.00    +0.168 HD
ATOM     23  C   UNL     1       2.456   1.438  -0.428  0.00  0.00    +0.068 A 
ATOM     24  C   UNL     1       2.485   0.054  -0.503  0.00  0.00    +0.047 A 
ATOM     25  C   UNL     1       1.315  -0.666  -0.366  0.00  0.00    +0.043 A 
ATOM     26  C   UNL     1       0.109  -0.013  -0.154  0.00  0.00    +0.022 A 
ATOM     27  C   UNL     1       0.063   1.361  -0.077  0.00  0.00    +0.031 A 
ATOM     28  C   UNL     1       1.238   2.104  -0.213  0.00  0.00    +0.090 A 
ATOM     29  N   UNL     1       1.509   3.435  -0.186  0.00  0.00    -0.222 NA
ATOM     30 CL   UNL     1       1.353  -2.399  -0.460  0.00  0.00    -0.083 Cl
ENDBRANCH  19  20
ENDBRANCH  18  19
ENDBRANCH   1  18
TORSDOF 4
