REMARK  Name = ZINC21125833
REMARK  11 active torsions:
REMARK  status: ('A' for Active; 'I' for Inactive)
REMARK    1  A    between atoms: C_1  and  C_2
REMARK    2  A    between atoms: C_7  and  N_8
REMARK    3  A    between atoms: C_21  and  S_22
REMARK    4  A    between atoms: S_22  and  C_23
REMARK    5  A    between atoms: C_23  and  C_24
REMARK    6  A    between atoms: N_26  and  C_27
REMARK    7  A    between atoms: C_27  and  C_28
REMARK    8  A    between atoms: C_27  and  C_29
REMARK    9  A    between atoms: C_27  and  C_31
REMARK   10  A    between atoms: C_31  and  C_32
REMARK   11  A    between atoms: C_31  and  C_33
REMARK                            x       y       z     vdW  Elec       q    Type
REMARK                         _______ _______ _______ _____ _____    ______ ____
ROOT
ATOM      1  N   UNL     1      -1.061   2.218   0.019  0.00  0.00    -0.245 N 
ATOM      2  C   UNL     1      -0.823   3.546   0.030  0.00  0.00    +0.268 A 
ATOM      3  O   UNL     1      -1.746   4.339   0.043  0.00  0.00    -0.267 OA
ATOM      4  C   UNL     1       0.572   4.022   0.019  0.00  0.00    +0.064 A 
ATOM      5  C   UNL     1       0.872   5.383   0.024  0.00  0.00    +0.015 A 
ATOM      6  C   UNL     1       2.189   5.791   0.015  0.00  0.00    +0.001 A 
ATOM      7  C   UNL     1       3.212   4.855  -0.000  0.00  0.00    +0.002 A 
ATOM      8  C   UNL     1       2.928   3.504  -0.006  0.00  0.00    +0.027 A 
ATOM      9  C   UNL     1       1.609   3.075   0.004  0.00  0.00    +0.064 A 
ATOM     10  N   UNL     1       1.290   1.723  -0.001  0.00  0.00    -0.255 N 
ATOM     11  C   UNL     1      -0.016   1.308   0.009  0.00  0.00    +0.245 A 
ATOM     12  N   UNL     1       0.002  -0.004   0.002  0.00  0.00    -0.109 NA
ATOM     13  N   UNL     1       1.214  -0.430  -0.012  0.00  0.00    -0.120 NA
ATOM     14  C   UNL     1       2.048   0.583  -0.015  0.00  0.00    +0.198 A 
ENDROOT
BRANCH   1  21
ATOM     15  C   UNL     1      -2.345   1.796  -2.485  0.00  0.00    +0.046 C 
ATOM     16  C   UNL     1      -3.045   1.534  -1.177  0.00  0.00    -0.026 A 
ATOM     17  C   UNL     1      -4.347   1.071  -1.169  0.00  0.00    +0.005 A 
ATOM     18  C   UNL     1      -4.992   0.836   0.031  0.00  0.00    +0.000 A 
ATOM     19  C   UNL     1      -4.335   1.058   1.228  0.00  0.00    +0.002 A 
ATOM     20  C   UNL     1      -3.032   1.516   1.227  0.00  0.00    +0.026 A 
ATOM     21  C   UNL     1      -2.381   1.754   0.023  0.00  0.00    +0.056 A 
ENDBRANCH   1  21
BRANCH  14  22
ATOM     22  S   UNL     1       3.808   0.493  -0.032  0.00  0.00    -0.076 S 
BRANCH  22  23
ATOM     23  C   UNL     1       4.156  -1.287  -0.045  0.00  0.00    +0.173 C 
BRANCH  23  24
ATOM     24  C   UNL     1       5.647  -1.507  -0.061  0.00  0.00    +0.224 C 
ATOM     25  O   UNL     1       6.400  -0.556  -0.064  0.00  0.00    -0.275 OA
ATOM     26  N   UNL     1       6.143  -2.760  -0.073  0.00  0.00    -0.297 N 
ATOM     27  H   UNL     1       5.460  -3.622  -0.070  0.00  0.00    +0.150 HD
BRANCH  26  28
ATOM     28  C   UNL     1       7.592  -2.974  -0.088  0.00  0.00    +0.121 C 
ATOM     29  C   UNL     1       8.190  -2.328  -1.340  0.00  0.00    +0.048 C 
BRANCH  28  30
ATOM     30  C   UNL     1       7.886  -4.475  -0.099  0.00  0.00    +0.020 C 
ATOM     31  C   UNL     1       7.373  -5.086  -1.404  0.00  0.00    +0.010 C 
ATOM     32  C   UNL     1       9.396  -4.700   0.011  0.00  0.00    +0.010 C 
ENDBRANCH  28  30
BRANCH  28  33
ATOM     33  C   UNL     1       8.191  -2.365   1.111  0.00  0.00    +0.088 C 
ATOM     34  N   UNL     1       8.653  -1.895   2.037  0.00  0.00    -0.194 NA
ENDBRANCH  28  33
ENDBRANCH  26  28
ENDBRANCH  23  24
ENDBRANCH  22  23
ENDBRANCH  14  22
TORSDOF 7
