REMARK  Name = ZINC14066267
REMARK  13 active torsions:
REMARK  status: ('A' for Active; 'I' for Inactive)
REMARK    1  A    between atoms: C_1  and  C_2
REMARK    2  A    between atoms: C_2  and  N_63
REMARK    3  A    between atoms: C_3  and  C_4
REMARK    4  A    between atoms: C_3  and  N_63
REMARK    5  A    between atoms: N_6  and  C_7
REMARK    6  A    between atoms: C_7  and  C_8
REMARK    7  A    between atoms: C_15  and  C_16
REMARK    8  A    between atoms: C_15  and  N_63
REMARK    9  A    between atoms: N_18  and  C_19
REMARK   10  A    between atoms: C_20  and  C_30
REMARK   11  A    between atoms: C_25  and  C_29
REMARK   12  A    between atoms: C_30  and  O_32
REMARK   13  A    between atoms: O_32  and  C_33
REMARK                            x       y       z     vdW  Elec       q    Type
REMARK                         _______ _______ _______ _____ _____    ______ ____
ROOT
ATOM      1  C   UNL     1      -4.080  -7.623   0.468  0.00  0.00    +0.020 C 
ENDROOT
BRANCH   1   2
ATOM      2  C   UNL     1      -3.574  -6.206   0.401  0.00  0.00    +0.201 C 
ATOM      3  O   UNL     1      -4.314  -5.313   0.047  0.00  0.00    -0.278 OA
ATOM      4  N   UNL     1      -2.297  -5.930   0.734  0.00  0.00    -0.281 N 
ATOM      5  H   UNL     1      -1.705  -6.644   1.017  0.00  0.00    +0.155 HD
BRANCH   4   6
ATOM      6  C   UNL     1      -1.831  -4.626   0.672  0.00  0.00    +0.086 A 
ATOM      7  C   UNL     1      -0.562  -4.148   0.972  0.00  0.00    +0.091 A 
ATOM      8  C   UNL     1      -0.330  -2.721   0.822  0.00  0.00    -0.021 A 
ATOM      9  C   UNL     1      -1.395  -2.006   0.399  0.00  0.00    -0.004 A 
ATOM     10  S   UNL     1      -2.690  -3.197   0.200  0.00  0.00    -0.077 S 
ATOM     11  C   UNL     1      -1.452  -0.530   0.155  0.00  0.00    +0.046 C 
ATOM     12  C   UNL     1      -0.014   0.007   0.096  0.00  0.00    -0.009 C 
ATOM     13  C   UNL     1       0.767  -0.544   1.292  0.00  0.00    +0.008 C 
ATOM     14  C   UNL     1       1.005  -2.045   1.112  0.00  0.00    +0.037 C 
ATOM     15  C   UNL     1      -0.034   1.535   0.157  0.00  0.00    +0.008 C 
BRANCH   7  16
ATOM     16  C   UNL     1       0.502  -5.048   1.422  0.00  0.00    +0.342 C 
ATOM     17  O   UNL     1       0.650  -5.269   2.609  0.00  0.00    -0.245 OA
BRANCH  16  18
ATOM     18  O   UNL     1       1.318  -5.632   0.521  0.00  0.00    -0.464 OA
ATOM     19  C   UNL     1       2.350  -6.512   1.038  0.00  0.00    +0.280 C 
ENDBRANCH  16  18
ENDBRANCH   7  16
ENDBRANCH   4   6
ENDBRANCH   1   2
BRANCH   1  20
ATOM     20  N   UNL     1      -5.527  -7.623   0.167  0.00  0.00    +0.391 N 
ATOM     21  H   UNL     1      -5.967  -6.826   0.641  0.00  0.00    -0.080 HD
BRANCH  20  23
ATOM     22  C   UNL     1      -6.338  -8.765   2.170  0.00  0.00    -0.017 C 
ATOM     23  C   UNL     1      -6.145  -8.874   0.656  0.00  0.00    -0.081 C 
ENDBRANCH  20  23
BRANCH  20  24
ATOM     24  C   UNL     1      -5.740  -7.492  -1.290  0.00  0.00    +0.019 C 
BRANCH  24  25
ATOM     25  C   UNL     1      -7.208  -7.273  -1.549  0.00  0.00    +0.197 C 
ATOM     26  O   UNL     1      -7.991  -7.249  -0.623  0.00  0.00    -0.278 OA
ATOM     27  N   UNL     1      -7.652  -7.106  -2.811  0.00  0.00    -0.313 N 
ATOM     28  H   UNL     1      -7.027  -7.126  -3.552  0.00  0.00    +0.149 HD
BRANCH  27  29
ATOM     29  C   UNL     1      -9.080  -6.894  -3.063  0.00  0.00    +0.139 C 
BRANCH  29  30
ATOM     30  C   UNL     1      -9.311  -6.736  -4.544  0.00  0.00    -0.030 A 
ATOM     31  C   UNL     1      -9.264  -5.480  -5.120  0.00  0.00    +0.006 A 
ATOM     32  C   UNL     1      -9.470  -5.335  -6.479  0.00  0.00    +0.020 A 
ATOM     33  C   UNL     1      -9.734  -6.446  -7.261  0.00  0.00    +0.041 A 
ATOM     34  C   UNL     1      -9.786  -7.701  -6.682  0.00  0.00    +0.020 A 
ATOM     35  C   UNL     1      -9.574  -7.846  -5.324  0.00  0.00    +0.006 A 
ATOM     36 CL   UNL     1      -9.999  -6.264  -8.967  0.00  0.00    -0.084 Cl
ENDBRANCH  29  30
ENDBRANCH  27  29
ENDBRANCH  24  25
ENDBRANCH  20  24
ENDBRANCH   1  20
TORSDOF 10
