REMARK  Name = ZINC15959417
REMARK  6 active torsions:
REMARK  status: ('A' for Active; 'I' for Inactive)
REMARK    1  A    between atoms: C_8  and  C_12
REMARK    2  A    between atoms: N_14  and  C_15
REMARK    3  A    between atoms: C_15  and  C_17
REMARK    4  A    between atoms: C_15  and  C_28
REMARK    5  A    between atoms: C_17  and  C_18
REMARK    6  A    between atoms: N_30  and  C_31
REMARK                            x       y       z     vdW  Elec       q    Type
REMARK                         _______ _______ _______ _____ _____    ______ ____
ROOT
ATOM      1  C   UNL     1       1.897  -6.522   0.766  0.00  0.00    +0.164 C 
ENDROOT
BRANCH   1   4
ATOM      2  C   UNL     1       2.174  -4.179   0.154  0.00  0.00    +0.231 C 
ATOM      3  O   UNL     1       2.832  -4.537  -0.800  0.00  0.00    -0.274 OA
ATOM      4  N   UNL     1       1.660  -5.095   0.999  0.00  0.00    -0.302 N 
ATOM      5  H   UNL     1       1.133  -4.809   1.762  0.00  0.00    +0.150 HD
BRANCH   2  13
ATOM      6  C   UNL     1      -1.103   1.057  -0.167  0.00  0.00    +0.000 A 
ATOM      7  C   UNL     1      -0.014   1.906  -0.088  0.00  0.00    +0.000 A 
ATOM      8  C   UNL     1       1.260   1.383  -0.009  0.00  0.00    +0.005 A 
ATOM      9  C   UNL     1       1.457   0.010  -0.009  0.00  0.00    -0.030 A 
ATOM     10  C   UNL     1       0.372  -0.836  -0.092  0.00  0.00    -0.041 A 
ATOM     11  C   UNL     1      -0.909  -0.310  -0.169  0.00  0.00    +0.004 A 
ATOM     12  C   UNL     1       0.536  -2.334  -0.108  0.00  0.00    +0.063 C 
ATOM     13  C   UNL     1       1.930  -2.712   0.394  0.00  0.00    +0.145 C 
ATOM     14  N   UNL     1       2.924  -1.915  -0.342  0.00  0.00    -0.301 NA
ATOM     15  C   UNL     1       2.867  -0.513   0.084  0.00  0.00    +0.117 C 
ATOM     16  H   UNL     1       3.852  -2.292  -0.221  0.00  0.00    +0.123 HD
ENDBRANCH   2  13
ENDBRANCH   1   4
BRANCH   1  17
ATOM     17  C   UNL     1       1.790  -7.269   2.070  0.00  0.00    +0.238 C 
ATOM     18  O   UNL     1       1.540  -6.668   3.094  0.00  0.00    -0.273 OA
ATOM     19  N   UNL     1       1.972  -8.604   2.099  0.00  0.00    -0.284 N 
ATOM     20  H   UNL     1       2.096  -9.095   1.271  0.00  0.00    +0.155 HD
BRANCH  19  21
ATOM     21  C   UNL     1       1.982  -9.283   3.324  0.00  0.00    +0.037 A 
ATOM     22  C   UNL     1       1.492 -10.580   3.404  0.00  0.00    +0.027 A 
ATOM     23  C   UNL     1       1.501 -11.250   4.612  0.00  0.00    +0.051 A 
ATOM     24  C   UNL     1       2.000 -10.630   5.748  0.00  0.00    +0.162 A 
ATOM     25  C   UNL     1       2.493  -9.333   5.671  0.00  0.00    +0.164 A 
ATOM     26  C   UNL     1       2.487  -8.663   4.458  0.00  0.00    +0.072 A 
ATOM     27  O   UNL     1       2.994  -8.712   6.774  0.00  0.00    -0.485 OA
ATOM     28  C   UNL     1       2.647  -9.276   8.044  0.00  0.00    +0.270 C 
ATOM     29  C   UNL     1       2.846 -10.796   7.965  0.00  0.00    +0.270 C 
ATOM     30  O   UNL     1       1.997 -11.305   6.931  0.00  0.00    -0.485 OA
ENDBRANCH  19  21
ENDBRANCH   1  17
BRANCH   1  31
ATOM     31  C   UNL     1       0.854  -7.058  -0.216  0.00  0.00    +0.069 C 
BRANCH  31  32
ATOM     32  C   UNL     1       1.041  -6.398  -1.558  0.00  0.00    -0.020 A 
ATOM     33  C   UNL     1       0.396  -5.311  -2.010  0.00  0.00    +0.087 A 
ATOM     34  N   UNL     1       0.828  -5.003  -3.272  0.00  0.00    -0.360 N 
ATOM     35  H   UNL     1       0.507  -4.259  -3.804  0.00  0.00    +0.165 HD
ATOM     36  C   UNL     1       1.786  -5.907  -3.672  0.00  0.00    +0.047 A 
ATOM     37  C   UNL     1       1.966  -6.817  -2.614  0.00  0.00    +0.003 A 
ATOM     38  C   UNL     1       2.893  -7.854  -2.737  0.00  0.00    +0.010 A 
ATOM     39  C   UNL     1       3.624  -7.978  -3.885  0.00  0.00    +0.001 A 
ATOM     40  C   UNL     1       3.453  -7.081  -4.930  0.00  0.00    +0.002 A 
ATOM     41  C   UNL     1       2.537  -6.056  -4.833  0.00  0.00    +0.026 A 
ENDBRANCH  31  32
ENDBRANCH   1  31
TORSDOF 6
