REMARK  Name = ZINC01990733
REMARK  14 active torsions:
REMARK  status: ('A' for Active; 'I' for Inactive)
REMARK    1  A    between atoms: C_1  and  C_2
REMARK    2  A    between atoms: C_5  and  O_9
REMARK    3  A    between atoms: O_9  and  C_10
REMARK    4  A    between atoms: C_10  and  C_11
REMARK    5  A    between atoms: C_11  and  C_12
REMARK    6  A    between atoms: C_12  and  C_13
REMARK    7  A    between atoms: N_15  and  C_16
REMARK    8  A    between atoms: C_17  and  C_30
REMARK    9  A    between atoms: C_22  and  C_26
REMARK   10  A    between atoms: C_26  and  C_27
REMARK   11  A    between atoms: C_26  and  C_28
REMARK   12  A    between atoms: C_26  and  C_29
REMARK   13  A    between atoms: C_30  and  O_32
REMARK   14  A    between atoms: O_32  and  C_33
REMARK                            x       y       z     vdW  Elec       q    Type
REMARK                         _______ _______ _______ _____ _____    ______ ____
ROOT
ATOM      1  C   UNL     1      -1.838  -4.615   0.674  0.00  0.00    +0.086 A 
ATOM      2  C   UNL     1      -0.579  -4.127   1.000  0.00  0.00    +0.091 A 
ATOM      3  C   UNL     1      -0.341  -2.706   0.810  0.00  0.00    -0.021 A 
ATOM      4  C   UNL     1      -1.390  -2.006   0.327  0.00  0.00    -0.004 A 
ATOM      5  S   UNL     1      -2.679  -3.203   0.126  0.00  0.00    -0.077 S 
ATOM      6  C   UNL     1      -1.437  -0.538   0.030  0.00  0.00    +0.046 C 
ATOM      7  C   UNL     1       0.002  -0.004   0.002  0.00  0.00    -0.000 C 
ATOM      8  C   UNL     1       0.742  -0.514   1.242  0.00  0.00    +0.009 C 
ATOM      9  C   UNL     1       0.984  -2.020   1.120  0.00  0.00    +0.037 C 
ENDROOT
BRANCH   1  12
ATOM     10  C   UNL     1      -3.572  -6.203   0.398  0.00  0.00    +0.218 C 
ATOM     11  O   UNL     1      -4.300  -5.323  -0.011  0.00  0.00    -0.275 OA
ATOM     12  N   UNL     1      -2.307  -5.916   0.764  0.00  0.00    -0.279 N 
ATOM     13  H   UNL     1      -1.647  -6.714   1.135  0.00  0.00    +0.155 HD
BRANCH  10  14
ATOM     14  C   UNL     1      -4.082  -7.618   0.496  0.00  0.00    +0.099 C 
BRANCH  14  15
ATOM     15  C   UNL     1      -5.536  -7.670   0.023  0.00  0.00    +0.050 C 
BRANCH  15  16
ATOM     16  C   UNL     1      -6.054  -9.106   0.122  0.00  0.00    +0.229 C 
BRANCH  16  17
ATOM     17  O   UNL     1      -7.412  -9.154  -0.320  0.00  0.00    -0.491 OA
BRANCH  17  22
ATOM     18  C   UNL     1      -9.958 -14.178  -0.213  0.00  0.00    +0.044 C 
ATOM     19  C   UNL     1      -9.277 -12.834  -0.242  0.00  0.00    -0.049 A 
ATOM     20  C   UNL     1      -7.963 -12.717   0.172  0.00  0.00    +0.007 A 
ATOM     21  C   UNL     1      -7.336 -11.486   0.147  0.00  0.00    +0.047 A 
ATOM     22  C   UNL     1      -8.026 -10.366  -0.295  0.00  0.00    +0.134 A 
ATOM     23  C   UNL     1      -9.347 -10.485  -0.705  0.00  0.00    +0.060 A 
ATOM     24  C   UNL     1      -9.968 -11.720  -0.682  0.00  0.00    +0.022 A 
ATOM     25 BR   UNL     1     -10.294  -8.961  -1.301  0.00  0.00    -0.047 Br
ENDBRANCH  17  22
ENDBRANCH  16  17
ENDBRANCH  15  16
ENDBRANCH  14  15
ENDBRANCH  10  14
ENDBRANCH   1  12
BRANCH   7  26
ATOM     26  C   UNL     1      -0.019   1.526   0.010  0.00  0.00    -0.035 C 
ATOM     27  C   UNL     1       1.417   2.055  -0.000  0.00  0.00    +0.011 C 
ATOM     28  C   UNL     1      -0.759   2.033  -1.229  0.00  0.00    +0.011 C 
ATOM     29  C   UNL     1      -0.735   2.019   1.269  0.00  0.00    +0.011 C 
ENDBRANCH   7  26
BRANCH   2  30
ATOM     30  C   UNL     1       0.468  -5.011   1.516  0.00  0.00    +0.342 C 
ATOM     31  O   UNL     1       0.576  -5.191   2.714  0.00  0.00    -0.245 OA
BRANCH  30  32
ATOM     32  O   UNL     1       1.313  -5.625   0.662  0.00  0.00    -0.464 OA
ATOM     33  C   UNL     1       2.327  -6.486   1.244  0.00  0.00    +0.280 C 
ENDBRANCH  30  32
ENDBRANCH   2  30
TORSDOF 9
