REMARK  Name = ZINC58436553
REMARK  8 active torsions:
REMARK  status: ('A' for Active; 'I' for Inactive)
REMARK    1  A    between atoms: C_1  and  C_2
REMARK    2  A    between atoms: N_5  and  C_8
REMARK    3  A    between atoms: C_8  and  C_10
REMARK    4  A    between atoms: C_8  and  C_28
REMARK    5  A    between atoms: C_10  and  N_11
REMARK    6  A    between atoms: N_14  and  C_15
REMARK    7  A    between atoms: C_15  and  C_17
REMARK    8  A    between atoms: C_15  and  C_18
REMARK                            x       y       z     vdW  Elec       q    Type
REMARK                         _______ _______ _______ _____ _____    ______ ____
ROOT
ATOM      1  N   UNL     1       1.256  -3.634   2.781  0.00  0.00    -0.301 N 
ATOM      2  C   UNL     1       2.092  -3.867   3.812  0.00  0.00    +0.300 C 
ATOM      3  O   UNL     1       1.758  -4.618   4.708  0.00  0.00    -0.253 OA
ATOM      4  N   UNL     1       3.300  -3.269   3.848  0.00  0.00    -0.293 N 
ATOM      5  H   UNL     1       1.522  -3.035   2.066  0.00  0.00    +0.150 HD
ATOM      6  H   UNL     1       3.566  -2.671   3.133  0.00  0.00    +0.151 HD
ENDROOT
BRANCH   4   7
ATOM      7  C   UNL     1       4.209  -3.523   4.968  0.00  0.00    +0.102 C 
ATOM      8  C   UNL     1       5.012  -4.796   4.695  0.00  0.00    +0.033 C 
BRANCH   7   9
ATOM      9  C   UNL     1       5.153  -2.358   5.123  0.00  0.00    -0.024 A 
ATOM     10  C   UNL     1       5.676  -1.740   4.003  0.00  0.00    +0.009 A 
ATOM     11  C   UNL     1       6.543  -0.673   4.141  0.00  0.00    +0.050 A 
ATOM     12  C   UNL     1       6.889  -0.218   5.404  0.00  0.00    +0.162 A 
ATOM     13  C   UNL     1       6.361  -0.837   6.531  0.00  0.00    +0.162 A 
ATOM     14  C   UNL     1       5.488  -1.905   6.385  0.00  0.00    +0.055 A 
ATOM     15  O   UNL     1       6.681  -0.402   7.780  0.00  0.00    -0.485 OA
ATOM     16  C   UNL     1       7.840   0.431   7.894  0.00  0.00    +0.270 C 
ATOM     17  C   UNL     1       7.775   1.498   6.792  0.00  0.00    +0.270 C 
ATOM     18  O   UNL     1       7.747   0.832   5.525  0.00  0.00    -0.485 OA
ENDBRANCH   7   9
ENDBRANCH   4   7
BRANCH   1  19
ATOM     19  C   UNL     1      -0.056  -4.284   2.741  0.00  0.00    +0.095 C 
BRANCH  19  20
ATOM     20  C   UNL     1      -0.748  -3.956   1.416  0.00  0.00    -0.013 C 
BRANCH  20  25
ATOM     21  C   UNL     1      -6.322  -5.139   1.188  0.00  0.00    +0.007 C 
ATOM     22  C   UNL     1      -4.978  -4.407   1.174  0.00  0.00    -0.018 C 
ATOM     23  C   UNL     1      -4.095  -4.981   0.062  0.00  0.00    -0.015 C 
ATOM     24  C   UNL     1      -2.725  -4.300   0.105  0.00  0.00    -0.078 C 
ATOM     25  N   UNL     1      -2.094  -4.544   1.408  0.00  0.00    +0.386 N 
ATOM     26  C   UNL     1      -2.899  -3.935   2.473  0.00  0.00    -0.078 C 
ATOM     27  C   UNL     1      -4.276  -4.601   2.522  0.00  0.00    -0.015 C 
ATOM     28  H   UNL     1      -2.025  -5.538   1.566  0.00  0.00    -0.081 HD
ENDBRANCH  20  25
BRANCH  20  29
ATOM     29  C   UNL     1       0.056  -4.525   0.276  0.00  0.00    -0.022 A 
ATOM     30  C   UNL     1       0.931  -3.898  -0.548  0.00  0.00    +0.009 A 
ATOM     31  C   UNL     1       1.562  -4.628  -1.537  0.00  0.00    +0.008 A 
ATOM     32  C   UNL     1       1.287  -5.950  -1.655  0.00  0.00    +0.045 A 
ATOM     33  S   UNL     1       0.108  -6.201  -0.337  0.00  0.00    -0.103 S 
ENDBRANCH  20  29
ENDBRANCH  19  20
ENDBRANCH   1  19
TORSDOF 6
