REMARK  Name = ZINC02927586
REMARK  7 active torsions:
REMARK  status: ('A' for Active; 'I' for Inactive)
REMARK    1  A    between atoms: C_1  and  C_2
REMARK    2  A    between atoms: C_2  and  C_3
REMARK    3  A    between atoms: C_3  and  C_5
REMARK    4  A    between atoms: C_3  and  N_18
REMARK    5  A    between atoms: N_7  and  N_8
REMARK    6  A    between atoms: C_9  and  C_10
REMARK    7  A    between atoms: N_18  and  C_20
REMARK                            x       y       z     vdW  Elec       q    Type
REMARK                         _______ _______ _______ _____ _____    ______ ____
ROOT
ATOM      1  C   UNL     1       5.931   3.380  -0.035  0.00  0.00    +0.252 C 
ATOM      2  O   UNL     1       5.953   2.167  -0.041  0.00  0.00    -0.272 OA
ATOM      3  N   UNL     1       4.752   4.033  -0.020  0.00  0.00    -0.205 N 
ATOM      4  H   UNL     1       4.734   5.003  -0.015  0.00  0.00    +0.177 HD
ENDROOT
BRANCH   3   5
ATOM      5  N   UNL     1       3.551   3.311  -0.013  0.00  0.00    -0.188 NA
ATOM      6  C   UNL     1       2.416   3.939   0.001  0.00  0.00    +0.139 C 
BRANCH   6   7
ATOM      7  C   UNL     1       1.153   3.179   0.008  0.00  0.00    +0.013 A 
ATOM      8  C   UNL     1      -0.071   3.852   0.023  0.00  0.00    +0.012 A 
ATOM      9  C   UNL     1      -1.249   3.135   0.031  0.00  0.00    +0.021 A 
ATOM     10  C   UNL     1      -1.222   1.750   0.017  0.00  0.00    +0.042 A 
ATOM     11  C   UNL     1      -0.013   1.076   0.008  0.00  0.00    +0.040 A 
ATOM     12  C   UNL     1       1.174   1.781   0.000  0.00  0.00    +0.051 A 
ATOM     13 CL   UNL     1       2.690   0.934  -0.018  0.00  0.00    -0.083 Cl
ATOM     14 CL   UNL     1      -2.710   0.856   0.020  0.00  0.00    -0.083 Cl
ENDBRANCH   6   7
ENDBRANCH   3   5
BRANCH   1  15
ATOM     15  C   UNL     1       7.222   4.157  -0.042  0.00  0.00    +0.158 C 
BRANCH  15  17
ATOM     16  C   UNL     1       8.548   5.912   1.143  0.00  0.00    +0.006 C 
ATOM     17  C   UNL     1       7.299   5.032   1.211  0.00  0.00    +0.028 C 
ENDBRANCH  15  17
BRANCH  15  18
ATOM     18  N   UNL     1       8.353   3.226  -0.058  0.00  0.00    -0.333 N 
ATOM     19  H   UNL     1       8.246   2.328   0.294  0.00  0.00    +0.147 HD
BRANCH  18  20
ATOM     20  C   UNL     1       9.585   3.631  -0.578  0.00  0.00    +0.028 A 
ATOM     21  C   UNL     1       9.737   4.914  -1.087  0.00  0.00    +0.024 A 
ATOM     22  C   UNL     1      10.957   5.313  -1.596  0.00  0.00    +0.017 A 
ATOM     23  C   UNL     1      12.024   4.432  -1.609  0.00  0.00    +0.018 A 
ATOM     24  C   UNL     1      11.874   3.151  -1.109  0.00  0.00    +0.017 A 
ATOM     25  C   UNL     1      10.657   2.748  -0.593  0.00  0.00    +0.024 A 
ATOM     26 BR   UNL     1      13.691   4.980  -2.313  0.00  0.00    -0.050 Br
ENDBRANCH  18  20
ENDBRANCH  15  18
ENDBRANCH   1  15
TORSDOF 6
