REMARK  Name = ZINC09221327
REMARK  8 active torsions:
REMARK  status: ('A' for Active; 'I' for Inactive)
REMARK    1  A    between atoms: C_1  and  C_2
REMARK    2  A    between atoms: C_2  and  O_3
REMARK    3  A    between atoms: O_3  and  C_4
REMARK    4  A    between atoms: C_7  and  O_31
REMARK    5  A    between atoms: C_8  and  C_10
REMARK    6  A    between atoms: N_21  and  C_22
REMARK    7  A    between atoms: C_22  and  C_24
REMARK    8  A    between atoms: C_22  and  C_25
REMARK                            x       y       z     vdW  Elec       q    Type
REMARK                         _______ _______ _______ _____ _____    ______ ____
ROOT
ATOM      1  C   UNL     1      -0.307  -2.492   0.471  0.00  0.00    +0.197 C 
ATOM      2  N   UNL     1       0.553  -1.457  -0.113  0.00  0.00    -0.321 N 
ATOM      3  C   UNL     1       0.204  -0.122   0.058  0.00  0.00    +0.041 A 
ATOM      4  C   UNL     1       1.157   0.883   0.077  0.00  0.00    +0.024 A 
ATOM      5  C   UNL     1       0.761   2.197   0.237  0.00  0.00    +0.002 A 
ATOM      6  C   UNL     1      -0.581   2.517   0.375  0.00  0.00    +0.001 A 
ATOM      7  C   UNL     1      -1.541   1.528   0.360  0.00  0.00    +0.015 A 
ATOM      8  C   UNL     1      -1.156   0.198   0.208  0.00  0.00    +0.058 A 
ATOM      9  C   UNL     1      -2.143  -0.896   0.189  0.00  0.00    +0.251 C 
ATOM     10  O   UNL     1      -3.333  -0.649   0.133  0.00  0.00    -0.270 OA
ATOM     11  N   UNL     1      -1.716  -2.174   0.233  0.00  0.00    -0.268 N 
ATOM     12  H   UNL     1       1.351  -1.700  -0.609  0.00  0.00    +0.148 HD
ENDROOT
BRANCH   1  17
ATOM     13  C   UNL     1       1.394  -2.257   3.837  0.00  0.00    +0.121 A 
ATOM     14  C   UNL     1       0.397  -2.717   4.685  0.00  0.00    +0.049 A 
ATOM     15  C   UNL     1      -0.824  -3.103   4.169  0.00  0.00    +0.049 A 
ATOM     16  C   UNL     1      -1.054  -3.031   2.803  0.00  0.00    +0.124 A 
ATOM     17  C   UNL     1      -0.058  -2.570   1.955  0.00  0.00    +0.036 A 
ATOM     18  C   UNL     1       1.166  -2.188   2.471  0.00  0.00    +0.056 A 
BRANCH  16  19
ATOM     19  O   UNL     1      -2.257  -3.411   2.295  0.00  0.00    -0.506 OA
ATOM     20  H   UNL     1      -2.337  -4.363   2.145  0.00  0.00    +0.292 HD
ENDBRANCH  16  19
BRANCH  13  21
ATOM     21  O   UNL     1       2.597  -1.876   4.345  0.00  0.00    -0.492 OA
BRANCH  21  23
ATOM     22  C   UNL     1       4.170  -1.508   6.143  0.00  0.00    +0.048 C 
ATOM     23  C   UNL     1       2.764  -1.977   5.761  0.00  0.00    +0.225 C 
ENDBRANCH  21  23
ENDBRANCH  13  21
ENDBRANCH   1  17
BRANCH  11  24
ATOM     24  C   UNL     1      -2.677  -3.262   0.040  0.00  0.00    +0.106 C 
ATOM     25  C   UNL     1      -1.931  -4.596  -0.032  0.00  0.00    +0.033 C 
BRANCH  24  26
ATOM     26  C   UNL     1      -3.434  -3.041  -1.245  0.00  0.00    -0.027 A 
ATOM     27  C   UNL     1      -2.794  -2.490  -2.339  0.00  0.00    +0.005 A 
ATOM     28  C   UNL     1      -3.487  -2.292  -3.518  0.00  0.00    +0.000 A 
ATOM     29  C   UNL     1      -4.823  -2.635  -3.600  0.00  0.00    +0.000 A 
ATOM     30  C   UNL     1      -5.465  -3.182  -2.505  0.00  0.00    +0.000 A 
ATOM     31  C   UNL     1      -4.771  -3.385  -1.327  0.00  0.00    +0.005 A 
ENDBRANCH  24  26
ENDBRANCH  11  24
TORSDOF 6
