REMARK  Name = ZINC09359757
REMARK  4 active torsions:
REMARK  status: ('A' for Active; 'I' for Inactive)
REMARK    1  A    between atoms: C_15  and  C_17
REMARK    2  A    between atoms: C_17  and  C_19
REMARK    3  A    between atoms: C_23  and  N_25
REMARK    4  A    between atoms: N_30  and  C_33
REMARK                            x       y       z     vdW  Elec       q    Type
REMARK                         _______ _______ _______ _____ _____    ______ ____
ROOT
ATOM      1  C   UNL     1       7.451   2.615   0.779  0.00  0.00    +0.001 A 
ATOM      2  C   UNL     1       7.060   3.114  -0.451  0.00  0.00    +0.000 A 
ATOM      3  C   UNL     1       5.851   2.731  -1.007  0.00  0.00    +0.006 A 
ATOM      4  C   UNL     1       5.034   1.851  -0.336  0.00  0.00    -0.021 A 
ATOM      5  C   UNL     1       5.422   1.337   0.907  0.00  0.00    -0.019 A 
ATOM      6  C   UNL     1       6.642   1.731   1.462  0.00  0.00    +0.008 A 
ATOM      7  C   UNL     1       4.553   0.382   1.624  0.00  0.00    +0.022 C 
ATOM      8  C   UNL     1       3.255   0.280   1.276  0.00  0.00    +0.054 C 
ATOM      9  C   UNL     1       3.711   1.419  -0.911  0.00  0.00    +0.100 C 
ATOM     10  C   UNL     1       3.044   2.554  -1.697  0.00  0.00    +0.113 C 
ATOM     11  C   UNL     1       1.536   2.430  -1.319  0.00  0.00    +0.116 C 
ATOM     12  C   UNL     1       1.546   1.760   0.062  0.00  0.00    +0.141 C 
ATOM     13  C   UNL     1       1.027   1.467  -2.370  0.00  0.00    +0.232 C 
ATOM     14  O   UNL     1       0.017   0.801  -2.294  0.00  0.00    -0.274 OA
ATOM     15  N   UNL     1       1.888   1.476  -3.400  0.00  0.00    -0.210 N 
ATOM     16  C   UNL     1       3.015   2.166  -3.168  0.00  0.00    +0.232 C 
ATOM     17  O   UNL     1       3.865   2.435  -3.989  0.00  0.00    -0.274 OA
ATOM     18  N   UNL     1       2.720   0.848  -0.030  0.00  0.00    -0.384 NA
ATOM     19  H   UNL     1       2.370   0.023  -0.531  0.00  0.00    +0.127 HD
ENDROOT
BRANCH  15  20
ATOM     20  C   UNL     1       1.631   0.823  -4.614  0.00  0.00    +0.045 A 
ATOM     21  C   UNL     1       0.607   1.266  -5.440  0.00  0.00    +0.024 A 
ATOM     22  C   UNL     1       0.358   0.624  -6.636  0.00  0.00    +0.003 A 
ATOM     23  C   UNL     1       1.122  -0.467  -7.009  0.00  0.00    +0.020 A 
ATOM     24  C   UNL     1       2.140  -0.915  -6.186  0.00  0.00    +0.043 A 
ATOM     25  C   UNL     1       2.396  -0.273  -4.989  0.00  0.00    +0.044 A 
ATOM     26 CL   UNL     1       3.096  -2.286  -6.657  0.00  0.00    -0.083 Cl
ENDBRANCH  15  20
BRANCH  12  27
ATOM     27  C   UNL     1       0.418   0.765   0.156  0.00  0.00    +0.183 C 
ATOM     28  O   UNL     1       0.651  -0.423   0.090  0.00  0.00    -0.290 OA
BRANCH  27  29
ATOM     29  C   UNL     1      -0.966   1.236   0.320  0.00  0.00    +0.021 A 
ATOM     30  C   UNL     1      -1.238   2.606   0.396  0.00  0.00    +0.011 A 
ATOM     31  C   UNL     1      -2.538   3.040   0.550  0.00  0.00    +0.003 A 
ATOM     32  C   UNL     1      -3.572   2.123   0.629  0.00  0.00    +0.033 A 
ATOM     33  C   UNL     1      -3.311   0.766   0.556  0.00  0.00    +0.127 A 
ATOM     34  C   UNL     1      -2.017   0.317   0.396  0.00  0.00    +0.044 A 
BRANCH  33  35
ATOM     35  N   UNL     1      -4.424  -0.206   0.642  0.00  0.00    +0.056 N 
ATOM     36  O   UNL     1      -5.568   0.190   0.778  0.00  0.00    -0.126 OA
ATOM     37  O   UNL     1      -4.196  -1.400   0.577  0.00  0.00    -0.126 OA
ENDBRANCH  33  35
ENDBRANCH  27  29
ENDBRANCH  12  27
TORSDOF 4
