REMARK  Name = ZINC43464455
REMARK  4 active torsions:
REMARK  status: ('A' for Active; 'I' for Inactive)
REMARK    1  A    between atoms: C_11  and  C_15
REMARK    2  A    between atoms: C_11  and  C_25
REMARK    3  A    between atoms: C_15  and  C_16
REMARK    4  A    between atoms: C_19  and  N_22
REMARK                            x       y       z     vdW  Elec       q    Type
REMARK                         _______ _______ _______ _____ _____    ______ ____
ROOT
ATOM      1  C   UNL     1      -0.016   1.362   0.009  0.00  0.00    +0.001 A 
ATOM      2  C   UNL     1       1.169   2.083   0.002  0.00  0.00    +0.002 A 
ATOM      3  C   UNL     1       2.385   1.435  -0.013  0.00  0.00    +0.026 A 
ATOM      4  C   UNL     1       2.428   0.045  -0.021  0.00  0.00    +0.047 A 
ATOM      5  C   UNL     1       1.222  -0.683  -0.013  0.00  0.00    +0.003 A 
ATOM      6  C   UNL     1       0.002  -0.004   0.002  0.00  0.00    +0.010 A 
ATOM      7  C   UNL     1       1.609  -2.088  -0.023  0.00  0.00    -0.016 A 
ATOM      8  C   UNL     1       2.957  -2.137  -0.037  0.00  0.00    +0.050 A 
ATOM      9  N   UNL     1       3.460  -0.869  -0.035  0.00  0.00    -0.356 N 
ATOM     10  H   UNL     1       4.403  -0.644  -0.044  0.00  0.00    +0.166 HD
ATOM     11  C   UNL     1       3.732  -3.434  -0.054  0.00  0.00    +0.160 C 
ATOM     12  N   UNL     1       2.817  -4.517  -0.454  0.00  0.00    -0.298 NA
ATOM     13  C   UNL     1       1.595  -4.518   0.362  0.00  0.00    +0.087 C 
ATOM     14  C   UNL     1       0.726  -3.310  -0.018  0.00  0.00    +0.052 C 
ATOM     15  H   UNL     1       2.596  -4.459  -1.437  0.00  0.00    +0.123 HD
ENDROOT
BRANCH  11  16
ATOM     16  C   UNL     1       4.882  -3.334  -1.058  0.00  0.00    +0.413 C 
ATOM     17  F   UNL     1       5.735  -2.289  -0.688  0.00  0.00    -0.168 F 
ATOM     18  F   UNL     1       5.596  -4.537  -1.070  0.00  0.00    -0.168 F 
ATOM     19  F   UNL     1       4.366  -3.085  -2.335  0.00  0.00    -0.168 F 
ENDBRANCH  11  16
BRANCH  11  20
ATOM     20  C   UNL     1       4.289  -3.720   1.342  0.00  0.00    +0.072 C 
BRANCH  20  21
ATOM     21  C   UNL     1       5.061  -5.014   1.320  0.00  0.00    -0.045 A 
ATOM     22  C   UNL     1       4.415  -6.209   1.580  0.00  0.00    +0.006 A 
ATOM     23  C   UNL     1       5.123  -7.396   1.559  0.00  0.00    +0.033 A 
ATOM     24  C   UNL     1       6.476  -7.389   1.278  0.00  0.00    +0.126 A 
ATOM     25  C   UNL     1       7.122  -6.194   1.018  0.00  0.00    +0.033 A 
ATOM     26  C   UNL     1       6.413  -5.008   1.034  0.00  0.00    +0.006 A 
BRANCH  24  27
ATOM     27  N   UNL     1       7.234  -8.660   1.258  0.00  0.00    +0.056 N 
ATOM     28  O   UNL     1       6.670  -9.704   1.486  0.00  0.00    -0.126 OA
ATOM     29  O   UNL     1       8.418  -8.654   1.012  0.00  0.00    -0.126 OA
ENDBRANCH  24  27
ENDBRANCH  20  21
ENDBRANCH  11  20
TORSDOF 4
