REMARK  Name = ZINC61594903
REMARK  9 active torsions:
REMARK  status: ('A' for Active; 'I' for Inactive)
REMARK    1  A    between atoms: C_1  and  C_2
REMARK    2  A    between atoms: C_2  and  C_3
REMARK    3  A    between atoms: C_3  and  N_4
REMARK    4  A    between atoms: C_10  and  S_11
REMARK    5  A    between atoms: S_11  and  C_12
REMARK    6  A    between atoms: C_12  and  C_14
REMARK    7  A    between atoms: C_12  and  C_21
REMARK    8  A    between atoms: C_21  and  C_23
REMARK    9  A    between atoms: C_21  and  N_24
REMARK                            x       y       z     vdW  Elec       q    Type
REMARK                         _______ _______ _______ _____ _____    ______ ____
ROOT
ATOM      1  C   UNL     1      -1.300  -3.870   3.631  0.00  0.00    +0.069 C 
ENDROOT
BRANCH   1   2
ATOM      2  C   UNL     1      -1.251  -3.644   5.120  0.00  0.00    -0.035 A 
ATOM      3  C   UNL     1      -2.284  -2.976   5.752  0.00  0.00    +0.005 A 
ATOM      4  C   UNL     1      -2.239  -2.768   7.118  0.00  0.00    +0.001 A 
ATOM      5  C   UNL     1      -1.161  -3.228   7.852  0.00  0.00    +0.015 A 
ATOM      6  C   UNL     1      -0.128  -3.896   7.220  0.00  0.00    +0.018 A 
ATOM      7  C   UNL     1      -0.176  -4.108   5.854  0.00  0.00    +0.020 A 
ATOM      8 BR   UNL     1       1.347  -4.524   8.224  0.00  0.00    -0.050 Br
ENDBRANCH   1   2
BRANCH   1   9
ATOM      9  C   UNL     1      -2.545  -4.688   3.280  0.00  0.00    -0.060 C 
ATOM     10  C   UNL     1      -2.538  -5.012   1.785  0.00  0.00    -0.013 C 
BRANCH   9  11
ATOM     11  N   UNL     1      -2.543  -5.937   4.052  0.00  0.00    +0.381 N 
ATOM     12  H   UNL     1      -2.548  -5.724   5.038  0.00  0.00    -0.090 HD
ATOM     13  H   UNL     1      -3.365  -6.477   3.821  0.00  0.00    -0.090 HD
ATOM     14  H   UNL     1      -1.717  -6.470   3.827  0.00  0.00    -0.090 HD
ENDBRANCH   9  11
ENDBRANCH   1   9
BRANCH   1  15
ATOM     15  S   UNL     1      -1.368  -2.270   2.778  0.00  0.00    -0.080 S 
BRANCH  15  22
ATOM     16  N   UNL     1       0.673  -0.368   2.566  0.00  0.00    -0.271 N 
ATOM     17  C   UNL     1       1.917  -0.151   3.038  0.00  0.00    +0.345 A 
ATOM     18  O   UNL     1       2.625   0.808   2.785  0.00  0.00    -0.245 OA
ATOM     19  N   UNL     1       2.234  -1.187   3.841  0.00  0.00    -0.226 N 
ATOM     20  H   UNL     1       3.067  -1.306   4.323  0.00  0.00    +0.194 HD
ATOM     21  N   UNL     1       1.138  -2.061   3.852  0.00  0.00    -0.145 NA
ATOM     22  C   UNL     1       0.212  -1.554   3.090  0.00  0.00    +0.193 A 
BRANCH  16  23
ATOM     23  C   UNL     1      -0.065   0.512   1.655  0.00  0.00    +0.129 C 
BRANCH  23  25
ATOM     24  C   UNL     1      -1.637   2.448   1.517  0.00  0.00    +0.005 C 
ATOM     25  C   UNL     1      -0.867   1.529   2.468  0.00  0.00    +0.018 C 
ENDBRANCH  23  25
ENDBRANCH  16  23
ENDBRANCH  15  22
ENDBRANCH   1  15
TORSDOF 7
