REMARK  Name = ZINC38018504
REMARK  7 active torsions:
REMARK  status: ('A' for Active; 'I' for Inactive)
REMARK    1  A    between atoms: C_1  and  C_2
REMARK    2  A    between atoms: C_2  and  C_3
REMARK    3  A    between atoms: C_3  and  C_5
REMARK    4  A    between atoms: C_3  and  N_13
REMARK    5  A    between atoms: C_10  and  O_11
REMARK    6  A    between atoms: N_13  and  C_14
REMARK    7  A    between atoms: C_14  and  C_15
REMARK                            x       y       z     vdW  Elec       q    Type
REMARK                         _______ _______ _______ _____ _____    ______ ____
ROOT
ATOM      1  C   UNL     1      -1.513  -0.326   0.044  0.00  0.00    -0.037 C 
ENDROOT
BRANCH   1   2
ATOM      2  C   UNL     1      -1.381  -1.813  -0.159  0.00  0.00    -0.019 A 
ATOM      3  C   UNL     1      -1.307  -2.657   0.933  0.00  0.00    +0.020 A 
ATOM      4  C   UNL     1      -1.187  -4.022   0.747  0.00  0.00    +0.018 A 
ATOM      5  C   UNL     1      -1.139  -4.546  -0.533  0.00  0.00    +0.019 A 
ATOM      6  C   UNL     1      -1.213  -3.707  -1.627  0.00  0.00    +0.047 A 
ATOM      7  C   UNL     1      -1.340  -2.337  -1.443  0.00  0.00    +0.119 A 
ATOM      8 BR   UNL     1      -1.085  -5.174   2.243  0.00  0.00    -0.050 Br
BRANCH   7   9
ATOM      9  O   UNL     1      -1.418  -1.510  -2.518  0.00  0.00    -0.507 OA
ATOM     10  H   UNL     1      -0.560  -1.193  -2.833  0.00  0.00    +0.292 HD
ENDBRANCH   7   9
ENDBRANCH   1   2
BRANCH   1  11
ATOM     11  N   UNL     1      -2.006  -0.059   1.402  0.00  0.00    +0.387 N 
ATOM     12  H   UNL     1      -1.411  -0.521   2.073  0.00  0.00    -0.085 HD
ATOM     13  H   UNL     1      -1.999   0.935   1.573  0.00  0.00    -0.085 HD
BRANCH  11  14
ATOM     14  C   UNL     1      -3.378  -0.568   1.533  0.00  0.00    -0.039 C 
BRANCH  14  15
ATOM     15  C   UNL     1      -3.930  -0.185   2.882  0.00  0.00    -0.026 A 
ATOM     16  C   UNL     1      -4.619   0.927   3.237  0.00  0.00    +0.010 A 
ATOM     17  C   UNL     1      -5.031   1.070   4.549  0.00  0.00    +0.023 A 
ATOM     18  C   UNL     1      -4.734   0.093   5.441  0.00  0.00    +0.055 A 
ATOM     19  S   UNL     1      -3.852  -1.080   4.424  0.00  0.00    -0.088 S 
ATOM     20 BR   UNL     1      -5.151  -0.006   7.283  0.00  0.00    -0.043 Br
ENDBRANCH  14  15
ENDBRANCH  11  14
ENDBRANCH   1  11
BRANCH   1  22
ATOM     21  C   UNL     1      -0.304   1.857  -0.072  0.00  0.00    +0.002 C 
ATOM     22  C   UNL     1      -0.146   0.337  -0.141  0.00  0.00    -0.014 C 
ENDBRANCH   1  22
TORSDOF 6
