REMARK  Name = ZINC12600225
REMARK  9 active torsions:
REMARK  status: ('A' for Active; 'I' for Inactive)
REMARK    1  A    between atoms: C_3  and  O_17
REMARK    2  A    between atoms: C_6  and  S_7
REMARK    3  A    between atoms: S_7  and  N_10
REMARK    4  A    between atoms: O_17  and  C_18
REMARK    5  A    between atoms: C_18  and  C_19
REMARK    6  A    between atoms: C_19  and  C_21
REMARK    7  A    between atoms: C_19  and  O_33
REMARK    8  A    between atoms: C_21  and  N_22
REMARK    9  A    between atoms: N_22  and  C_23
REMARK                            x       y       z     vdW  Elec       q    Type
REMARK                         _______ _______ _______ _____ _____    ______ ____
ROOT
ATOM      1  C   UNL     1       3.455   3.532  -0.013  0.00  0.00    +0.258 C 
ENDROOT
BRANCH   1   2
ATOM      2  O   UNL     1       3.548   2.106  -0.021  0.00  0.00    -0.488 OA
BRANCH   2   5
ATOM      3  C   UNL     1      -0.017   1.378   0.010  0.00  0.00    +0.032 A 
ATOM      4  C   UNL     1       1.170   2.087   0.002  0.00  0.00    +0.049 A 
ATOM      5  C   UNL     1       2.380   1.411  -0.013  0.00  0.00    +0.139 A 
ATOM      6  C   UNL     1       2.397   0.022  -0.021  0.00  0.00    +0.084 A 
ATOM      7  C   UNL     1       1.208  -0.682  -0.013  0.00  0.00    +0.052 A 
ATOM      8  C   UNL     1       0.002  -0.004   0.002  0.00  0.00    +0.107 A 
ATOM      9 CL   UNL     1       3.910  -0.828  -0.040  0.00  0.00    -0.080 Cl
BRANCH   8  10
ATOM     10  S   UNL     1      -1.513  -0.904   0.012  0.00  0.00    +0.061 S 
ATOM     11  O   UNL     1      -1.220  -2.185   0.553  0.00  0.00    -0.153 OA
ATOM     12  O   UNL     1      -2.492  -0.044   0.577  0.00  0.00    -0.153 OA
BRANCH  10  13
ATOM     13  N   UNL     1      -1.949  -1.146  -1.567  0.00  0.00    -0.172 NA
ATOM     14  C   UNL     1      -2.788  -0.169  -2.279  0.00  0.00    +0.137 C 
ATOM     15  C   UNL     1      -2.110   0.172  -3.611  0.00  0.00    +0.177 C 
ATOM     16  O   UNL     1      -1.812  -1.039  -4.310  0.00  0.00    -0.377 OA
ATOM     17  C   UNL     1      -0.893  -1.897  -3.630  0.00  0.00    +0.177 C 
ATOM     18  C   UNL     1      -1.504  -2.341  -2.301  0.00  0.00    +0.137 C 
ENDBRANCH  10  13
ENDBRANCH   8  10
ENDBRANCH   2   5
ENDBRANCH   1   2
BRANCH   1  19
ATOM     19  C   UNL     1       4.861   4.135  -0.024  0.00  0.00    +0.135 C 
BRANCH  19  20
ATOM     20  O   UNL     1       5.535   3.793   1.189  0.00  0.00    -0.390 OA
ATOM     21  H   UNL     1       5.093   4.113   1.988  0.00  0.00    +0.210 HD
ENDBRANCH  19  20
BRANCH  19  22
ATOM     22  C   UNL     1       4.762   5.657  -0.141  0.00  0.00    -0.047 C 
BRANCH  22  23
ATOM     23  N   UNL     1       6.109   6.227  -0.271  0.00  0.00    +0.385 N 
ATOM     24  H   UNL     1       6.656   5.987   0.542  0.00  0.00    -0.085 HD
ATOM     25  H   UNL     1       6.553   5.854  -1.097  0.00  0.00    -0.085 HD
BRANCH  23  26
ATOM     26  C   UNL     1       6.014   7.689  -0.384  0.00  0.00    -0.067 C 
ATOM     27  C   UNL     1       5.340   8.254   0.868  0.00  0.00    -0.009 C 
ATOM     28  C   UNL     1       5.241   9.776   0.751  0.00  0.00    -0.012 C 
ATOM     29  C   UNL     1       6.645  10.370   0.615  0.00  0.00    +0.007 C 
ATOM     30  C   UNL     1       7.318   9.805  -0.637  0.00  0.00    -0.012 C 
ATOM     31  C   UNL     1       7.418   8.282  -0.520  0.00  0.00    -0.009 C 
ATOM     32  C   UNL     1       6.489  10.168  -1.870  0.00  0.00    +0.007 C 
ATOM     33  C   UNL     1       5.086   9.575  -1.734  0.00  0.00    -0.012 C 
ATOM     34  C   UNL     1       4.412  10.140  -0.482  0.00  0.00    +0.007 C 
ATOM     35  C   UNL     1       5.185   8.052  -1.617  0.00  0.00    -0.009 C 
ENDBRANCH  23  26
ENDBRANCH  22  23
ENDBRANCH  19  22
ENDBRANCH   1  19
TORSDOF 9
