REMARK  Name = ZINC08738314
REMARK  3 active torsions:
REMARK  status: ('A' for Active; 'I' for Inactive)
REMARK    1  A    between atoms: C_3  and  C_6
REMARK    2  A    between atoms: C_11  and  C_17
REMARK    3  A    between atoms: N_19  and  C_20
REMARK                            x       y       z     vdW  Elec       q    Type
REMARK                         _______ _______ _______ _____ _____    ______ ____
ROOT
ATOM      1  C   UNL     1       3.599   0.624  -0.039  0.00  0.00    +0.068 C 
ATOM      2  C   UNL     1       4.105  -0.114   1.202  0.00  0.00    +0.063 C 
ATOM      3  C   UNL     1       5.611  -0.195   1.167  0.00  0.00    +0.018 C 
ATOM      4  C   UNL     1       6.274  -0.230  -0.007  0.00  0.00    +0.024 C 
ATOM      5  C   UNL     1       7.785  -0.274  -0.028  0.00  0.00    +0.119 C 
ATOM      6  C   UNL     1       8.293  -1.066   1.177  0.00  0.00    +0.113 C 
ATOM      7  C   UNL     1       7.587  -0.579   2.417  0.00  0.00    +0.218 C 
ATOM      8  O   UNL     1       8.185  -0.511   3.469  0.00  0.00    -0.275 OA
ATOM      9  N   UNL     1       6.294  -0.222   2.356  0.00  0.00    -0.289 N 
ATOM     10  C   UNL     1       5.589  -0.220  -1.235  0.00  0.00    +0.162 C 
ATOM     11  O   UNL     1       6.218  -0.290  -2.272  0.00  0.00    -0.292 OA
ATOM     12  C   UNL     1       4.088  -0.121  -1.286  0.00  0.00    +0.091 C 
ATOM     13  H   UNL     1       5.832   0.023   3.173  0.00  0.00    +0.155 HD
ENDROOT
BRANCH   1  16
ATOM     14  C   UNL     1      -0.016   1.340  -0.014  0.00  0.00    +0.041 A 
ATOM     15  C   UNL     1       1.331   1.768  -0.025  0.00  0.00    +0.045 A 
ATOM     16  C   UNL     1       2.092   0.659  -0.028  0.00  0.00    +0.109 A 
ATOM     17  O   UNL     1       1.282  -0.412  -0.020  0.00  0.00    -0.468 OA
ATOM     18  C   UNL     1       0.002  -0.005  -0.012  0.00  0.00    +0.195 A 
ENDBRANCH   1  16
BRANCH   5  19
ATOM     19  C   UNL     1       8.328   1.130   0.030  0.00  0.00    +0.225 C 
ATOM     20  O   UNL     1       7.567   2.073   0.083  0.00  0.00    -0.275 OA
ATOM     21  N   UNL     1       9.660   1.338   0.023  0.00  0.00    -0.285 N 
ATOM     22  H   UNL     1      10.269   0.584   0.048  0.00  0.00    +0.155 HD
BRANCH  21  23
ATOM     23  C   UNL     1      10.164   2.643  -0.021  0.00  0.00    +0.033 A 
ATOM     24  C   UNL     1      11.329   2.916  -0.726  0.00  0.00    +0.025 A 
ATOM     25  C   UNL     1      11.824   4.204  -0.767  0.00  0.00    +0.022 A 
ATOM     26  C   UNL     1      11.161   5.223  -0.107  0.00  0.00    +0.041 A 
ATOM     27  C   UNL     1       9.999   4.955   0.596  0.00  0.00    +0.022 A 
ATOM     28  C   UNL     1       9.497   3.669   0.636  0.00  0.00    +0.025 A 
ATOM     29 CL   UNL     1      11.786   6.842  -0.161  0.00  0.00    -0.084 Cl
ENDBRANCH  21  23
ENDBRANCH   5  19
TORSDOF 3
