REMARK  Name = ZINC21715370
REMARK  5 active torsions:
REMARK  status: ('A' for Active; 'I' for Inactive)
REMARK    1  A    between atoms: C_1  and  C_2
REMARK    2  A    between atoms: C_5  and  C_28
REMARK    3  A    between atoms: C_6  and  N_8
REMARK    4  A    between atoms: C_16  and  C_25
REMARK    5  A    between atoms: C_19  and  N_24
REMARK                            x       y       z     vdW  Elec       q    Type
REMARK                         _______ _______ _______ _____ _____    ______ ____
ROOT
ATOM      1  N   UNL     1       2.388   3.852   0.017  0.00  0.00    -0.327 N 
ATOM      2  C   UNL     1       2.541   4.633   1.252  0.00  0.00    +0.124 C 
ATOM      3  C   UNL     1       3.892   5.352   1.233  0.00  0.00    +0.125 C 
ATOM      4  N   UNL     1       3.965   6.222   0.051  0.00  0.00    -0.314 N 
ATOM      5  C   UNL     1       3.812   5.441  -1.185  0.00  0.00    +0.125 C 
ATOM      6  C   UNL     1       2.460   4.722  -1.165  0.00  0.00    +0.124 C 
ATOM      7  C   UNL     1       5.150   6.946   0.037  0.00  0.00    +0.100 A 
ATOM      8  C   UNL     1       5.459   7.755   1.138  0.00  0.00    +0.057 A 
ATOM      9  C   UNL     1       6.643   8.480   1.140  0.00  0.00    +0.075 A 
ATOM     10  C   UNL     1       7.506   8.360  -0.036  0.00  0.00    +0.014 A 
ATOM     11  C   UNL     1       8.714   9.056  -0.128  0.00  0.00    +0.033 A 
ATOM     12  C   UNL     1       9.496   8.912  -1.256  0.00  0.00    +0.025 A 
ATOM     13  C   UNL     1       9.087   8.077  -2.303  0.00  0.00    +0.025 A 
ATOM     14  C   UNL     1       7.915   7.391  -2.233  0.00  0.00    +0.028 A 
ATOM     15  C   UNL     1       7.094   7.515  -1.097  0.00  0.00    +0.049 A 
ATOM     16  N   UNL     1       5.939   6.851  -1.009  0.00  0.00    -0.343 N 
ATOM     17  H   UNL     1       5.655   6.206  -1.854  0.00  0.00    +0.167 HD
ENDROOT
BRANCH   1  23
ATOM     18  C   UNL     1      -2.526   3.783   0.097  0.00  0.00    +0.044 C 
ATOM     19  C   UNL     1      -1.201   3.064   0.069  0.00  0.00    -0.049 A 
ATOM     20  C   UNL     1      -1.165   1.682   0.051  0.00  0.00    +0.004 A 
ATOM     21  C   UNL     1       0.048   1.019   0.032  0.00  0.00    +0.005 A 
ATOM     22  C   UNL     1       1.228   1.736   0.018  0.00  0.00    -0.029 A 
ATOM     23  C   UNL     1       1.196   3.124   0.030  0.00  0.00    +0.033 A 
ATOM     24  C   UNL     1      -0.025   3.787   0.056  0.00  0.00    +0.026 A 
ATOM     25  C   UNL     1       2.550   1.012  -0.010  0.00  0.00    +0.045 C 
ENDBRANCH   1  23
BRANCH  12  26
ATOM     26  N   UNL     1      10.704   9.605  -1.355  0.00  0.00    -0.358 N 
ATOM     27  H   UNL     1      11.330   9.493  -2.253  0.00  0.00    +0.142 HD
ATOM     28  H   UNL     1      11.030  10.262  -0.535  0.00  0.00    +0.142 HD
ENDBRANCH  12  26
BRANCH   9  29
ATOM     29  C   UNL     1       7.013   9.344   2.280  0.00  0.00    +0.387 C 
ATOM     30  O   UNL     1       8.100   9.886   2.303  0.00  0.00    -0.241 OA
ATOM     31  O   UNL     1       6.146   9.530   3.294  0.00  0.00    -0.241 OA
ENDBRANCH   9  29
TORSDOF 3
