REMARK  Name = ZINC66898215
REMARK  6 active torsions:
REMARK  status: ('A' for Active; 'I' for Inactive)
REMARK    1  A    between atoms: C_4  and  C_7
REMARK    2  A    between atoms: N_12  and  C_15
REMARK    3  A    between atoms: C_15  and  C_16
REMARK    4  A    between atoms: C_16  and  C_18
REMARK    5  A    between atoms: C_19  and  N_30
REMARK    6  A    between atoms: N_20  and  C_27
REMARK                            x       y       z     vdW  Elec       q    Type
REMARK                         _______ _______ _______ _____ _____    ______ ____
ROOT
ATOM      1  C   UNL     1       8.584  -2.493   0.155  0.00  0.00    +0.155 C 
ATOM      2  O   UNL     1       8.384  -2.018  -0.945  0.00  0.00    -0.294 OA
ENDROOT
BRANCH   1   3
ATOM      3  C   UNL     1       9.835  -3.071   0.458  0.00  0.00    +0.118 A 
ATOM      4  C   UNL     1      10.823  -3.222  -0.531  0.00  0.00    +0.116 A 
ATOM      5  N   UNL     1      12.018  -3.787  -0.190  0.00  0.00    -0.278 N 
ATOM      6  C   UNL     1      12.264  -4.197   1.064  0.00  0.00    +0.331 A 
ATOM      7  O   UNL     1      13.344  -4.694   1.317  0.00  0.00    -0.246 OA
ATOM      8  N   UNL     1      11.359  -4.079   2.050  0.00  0.00    -0.274 N 
ATOM      9  H   UNL     1      11.580  -4.390   2.942  0.00  0.00    +0.173 HD
ATOM     10  C   UNL     1      10.150  -3.529   1.817  0.00  0.00    +0.266 A 
ATOM     11  O   UNL     1       9.335  -3.419   2.714  0.00  0.00    -0.267 OA
BRANCH   5  12
ATOM     12  C   UNL     1      13.054  -3.948  -1.214  0.00  0.00    +0.094 C 
ATOM     13  C   UNL     1      13.751  -5.307  -1.305  0.00  0.00    +0.027 C 
ATOM     14  C   UNL     1      12.751  -4.886  -2.384  0.00  0.00    +0.027 C 
ENDBRANCH   5  12
BRANCH   4  15
ATOM     15  N   UNL     1      10.591  -2.812  -1.808  0.00  0.00    -0.344 N 
ATOM     16  H   UNL     1       9.773  -2.337  -2.024  0.00  0.00    +0.144 HD
ATOM     17  H   UNL     1      11.243  -2.995  -2.502  0.00  0.00    +0.144 HD
ENDBRANCH   4  15
ENDBRANCH   1   3
BRANCH   1  18
ATOM     18  C   UNL     1       7.495  -2.466   1.197  0.00  0.00    +0.002 C 
BRANCH  18  23
ATOM     19  C   UNL     1       3.829  -0.407   0.044  0.00  0.00    +0.017 C 
ATOM     20  C   UNL     1       3.904  -1.211  -1.278  0.00  0.00    +0.006 C 
ATOM     21  C   UNL     1       5.261  -1.679  -1.530  0.00  0.00    -0.018 C 
ATOM     22  C   UNL     1       5.785  -2.626  -0.437  0.00  0.00    -0.078 C 
ATOM     23  N   UNL     1       6.301  -1.816   0.640  0.00  0.00    +0.385 N 
ATOM     24  C   UNL     1       5.306  -1.633   1.718  0.00  0.00    -0.078 C 
ATOM     25  C   UNL     1       3.881  -1.367   1.203  0.00  0.00    -0.011 C 
ATOM     26  H   UNL     1       6.560  -0.912   0.276  0.00  0.00    -0.081 HD
BRANCH  19  30
ATOM     27  C   UNL     1       0.173   1.798   0.172  0.00  0.00    +0.000 A 
ATOM     28  C   UNL     1       1.384   2.463   0.232  0.00  0.00    +0.000 A 
ATOM     29  C   UNL     1       2.567   1.749   0.191  0.00  0.00    +0.004 A 
ATOM     30  C   UNL     1       2.540   0.371   0.090  0.00  0.00    -0.044 A 
ATOM     31  C   UNL     1       1.329  -0.294   0.031  0.00  0.00    +0.004 A 
ATOM     32  C   UNL     1       0.146   0.420   0.071  0.00  0.00    +0.000 A 
ENDBRANCH  19  30
ENDBRANCH  18  23
ENDBRANCH   1  18
TORSDOF 6
