REMARK  Name = ZINC58846817
REMARK  11 active torsions:
REMARK  status: ('A' for Active; 'I' for Inactive)
REMARK    1  A    between atoms: C_1  and  C_2
REMARK    2  A    between atoms: C_2  and  C_3
REMARK    3  A    between atoms: C_2  and  C_4
REMARK    4  A    between atoms: C_7  and  N_10
REMARK    5  A    between atoms: N_10  and  S_11
REMARK    6  A    between atoms: S_11  and  C_14
REMARK    7  A    between atoms: C_27  and  C_30
REMARK    8  A    between atoms: C_33  and  O_38
REMARK    9  A    between atoms: C_35  and  O_36
REMARK   10  A    between atoms: O_36  and  C_37
REMARK   11  A    between atoms: O_38  and  C_39
REMARK                            x       y       z     vdW  Elec       q    Type
REMARK                         _______ _______ _______ _____ _____    ______ ____
ROOT
ATOM      1  C   UNL     1      -5.835  -3.585  -2.122  0.00  0.00    +0.109 A 
ATOM      2  C   UNL     1      -4.808  -2.958  -2.802  0.00  0.00    +0.030 A 
ATOM      3  C   UNL     1      -4.070  -3.663  -3.731  0.00  0.00    +0.025 A 
ATOM      4  C   UNL     1      -4.357  -5.000  -3.981  0.00  0.00    +0.031 A 
ATOM      5  C   UNL     1      -5.378  -5.635  -3.291  0.00  0.00    -0.018 A 
ATOM      6  C   UNL     1      -6.115  -4.915  -2.361  0.00  0.00    +0.034 A 
ATOM      7  C   UNL     1      -5.689  -7.078  -3.502  0.00  0.00    +0.049 C 
ATOM      8  C   UNL     1      -6.929  -7.275  -4.336  0.00  0.00    -0.023 C 
ATOM      9  C   UNL     1      -6.790  -8.319  -5.115  0.00  0.00    -0.030 C 
ATOM     10  C   UNL     1      -5.436  -8.964  -4.917  0.00  0.00    +0.033 C 
ATOM     11  C   UNL     1      -4.598  -7.862  -4.229  0.00  0.00    +0.029 C 
ATOM     12  C   UNL     1      -3.889  -7.065  -5.305  0.00  0.00    +0.108 C 
ATOM     13  N   UNL     1      -3.618  -5.692  -4.933  0.00  0.00    -0.336 N 
ATOM     14  H   UNL     1      -2.899  -5.225  -5.387  0.00  0.00    +0.147 HD
ENDROOT
BRANCH  12  15
ATOM     15  C   UNL     1      -4.731  -7.095  -6.555  0.00  0.00    +0.015 A 
ATOM     16  C   UNL     1      -4.476  -8.033  -7.537  0.00  0.00    +0.012 A 
ATOM     17  C   UNL     1      -5.246  -8.062  -8.684  0.00  0.00    +0.046 A 
ATOM     18  C   UNL     1      -6.278  -7.149  -8.852  0.00  0.00    +0.124 A 
ATOM     19  C   UNL     1      -6.536  -6.207  -7.868  0.00  0.00    +0.091 A 
ATOM     20  C   UNL     1      -5.765  -6.184  -6.716  0.00  0.00    +0.128 A 
BRANCH  20  21
ATOM     21  O   UNL     1      -6.019  -5.266  -5.747  0.00  0.00    -0.495 OA
ATOM     22  C   UNL     1      -7.099  -4.359  -5.979  0.00  0.00    +0.277 C 
ENDBRANCH  20  21
BRANCH  18  23
ATOM     23  O   UNL     1      -7.034  -7.178  -9.981  0.00  0.00    -0.495 OA
ATOM     24  C   UNL     1      -6.712  -8.175 -10.953  0.00  0.00    +0.277 C 
ENDBRANCH  18  23
ENDBRANCH  12  15
BRANCH   1  25
ATOM     25  S   UNL     1      -6.785  -2.686  -0.942  0.00  0.00    +0.072 S 
ATOM     26  O   UNL     1      -7.988  -3.417  -0.746  0.00  0.00    -0.150 OA
ATOM     27  O   UNL     1      -6.779  -1.329  -1.364  0.00  0.00    -0.150 OA
BRANCH  25  28
ATOM     28  N   UNL     1      -5.960  -2.739   0.493  0.00  0.00    -0.216 N 
ATOM     29  H   UNL     1      -5.654  -1.916   0.907  0.00  0.00    +0.174 HD
BRANCH  28  33
ATOM     30  C   UNL     1      -5.199  -6.399   2.325  0.00  0.00    -0.045 A 
ATOM     31  C   UNL     1      -4.189  -5.462   2.212  0.00  0.00    +0.006 A 
ATOM     32  C   UNL     1      -4.438  -4.246   1.605  0.00  0.00    +0.025 A 
ATOM     33  C   UNL     1      -5.705  -3.967   1.107  0.00  0.00    +0.048 A 
ATOM     34  C   UNL     1      -6.717  -4.911   1.223  0.00  0.00    +0.025 A 
ATOM     35  C   UNL     1      -6.459  -6.127   1.826  0.00  0.00    +0.006 A 
BRANCH  30  37
ATOM     36  C   UNL     1      -3.815  -8.455   2.226  0.00  0.00    +0.012 C 
ATOM     37  C   UNL     1      -4.923  -7.724   2.988  0.00  0.00    +0.013 C 
ATOM     38  C   UNL     1      -4.479  -7.489   4.433  0.00  0.00    +0.012 C 
ENDBRANCH  30  37
ENDBRANCH  28  33
ENDBRANCH  25  28
ENDBRANCH   1  25
TORSDOF 7
