REMARK  Name = ZINC08567964
REMARK  9 active torsions:
REMARK  status: ('A' for Active; 'I' for Inactive)
REMARK    1  A    between atoms: C_1  and  O_2
REMARK    2  A    between atoms: O_2  and  C_3
REMARK    3  A    between atoms: C_6  and  C_17
REMARK    4  A    between atoms: C_8  and  O_9
REMARK    5  A    between atoms: O_9  and  C_10
REMARK    6  A    between atoms: C_10  and  C_11
REMARK    7  A    between atoms: C_20  and  C_31
REMARK    8  A    between atoms: C_26  and  N_30
REMARK    9  A    between atoms: C_27  and  C_28
REMARK                            x       y       z     vdW  Elec       q    Type
REMARK                         _______ _______ _______ _____ _____    ______ ____
ROOT
ATOM      1  C   UNL     1       2.540  -2.601  -4.460  0.00  0.00    +0.102 C 
ATOM      2  C   UNL     1       3.928  -2.021  -4.564  0.00  0.00    +0.054 A 
ATOM      3  C   UNL     1       5.006  -2.213  -3.766  0.00  0.00    +0.074 A 
ATOM      4  N   UNL     1       6.027  -1.466  -4.280  0.00  0.00    -0.273 N 
ATOM      5  H   UNL     1       6.926  -1.403  -3.920  0.00  0.00    +0.189 HD
ATOM      6  N   UNL     1       5.547  -0.805  -5.421  0.00  0.00    -0.135 NA
ATOM      7  C   UNL     1       4.298  -1.133  -5.593  0.00  0.00    +0.245 A 
ATOM      8  O   UNL     1       3.423  -0.747  -6.561  0.00  0.00    -0.421 OA
ATOM      9  C   UNL     1       2.272  -1.440  -6.671  0.00  0.00    +0.201 C 
ATOM     10  C   UNL     1       1.810  -2.309  -5.746  0.00  0.00    +0.098 C 
ENDROOT
BRANCH   1  14
ATOM     11  C   UNL     1       0.467  -0.795  -1.184  0.00  0.00    +0.162 A 
ATOM     12  C   UNL     1       0.999  -0.006  -2.191  0.00  0.00    +0.050 A 
ATOM     13  C   UNL     1       1.668  -0.593  -3.248  0.00  0.00    +0.008 A 
ATOM     14  C   UNL     1       1.810  -1.967  -3.304  0.00  0.00    -0.031 A 
ATOM     15  C   UNL     1       1.281  -2.760  -2.303  0.00  0.00    +0.054 A 
ATOM     16  C   UNL     1       0.614  -2.178  -1.237  0.00  0.00    +0.163 A 
BRANCH  11  18
ATOM     17  C   UNL     1      -0.304   1.204  -0.154  0.00  0.00    +0.277 C 
ATOM     18  O   UNL     1      -0.192  -0.220  -0.143  0.00  0.00    -0.491 OA
ENDBRANCH  11  18
BRANCH  16  19
ATOM     19  O   UNL     1       0.099  -2.957  -0.248  0.00  0.00    -0.484 OA
BRANCH  19  20
ATOM     20  C   UNL     1       0.288  -4.368  -0.369  0.00  0.00    +0.264 C 
BRANCH  20  21
ATOM     21  C   UNL     1      -0.345  -5.063   0.809  0.00  0.00    -0.010 A 
ATOM     22  C   UNL     1       0.393  -5.290   1.956  0.00  0.00    +0.007 A 
ATOM     23  C   UNL     1      -0.188  -5.927   3.036  0.00  0.00    +0.000 A 
ATOM     24  C   UNL     1      -1.507  -6.336   2.970  0.00  0.00    +0.000 A 
ATOM     25  C   UNL     1      -2.245  -6.108   1.824  0.00  0.00    +0.000 A 
ATOM     26  C   UNL     1      -1.665  -5.467   0.745  0.00  0.00    +0.007 A 
ENDBRANCH  20  21
ENDBRANCH  19  20
ENDBRANCH  16  19
ENDBRANCH   1  14
BRANCH   3  27
ATOM     27  C   UNL     1       5.065  -3.073  -2.563  0.00  0.00    +0.000 A 
ATOM     28  C   UNL     1       4.560  -4.372  -2.605  0.00  0.00    +0.010 A 
ATOM     29  C   UNL     1       4.619  -5.169  -1.480  0.00  0.00    +0.001 A 
ATOM     30  C   UNL     1       5.178  -4.681  -0.312  0.00  0.00    +0.000 A 
ATOM     31  C   UNL     1       5.679  -3.393  -0.264  0.00  0.00    +0.001 A 
ATOM     32  C   UNL     1       5.632  -2.588  -1.384  0.00  0.00    +0.010 A 
ENDBRANCH   3  27
BRANCH   9  33
ATOM     33  N   UNL     1       1.518  -1.250  -7.802  0.00  0.00    -0.328 N 
ATOM     34  H   UNL     1       1.819  -0.634  -8.488  0.00  0.00    +0.145 HD
ATOM     35  H   UNL     1       0.684  -1.732  -7.915  0.00  0.00    +0.145 HD
ENDBRANCH   9  33
BRANCH  10  36
ATOM     36  C   UNL     1       0.572  -2.982  -5.997  0.00  0.00    +0.101 C 
ATOM     37  N   UNL     1      -0.411  -3.516  -6.196  0.00  0.00    -0.191 NA
ENDBRANCH  10  36
TORSDOF 8
