REMARK  Name = ZINC08636043
REMARK  8 active torsions:
REMARK  status: ('A' for Active; 'I' for Inactive)
REMARK    1  A    between atoms: C_1  and  O_2
REMARK    2  A    between atoms: O_2  and  C_3
REMARK    3  A    between atoms: C_3  and  C_5
REMARK    4  A    between atoms: C_20  and  C_34
REMARK    5  A    between atoms: C_23  and  N_66
REMARK    6  A    between atoms: C_26  and  C_27
REMARK    7  A    between atoms: C_26  and  N_66
REMARK    8  A    between atoms: C_27  and  C_28
REMARK                            x       y       z     vdW  Elec       q    Type
REMARK                         _______ _______ _______ _____ _____    ______ ____
ROOT
ATOM      1  C   UNL     1      -0.693   3.777   0.416  0.00  0.00    +0.049 C 
ATOM      2  C   UNL     1      -1.560   2.546   0.111  0.00  0.00    +0.033 C 
ATOM      3  C   UNL     1      -0.678   1.324   0.178  0.00  0.00    -0.022 A 
ATOM      4  C   UNL     1      -1.051  -0.070   0.268  0.00  0.00    +0.003 A 
ATOM      5  C   UNL     1      -2.287  -0.722   0.329  0.00  0.00    +0.010 A 
ATOM      6  C   UNL     1      -2.263  -2.092   0.411  0.00  0.00    +0.001 A 
ATOM      7  C   UNL     1      -1.077  -2.808   0.433  0.00  0.00    +0.002 A 
ATOM      8  C   UNL     1       0.160  -2.190   0.376  0.00  0.00    +0.026 A 
ATOM      9  C   UNL     1       0.167  -0.799   0.292  0.00  0.00    +0.047 A 
ATOM     10  N   UNL     1       1.186   0.108   0.223  0.00  0.00    -0.359 N 
ATOM     11  H   UNL     1       2.130  -0.113   0.221  0.00  0.00    +0.166 HD
ATOM     12  C   UNL     1       0.674   1.375   0.154  0.00  0.00    +0.007 A 
ATOM     13  C   UNL     1       1.442   2.670   0.064  0.00  0.00    -0.020 C 
ATOM     14  C   UNL     1       1.207   5.026  -0.442  0.00  0.00    -0.037 C 
ATOM     15  C   UNL     1       2.357   4.960  -1.450  0.00  0.00    -0.027 C 
ATOM     16  C   UNL     1       3.337   3.859  -1.035  0.00  0.00    -0.074 C 
ATOM     17  C   UNL     1       2.590   2.526  -0.937  0.00  0.00    -0.025 C 
ATOM     18  N   UNL     1       0.522   3.716  -0.433  0.00  0.00    +0.399 N 
ATOM     19  H   UNL     1       0.242   3.482  -1.393  0.00  0.00    -0.079 HD
ENDROOT
BRANCH  14  20
ATOM     20  C   UNL     1       0.228   6.090  -0.865  0.00  0.00    -0.058 A 
ATOM     21  C   UNL     1       0.258   7.335  -0.263  0.00  0.00    +0.005 A 
ATOM     22  C   UNL     1      -0.639   8.312  -0.649  0.00  0.00    +0.041 A 
ATOM     23  C   UNL     1      -1.569   8.047  -1.639  0.00  0.00    +0.158 A 
ATOM     24  C   UNL     1      -1.600   6.799  -2.242  0.00  0.00    +0.159 A 
ATOM     25  C   UNL     1      -0.696   5.823  -1.857  0.00  0.00    +0.043 A 
ATOM     26  F   UNL     1      -2.506   6.537  -3.209  0.00  0.00    -0.202 F 
ATOM     27  F   UNL     1      -2.446   9.002  -2.017  0.00  0.00    -0.202 F 
ENDBRANCH  14  20
BRANCH  16  28
ATOM     28  N   UNL     1       3.920   4.187   0.280  0.00  0.00    +0.381 N 
ATOM     29  H   UNL     1       4.216   3.320   0.744  0.00  0.00    -0.086 HD
ATOM     30  H   UNL     1       3.212   4.659   0.855  0.00  0.00    -0.086 HD
BRANCH  28  31
ATOM     31  C   UNL     1       5.086   5.075   0.116  0.00  0.00    -0.076 C 
BRANCH  31  32
ATOM     32  C   UNL     1       5.668   5.397   1.494  0.00  0.00    +0.038 C 
BRANCH  32  33
ATOM     33  C   UNL     1       6.860   6.305   1.336  0.00  0.00    +0.057 A 
ATOM     34  C   UNL     1       7.027   7.503   1.929  0.00  0.00    +0.107 A 
ATOM     35  N   UNL     1       8.241   7.983   1.517  0.00  0.00    -0.351 N 
ATOM     36  H   UNL     1       8.658   8.851   1.787  0.00  0.00    +0.166 HD
ATOM     37  C   UNL     1       8.770   7.065   0.680  0.00  0.00    +0.196 A 
ATOM     38  N   UNL     1       7.939   6.064   0.577  0.00  0.00    -0.241 NA
ENDBRANCH  32  33
ENDBRANCH  31  32
ENDBRANCH  28  31
ENDBRANCH  16  28
BRANCH   1  39
ATOM     39  C   UNL     1      -0.324   3.789   1.877  0.00  0.00    +0.294 C 
ATOM     40  O   UNL     1       0.825   3.961   2.209  0.00  0.00    -0.253 OA
BRANCH  39  42
ATOM     41  C   UNL     1      -0.845   3.631   4.197  0.00  0.00    +0.280 C 
ATOM     42  O   UNL     1      -1.272   3.608   2.810  0.00  0.00    -0.469 OA
ENDBRANCH  39  42
ENDBRANCH   1  39
TORSDOF 7
