REMARK  Name = ZINC39664136
REMARK  13 active torsions:
REMARK  status: ('A' for Active; 'I' for Inactive)
REMARK    1  A    between atoms: C_1  and  C_2
REMARK    2  A    between atoms: C_2  and  C_3
REMARK    3  A    between atoms: C_3  and  C_4
REMARK    4  A    between atoms: C_4  and  C_5
REMARK    5  A    between atoms: C_5  and  C_6
REMARK    6  A    between atoms: C_6  and  C_7
REMARK    7  A    between atoms: C_11  and  C_20
REMARK    8  A    between atoms: N_22  and  C_23
REMARK    9  A    between atoms: C_23  and  C_24
REMARK   10  A    between atoms: C_24  and  C_26
REMARK   11  A    between atoms: C_24  and  N_34
REMARK   12  A    between atoms: C_29  and  O_32
REMARK   13  A    between atoms: O_32  and  C_33
REMARK                            x       y       z     vdW  Elec       q    Type
REMARK                         _______ _______ _______ _____ _____    ______ ____
ROOT
ATOM      1  C   UNL     1      -3.313  -4.731  -0.246  0.00  0.00    +0.216 C 
ATOM      2  O   UNL     1      -4.153  -3.862  -0.345  0.00  0.00    -0.276 OA
ATOM      3  N   UNL     1      -3.683  -6.026  -0.223  0.00  0.00    -0.300 N 
ATOM      4  C   UNL     1      -2.811  -7.218  -0.102  0.00  0.00    +0.121 C 
ATOM      5  C   UNL     1      -3.590  -8.179   0.824  0.00  0.00    +0.100 C 
ATOM      6  C   UNL     1      -5.062  -7.757   0.679  0.00  0.00    -0.004 C 
ATOM      7  C   UNL     1      -5.056  -6.581  -0.308  0.00  0.00    +0.115 C 
ATOM      8  C   UNL     1      -5.617  -7.305   2.026  0.00  0.00    -0.010 C 
ATOM      9  C   UNL     1      -7.097  -6.945   1.867  0.00  0.00    -0.082 C 
ATOM     10  N   UNL     1      -7.838  -8.114   1.378  0.00  0.00    +0.379 N 
ATOM     11  C   UNL     1      -7.359  -8.486   0.041  0.00  0.00    -0.082 C 
ATOM     12  C   UNL     1      -5.890  -8.911   0.122  0.00  0.00    -0.010 C 
ATOM     13  H   UNL     1      -7.698  -8.887   2.010  0.00  0.00    -0.086 HD
ATOM     14  H   UNL     1      -8.821  -7.893   1.332  0.00  0.00    -0.086 HD
ENDROOT
BRANCH   5  15
ATOM     15  C   UNL     1      -3.134  -8.018   2.251  0.00  0.00    +0.218 C 
ATOM     16  O   UNL     1      -2.692  -6.954   2.630  0.00  0.00    -0.275 OA
ATOM     17  N   UNL     1      -3.216  -9.056   3.107  0.00  0.00    -0.316 N 
ATOM     18  H   UNL     1      -3.569  -9.907   2.804  0.00  0.00    +0.149 HD
BRANCH  17  19
ATOM     19  C   UNL     1      -2.773  -8.899   4.494  0.00  0.00    +0.093 C 
BRANCH  19  20
ATOM     20  C   UNL     1      -2.842 -10.251   5.208  0.00  0.00    -0.020 C 
BRANCH  20  21
ATOM     21  C   UNL     1      -1.849 -11.198   4.586  0.00  0.00    -0.059 A 
ATOM     22  C   UNL     1      -0.513 -11.126   4.936  0.00  0.00    +0.005 A 
ATOM     23  C   UNL     1       0.399 -11.994   4.367  0.00  0.00    +0.046 A 
ATOM     24  C   UNL     1      -0.027 -12.938   3.443  0.00  0.00    +0.120 A 
ATOM     25  C   UNL     1      -1.367 -13.009   3.094  0.00  0.00    +0.046 A 
ATOM     26  C   UNL     1      -2.276 -12.142   3.670  0.00  0.00    +0.005 A 
BRANCH  24  27
ATOM     27  O   UNL     1       0.869 -13.793   2.882  0.00  0.00    -0.495 OA
ATOM     28  C   UNL     1       0.360 -14.739   1.940  0.00  0.00    +0.277 C 
ENDBRANCH  24  27
ENDBRANCH  20  21
BRANCH  20  29
ATOM     29  N   UNL     1      -2.522 -10.070   6.630  0.00  0.00    +0.385 N 
ATOM     30  C   UNL     1      -3.542  -9.207   7.279  0.00  0.00    -0.078 C 
ATOM     31  C   UNL     1      -3.409  -9.569   8.780  0.00  0.00    -0.020 C 
ATOM     32  C   UNL     1      -3.136 -11.090   8.746  0.00  0.00    -0.020 C 
ATOM     33  C   UNL     1      -2.584 -11.369   7.335  0.00  0.00    -0.078 C 
ATOM     34  H   UNL     1      -1.605  -9.663   6.732  0.00  0.00    -0.081 HD
ENDBRANCH  20  29
ENDBRANCH  19  20
ENDBRANCH  17  19
ENDBRANCH   5  15
BRANCH   1  35
ATOM     35  C   UNL     1      -1.855  -4.362  -0.147  0.00  0.00    +0.096 C 
BRANCH  35  36
ATOM     36  C   UNL     1      -1.710  -2.840  -0.196  0.00  0.00    +0.009 C 
BRANCH  36  37
ATOM     37  C   UNL     1      -0.229  -2.465  -0.096  0.00  0.00    +0.000 C 
BRANCH  37  38
ATOM     38  C   UNL     1      -0.084  -0.943  -0.145  0.00  0.00    -0.000 C 
BRANCH  38  40
ATOM     39  C   UNL     1       1.542   0.954  -0.094  0.00  0.00    +0.004 C 
ATOM     40  C   UNL     1       1.396  -0.569  -0.045  0.00  0.00    -0.003 C 
ENDBRANCH  38  40
ENDBRANCH  37  38
ENDBRANCH  36  37
ENDBRANCH  35  36
ENDBRANCH   1  35
TORSDOF 11
