REMARK  Name = ZINC38984550
REMARK  10 active torsions:
REMARK  status: ('A' for Active; 'I' for Inactive)
REMARK    1  A    between atoms: C_1  and  C_2
REMARK    2  A    between atoms: C_5  and  S_9
REMARK    3  A    between atoms: C_6  and  C_8
REMARK    4  A    between atoms: S_9  and  N_12
REMARK    5  A    between atoms: C_14  and  N_24
REMARK    6  A    between atoms: N_24  and  C_25
REMARK    7  A    between atoms: C_27  and  O_33
REMARK    8  A    between atoms: C_29  and  O_31
REMARK    9  A    between atoms: O_31  and  C_32
REMARK   10  A    between atoms: O_33  and  C_34
REMARK                            x       y       z     vdW  Elec       q    Type
REMARK                         _______ _______ _______ _____ _____    ______ ____
ROOT
ATOM      1  N   UNL     1       1.468  -5.121   0.344  0.00  0.00    -0.110 NA
ATOM      2  C   UNL     1       1.784  -6.352   0.618  0.00  0.00    +0.192 C 
ATOM      3  C   UNL     1       3.069  -6.670   1.349  0.00  0.00    +0.237 C 
ATOM      4  N   UNL     1       3.369  -8.083   1.629  0.00  0.00    -0.359 N 
ATOM      5  C   UNL     1       2.517  -8.989   1.237  0.00  0.00    +0.063 A 
ATOM      6  C   UNL     1       2.770 -10.415   1.493  0.00  0.00    +0.027 A 
ATOM      7  C   UNL     1       1.864 -11.325   1.071  0.00  0.00    +0.002 A 
ATOM      8  C   UNL     1       0.691 -10.943   0.398  0.00  0.00    +0.002 A 
ATOM      9  C   UNL     1       0.391  -9.654   0.128  0.00  0.00    +0.030 A 
ATOM     10  C   UNL     1       1.271  -8.614   0.524  0.00  0.00    +0.089 A 
ATOM     11  N   UNL     1       0.971  -7.360   0.262  0.00  0.00    -0.226 NA
ATOM     12  H   UNL     1       4.182  -8.335   2.095  0.00  0.00    +0.162 HD
ENDROOT
BRANCH   1  13
ATOM     13  S   UNL     1       0.054  -4.786  -0.450  0.00  0.00    +0.101 S 
ATOM     14  O   UNL     1      -1.002  -5.151   0.429  0.00  0.00    -0.146 OA
ATOM     15  O   UNL     1       0.182  -5.333  -1.755  0.00  0.00    -0.146 OA
BRANCH  13  20
ATOM     16  C   UNL     1      -0.248   1.204  -1.112  0.00  0.00    +0.044 C 
ATOM     17  C   UNL     1      -0.173  -0.292  -0.947  0.00  0.00    -0.050 A 
ATOM     18  C   UNL     1      -0.066  -1.106  -2.059  0.00  0.00    +0.005 A 
ATOM     19  C   UNL     1       0.004  -2.478  -1.907  0.00  0.00    +0.029 A 
ATOM     20  C   UNL     1      -0.033  -3.037  -0.643  0.00  0.00    +0.115 A 
ATOM     21  C   UNL     1      -0.139  -2.223   0.469  0.00  0.00    -0.023 A 
ATOM     22  C   UNL     1      -0.204  -0.851   0.318  0.00  0.00    +0.008 A 
ATOM     23  C   UNL     1      -0.180  -2.832   1.847  0.00  0.00    +0.046 C 
ENDBRANCH  13  20
ENDBRANCH   1  13
BRANCH   3  24
ATOM     24  N   UNL     1       4.178  -6.127   0.560  0.00  0.00    -0.318 N 
ATOM     25  H   UNL     1       4.190  -6.243  -0.403  0.00  0.00    +0.148 HD
BRANCH  24  26
ATOM     26  C   UNL     1       5.217  -5.442   1.194  0.00  0.00    +0.036 A 
ATOM     27  C   UNL     1       6.183  -4.790   0.439  0.00  0.00    +0.068 A 
ATOM     28  C   UNL     1       7.213  -4.111   1.069  0.00  0.00    +0.125 A 
ATOM     29  C   UNL     1       7.281  -4.083   2.454  0.00  0.00    +0.091 A 
ATOM     30  C   UNL     1       6.316  -4.734   3.210  0.00  0.00    +0.125 A 
ATOM     31  C   UNL     1       5.281  -5.408   2.581  0.00  0.00    +0.068 A 
BRANCH  30  32
ATOM     32  O   UNL     1       6.383  -4.706   4.567  0.00  0.00    -0.495 OA
ATOM     33  C   UNL     1       7.474  -3.988   5.148  0.00  0.00    +0.277 C 
ENDBRANCH  30  32
BRANCH  28  34
ATOM     34  O   UNL     1       8.159  -3.473   0.330  0.00  0.00    -0.495 OA
ATOM     35  C   UNL     1       9.192  -2.793   1.046  0.00  0.00    +0.277 C 
ENDBRANCH  28  34
ENDBRANCH  24  26
ENDBRANCH   3  24
TORSDOF 6
