REMARK  Name = ZINC04755499
REMARK  12 active torsions:
REMARK  status: ('A' for Active; 'I' for Inactive)
REMARK    1  A    between atoms: C_1  and  C_2
REMARK    2  A    between atoms: C_2  and  C_3
REMARK    3  A    between atoms: C_3  and  C_4
REMARK    4  A    between atoms: C_11  and  N_29
REMARK    5  A    between atoms: C_12  and  C_27
REMARK    6  A    between atoms: C_13  and  C_15
REMARK    7  A    between atoms: C_16  and  O_25
REMARK    8  A    between atoms: C_18  and  O_23
REMARK    9  A    between atoms: C_20  and  O_21
REMARK   10  A    between atoms: O_21  and  C_22
REMARK   11  A    between atoms: O_23  and  C_24
REMARK   12  A    between atoms: O_25  and  C_26
REMARK                            x       y       z     vdW  Elec       q    Type
REMARK                         _______ _______ _______ _____ _____    ______ ____
ROOT
ATOM      1  C   UNL     1       0.739  -2.004  -1.265  0.00  0.00    +0.071 A 
ATOM      2  C   UNL     1       1.726  -2.809  -0.712  0.00  0.00    +0.050 A 
ATOM      3  C   UNL     1       1.379  -4.114  -0.928  0.00  0.00    +0.222 A 
ATOM      4  N   UNL     1       0.212  -4.119  -1.594  0.00  0.00    -0.246 N 
ATOM      5  H   UNL     1      -0.277  -4.905  -1.883  0.00  0.00    +0.192 HD
ATOM      6  N   UNL     1      -0.176  -2.784  -1.791  0.00  0.00    -0.176 NA
ATOM      7  O   UNL     1       2.142  -5.154  -0.510  0.00  0.00    -0.423 OA
ATOM      8  C   UNL     1       3.401  -4.882  -0.108  0.00  0.00    +0.200 C 
ATOM      9  C   UNL     1       3.856  -3.636   0.148  0.00  0.00    +0.098 C 
ATOM     10  C   UNL     1       2.985  -2.412   0.014  0.00  0.00    +0.108 C 
ENDROOT
BRANCH  10  11
ATOM     11  C   UNL     1       2.637  -1.882   1.381  0.00  0.00    +0.049 A 
ATOM     12  C   UNL     1       1.976  -2.692   2.292  0.00  0.00    +0.131 A 
ATOM     13  C   UNL     1       1.657  -2.203   3.550  0.00  0.00    +0.091 A 
ATOM     14  C   UNL     1       1.998  -0.905   3.897  0.00  0.00    +0.127 A 
ATOM     15  C   UNL     1       2.660  -0.095   2.987  0.00  0.00    +0.091 A 
ATOM     16  C   UNL     1       2.984  -0.585   1.730  0.00  0.00    +0.131 A 
BRANCH  16  17
ATOM     17  O   UNL     1       3.637   0.207   0.840  0.00  0.00    -0.495 OA
ATOM     18  C   UNL     1       3.962   1.531   1.266  0.00  0.00    +0.277 C 
ENDBRANCH  16  17
BRANCH  14  19
ATOM     19  O   UNL     1       1.684  -0.426   5.130  0.00  0.00    -0.495 OA
ATOM     20  C   UNL     1       2.067   0.920   5.420  0.00  0.00    +0.277 C 
ENDBRANCH  14  19
BRANCH  12  21
ATOM     21  O   UNL     1       1.641  -3.964   1.952  0.00  0.00    -0.495 OA
ATOM     22  C   UNL     1       0.962  -4.742   2.939  0.00  0.00    +0.277 C 
ENDBRANCH  12  21
ENDBRANCH  10  11
BRANCH   8  23
ATOM     23  N   UNL     1       4.270  -5.933   0.048  0.00  0.00    -0.328 N 
ATOM     24  H   UNL     1       3.972  -6.839  -0.130  0.00  0.00    +0.145 HD
ATOM     25  H   UNL     1       5.182  -5.770   0.335  0.00  0.00    +0.145 HD
ENDBRANCH   8  23
BRANCH   9  26
ATOM     26  C   UNL     1       5.217  -3.472   0.564  0.00  0.00    +0.101 C 
ATOM     27  N   UNL     1       6.296  -3.341   0.894  0.00  0.00    -0.191 NA
ENDBRANCH   9  26
BRANCH   1  28
ATOM     28  C   UNL     1       0.718  -0.497  -1.257  0.00  0.00    +0.057 C 
BRANCH  28  30
ATOM     29  C   UNL     1      -0.019   1.526   0.010  0.00  0.00    +0.004 C 
ATOM     30  C   UNL     1       0.002  -0.004   0.002  0.00  0.00    +0.003 C 
ENDBRANCH  28  30
ENDBRANCH   1  28
TORSDOF 8
