REMARK  Name = ZINC19959761
REMARK  3 active torsions:
REMARK  status: ('A' for Active; 'I' for Inactive)
REMARK    1  A    between atoms: C_1  and  C_2
REMARK    2  A    between atoms: C_7  and  C_19
REMARK    3  A    between atoms: C_12  and  C_14
REMARK                            x       y       z     vdW  Elec       q    Type
REMARK                         _______ _______ _______ _____ _____    ______ ____
ROOT
ATOM      1  C   UNL     1       7.385  -1.460  -2.011  0.00  0.00    +0.008 C 
ATOM      2  C   UNL     1       5.887  -1.490  -1.702  0.00  0.00    -0.001 C 
ATOM      3  C   UNL     1       5.548  -0.397  -0.686  0.00  0.00    +0.055 C 
ATOM      4  C   UNL     1       4.077  -0.454  -0.350  0.00  0.00    +0.020 C 
ATOM      5  C   UNL     1       3.407  -1.626  -0.365  0.00  0.00    +0.041 C 
ATOM      6  C   UNL     1       1.938  -1.718  -0.016  0.00  0.00    +0.175 C 
ATOM      7  N   UNL     1       1.342  -0.388  -0.011  0.00  0.00    -0.220 N 
ATOM      8  C   UNL     1       2.071   0.756  -0.015  0.00  0.00    +0.219 A 
ATOM      9  N   UNL     1       1.241   1.763  -0.000  0.00  0.00    -0.189 NA
ATOM     10  C   UNL     1      -0.016   1.306   0.009  0.00  0.00    +0.256 A 
ATOM     11  N   UNL     1       0.002  -0.004   0.002  0.00  0.00    -0.143 NA
ATOM     12  N   UNL     1       3.456   0.731  -0.036  0.00  0.00    -0.287 N 
ATOM     13  C   UNL     1       4.058  -2.824  -0.712  0.00  0.00    +0.163 C 
ATOM     14  O   UNL     1       3.430  -3.865  -0.703  0.00  0.00    -0.292 OA
ATOM     15  C   UNL     1       5.511  -2.846  -1.094  0.00  0.00    +0.083 C 
ATOM     16  H   UNL     1       4.057   1.625   0.189  0.00  0.00    +0.155 HD
ENDROOT
BRANCH   6  17
ATOM     17  C   UNL     1       1.786  -2.339   1.348  0.00  0.00    -0.018 A 
ATOM     18  C   UNL     1       2.350  -1.728   2.453  0.00  0.00    +0.007 A 
ATOM     19  C   UNL     1       2.206  -2.295   3.705  0.00  0.00    +0.020 A 
ATOM     20  C   UNL     1       1.506  -3.479   3.852  0.00  0.00    +0.041 A 
ATOM     21  C   UNL     1       0.946  -4.093   2.746  0.00  0.00    +0.020 A 
ATOM     22  C   UNL     1       1.086  -3.523   1.494  0.00  0.00    +0.007 A 
ATOM     23 CL   UNL     1       1.331  -4.194   5.424  0.00  0.00    -0.084 Cl
ENDBRANCH   6  17
BRANCH  10  24
ATOM     24  C   UNL     1      -1.256   2.163   0.020  0.00  0.00    +0.454 C 
ATOM     25  F   UNL     1      -1.439   2.701   1.298  0.00  0.00    -0.163 F 
ATOM     26  F   UNL     1      -1.114   3.200  -0.908  0.00  0.00    -0.163 F 
ATOM     27  F   UNL     1      -2.365   1.381  -0.320  0.00  0.00    -0.163 F 
ENDBRANCH  10  24
TORSDOF 2
