REMARK  Name = ZINC03348025
REMARK  9 active torsions:
REMARK  status: ('A' for Active; 'I' for Inactive)
REMARK    1  A    between atoms: C_1  and  C_2
REMARK    2  A    between atoms: C_2  and  C_37
REMARK    3  A    between atoms: C_13  and  C_15
REMARK    4  A    between atoms: C_15  and  O_16
REMARK    5  A    between atoms: O_16  and  C_17
REMARK    6  A    between atoms: C_17  and  C_19
REMARK    7  A    between atoms: C_20  and  C_21
REMARK    8  A    between atoms: N_23  and  C_31
REMARK    9  A    between atoms: C_25  and  C_26
REMARK                            x       y       z     vdW  Elec       q    Type
REMARK                         _______ _______ _______ _____ _____    ______ ____
ROOT
ATOM      1  C   UNL     1      -0.489   0.373   2.250  0.00  0.00    +0.332 C 
ATOM      2  O   UNL     1       0.637  -0.086   2.297  0.00  0.00    -0.246 OA
ENDROOT
BRANCH   1   3
ATOM      3  C   UNL     1      -1.295   0.392   3.412  0.00  0.00    +0.092 C 
ATOM      4  C   UNL     1      -0.814  -0.102   4.577  0.00  0.00    +0.018 C 
BRANCH   4   5
ATOM      5  C   UNL     1      -1.650  -0.083   5.781  0.00  0.00    +0.021 A 
ATOM      6  C   UNL     1      -2.938   0.408   5.889  0.00  0.00    +0.123 A 
ATOM      7  N   UNL     1      -3.342   0.231   7.160  0.00  0.00    -0.239 N 
ATOM      8  N   UNL     1      -2.319  -0.367   7.901  0.00  0.00    -0.165 NA
ATOM      9  C   UNL     1      -1.282  -0.575   7.116  0.00  0.00    +0.107 A 
BRANCH   7  10
ATOM     10  C   UNL     1      -4.595   0.597   7.666  0.00  0.00    +0.065 A 
ATOM     11  C   UNL     1      -5.535   1.193   6.834  0.00  0.00    +0.028 A 
ATOM     12  C   UNL     1      -6.772   1.547   7.334  0.00  0.00    +0.002 A 
ATOM     13  C   UNL     1      -7.072   1.321   8.665  0.00  0.00    +0.000 A 
ATOM     14  C   UNL     1      -6.137   0.733   9.497  0.00  0.00    +0.002 A 
ATOM     15  C   UNL     1      -4.900   0.371   9.002  0.00  0.00    +0.028 A 
ENDBRANCH   7  10
BRANCH   9  16
ATOM     16  C   UNL     1       0.004  -1.186   7.504  0.00  0.00    +0.040 A 
ATOM     17  C   UNL     1       0.684  -1.088   8.690  0.00  0.00    +0.018 A 
ATOM     18  C   UNL     1       1.881  -1.756   8.822  0.00  0.00    +0.008 A 
ATOM     19  C   UNL     1       2.350  -2.488   7.779  0.00  0.00    +0.046 A 
ATOM     20  S   UNL     1       1.075  -2.252   6.553  0.00  0.00    -0.095 S 
ENDBRANCH   9  16
ENDBRANCH   4   5
ENDBRANCH   1   3
BRANCH   1  21
ATOM     21  O   UNL     1      -0.968   0.865   1.088  0.00  0.00    -0.452 OA
BRANCH  21  22
ATOM     22  C   UNL     1      -0.100   0.814  -0.046  0.00  0.00    +0.328 C 
BRANCH  22  35
ATOM     23  C   UNL     1      -2.306   2.335  -3.313  0.00  0.00    +0.042 C 
ATOM     24  C   UNL     1      -0.870   1.922  -3.641  0.00  0.00    +0.113 C 
ATOM     25  C   UNL     1      -0.874   0.969  -4.803  0.00  0.00    +0.241 C 
ATOM     26  O   UNL     1      -1.735   1.064  -5.652  0.00  0.00    -0.273 OA
ATOM     27  N   UNL     1       0.062   0.007  -4.911  0.00  0.00    -0.282 N 
ATOM     28  C   UNL     1       1.035  -0.158  -3.919  0.00  0.00    +0.055 A 
ATOM     29  C   UNL     1       2.156  -0.939  -4.149  0.00  0.00    +0.025 A 
ATOM     30  C   UNL     1       3.101  -1.097  -3.152  0.00  0.00    +0.002 A 
ATOM     31  C   UNL     1       2.933  -0.480  -1.925  0.00  0.00    +0.002 A 
ATOM     32  C   UNL     1       1.818   0.304  -1.688  0.00  0.00    +0.025 A 
ATOM     33  C   UNL     1       0.870   0.467  -2.682  0.00  0.00    +0.059 A 
ATOM     34  N   UNL     1      -0.270   1.259  -2.473  0.00  0.00    -0.253 N 
ATOM     35  C   UNL     1      -0.801   1.403  -1.243  0.00  0.00    +0.258 C 
ATOM     36  O   UNL     1      -1.843   2.007  -1.099  0.00  0.00    -0.271 OA
ATOM     37  C   UNL     1      -0.049   3.161  -4.004  0.00  0.00    +0.042 C 
ATOM     38  H   UNL     1       0.062  -0.578  -5.684  0.00  0.00    +0.155 HD
ENDBRANCH  22  35
ENDBRANCH  21  22
ENDBRANCH   1  21
TORSDOF 7
