REMARK  Name = ZINC63696130
REMARK  6 active torsions:
REMARK  status: ('A' for Active; 'I' for Inactive)
REMARK    1  A    between atoms: C_4  and  N_16
REMARK    2  A    between atoms: C_5  and  C_7
REMARK    3  A    between atoms: C_17  and  C_19
REMARK    4  A    between atoms: C_19  and  C_20
REMARK    5  A    between atoms: C_20  and  S_21
REMARK    6  A    between atoms: S_21  and  C_24
REMARK                            x       y       z     vdW  Elec       q    Type
REMARK                         _______ _______ _______ _____ _____    ______ ____
ROOT
ATOM      1  C   UNL     1       0.003   1.419  -0.105  0.00  0.00    +0.001 A 
ATOM      2  C   UNL     1       1.172   2.099   0.179  0.00  0.00    +0.002 A 
ATOM      3  C   UNL     1       2.360   1.408   0.312  0.00  0.00    +0.024 A 
ATOM      4  C   UNL     1       2.380   0.028   0.160  0.00  0.00    +0.040 A 
ATOM      5  C   UNL     1       1.204  -0.653  -0.125  0.00  0.00    +0.016 A 
ATOM      6  C   UNL     1       0.019   0.044  -0.257  0.00  0.00    +0.009 A 
ENDROOT
BRANCH   5   7
ATOM      7  C   UNL     1       1.220  -2.151  -0.291  0.00  0.00    +0.208 C 
ATOM      8  N   UNL     1       2.407  -2.561  -1.052  0.00  0.00    -0.360 N 
ATOM      9  C   UNL     1       1.991  -3.153  -2.134  0.00  0.00    +0.060 A 
ATOM     10  C   UNL     1       2.693  -3.769  -3.269  0.00  0.00    +0.027 A 
ATOM     11  C   UNL     1       1.981  -4.320  -4.272  0.00  0.00    +0.002 A 
ATOM     12  C   UNL     1       0.575  -4.334  -4.285  0.00  0.00    +0.002 A 
ATOM     13  C   UNL     1      -0.166  -3.796  -3.296  0.00  0.00    +0.027 A 
ATOM     14  C   UNL     1       0.503  -3.168  -2.148  0.00  0.00    +0.060 A 
ATOM     15  N   UNL     1       0.056  -2.584  -1.074  0.00  0.00    -0.360 N 
ATOM     16  H   UNL     1       3.331  -2.416  -0.796  0.00  0.00    +0.162 HD
ATOM     17  H   UNL     1      -0.876  -2.458  -0.835  0.00  0.00    +0.162 HD
ENDBRANCH   5   7
BRANCH   4  18
ATOM     18  N   UNL     1       3.582  -0.676   0.294  0.00  0.00    -0.285 N 
ATOM     19  C   UNL     1       4.718  -0.173  -0.228  0.00  0.00    +0.219 C 
ATOM     20  O   UNL     1       4.714   0.923  -0.748  0.00  0.00    -0.275 OA
ATOM     21  H   UNL     1       3.598  -1.525   0.762  0.00  0.00    +0.155 HD
BRANCH  19  22
ATOM     22  C   UNL     1       5.994  -0.972  -0.165  0.00  0.00    +0.119 C 
BRANCH  22  23
ATOM     23  C   UNL     1       7.126  -0.180  -0.823  0.00  0.00    +0.181 C 
BRANCH  23  24
ATOM     24  S   UNL     1       8.662  -1.142  -0.748  0.00  0.00    -0.003 S 
ATOM     25  O   UNL     1       9.101  -1.257   0.599  0.00  0.00    -0.169 OA
ATOM     26  O   UNL     1       8.560  -2.291  -1.577  0.00  0.00    -0.169 OA
BRANCH  24  27
ATOM     27  C   UNL     1       9.870  -0.127  -1.531  0.00  0.00    +0.088 A 
ATOM     28  C   UNL     1      10.078  -0.227  -2.894  0.00  0.00    +0.030 A 
ATOM     29  C   UNL     1      11.025   0.568  -3.510  0.00  0.00    +0.040 A 
ATOM     30  C   UNL     1      11.767   1.466  -2.760  0.00  0.00    +0.124 A 
ATOM     31  C   UNL     1      11.559   1.565  -1.395  0.00  0.00    +0.040 A 
ATOM     32  C   UNL     1      10.607   0.772  -0.783  0.00  0.00    +0.030 A 
ATOM     33  F   UNL     1      12.694   2.244  -3.361  0.00  0.00    -0.205 F 
ENDBRANCH  24  27
ENDBRANCH  23  24
ENDBRANCH  22  23
ENDBRANCH  19  22
ENDBRANCH   4  18
TORSDOF 6
