REMARK  Name = ZINC39666661
REMARK  9 active torsions:
REMARK  status: ('A' for Active; 'I' for Inactive)
REMARK    1  A    between atoms: C_1  and  C_2
REMARK    2  A    between atoms: C_4  and  C_8
REMARK    3  A    between atoms: N_6  and  C_7
REMARK    4  A    between atoms: C_12  and  C_21
REMARK    5  A    between atoms: N_23  and  C_24
REMARK    6  A    between atoms: C_24  and  C_25
REMARK    7  A    between atoms: C_25  and  C_27
REMARK    8  A    between atoms: C_25  and  O_28
REMARK    9  A    between atoms: O_28  and  C_29
REMARK                            x       y       z     vdW  Elec       q    Type
REMARK                         _______ _______ _______ _____ _____    ______ ____
ROOT
ATOM      1  C   UNL     1       0.051  -3.317  -1.365  0.00  0.00    +0.267 C 
ATOM      2  O   UNL     1       0.036  -3.247  -2.578  0.00  0.00    -0.268 OA
ATOM      3  N   UNL     1       0.064  -4.521  -0.760  0.00  0.00    -0.295 N 
ATOM      4  C   UNL     1       0.076  -4.808   0.694  0.00  0.00    +0.121 C 
ATOM      5  C   UNL     1      -0.861  -6.025   0.861  0.00  0.00    +0.100 C 
ATOM      6  C   UNL     1      -0.860  -6.712  -0.515  0.00  0.00    -0.004 C 
ATOM      7  C   UNL     1       0.062  -5.859  -1.399  0.00  0.00    +0.115 C 
ATOM      8  C   UNL     1      -2.270  -6.729  -1.098  0.00  0.00    -0.010 C 
ATOM      9  C   UNL     1      -2.254  -7.467  -2.439  0.00  0.00    -0.082 C 
ATOM     10  N   UNL     1      -1.768  -8.838  -2.240  0.00  0.00    +0.379 N 
ATOM     11  C   UNL     1      -0.379  -8.813  -1.767  0.00  0.00    -0.082 C 
ATOM     12  C   UNL     1      -0.316  -8.132  -0.397  0.00  0.00    -0.010 C 
ATOM     13  H   UNL     1      -2.347  -9.302  -1.556  0.00  0.00    -0.086 HD
ATOM     14  H   UNL     1      -1.816  -9.341  -3.113  0.00  0.00    -0.086 HD
ENDROOT
BRANCH   1  18
ATOM     15  C   UNL     1       0.046   1.541   0.079  0.00  0.00    +0.065 C 
ATOM     16  C   UNL     1       0.052   0.035   0.059  0.00  0.00    +0.037 A 
ATOM     17  C   UNL     1       0.043  -0.754  -1.041  0.00  0.00    +0.057 A 
ATOM     18  C   UNL     1       0.055  -2.083  -0.553  0.00  0.00    +0.147 A 
ATOM     19  N   UNL     1       0.070  -2.010   0.763  0.00  0.00    -0.167 NA
ATOM     20  N   UNL     1       0.073  -0.780   1.136  0.00  0.00    -0.271 N 
ATOM     21  C   UNL     1       0.094  -0.327   2.529  0.00  0.00    +0.172 C 
ENDBRANCH   1  18
BRANCH   5  22
ATOM     22  C   UNL     1      -0.326  -6.958   1.916  0.00  0.00    +0.218 C 
ATOM     23  O   UNL     1       0.871  -7.099   2.051  0.00  0.00    -0.275 OA
ATOM     24  N   UNL     1      -1.178  -7.637   2.710  0.00  0.00    -0.312 N 
ATOM     25  H   UNL     1      -2.135  -7.524   2.602  0.00  0.00    +0.149 HD
BRANCH  24  26
ATOM     26  C   UNL     1      -0.658  -8.544   3.736  0.00  0.00    +0.148 C 
BRANCH  26  27
ATOM     27  C   UNL     1      -1.826  -9.183   4.490  0.00  0.00    +0.187 C 
ATOM     28  C   UNL     1      -1.283 -10.131   5.562  0.00  0.00    +0.053 C 
BRANCH  27  29
ATOM     29  O   UNL     1      -2.608  -8.161   5.111  0.00  0.00    -0.486 OA
BRANCH  29  30
ATOM     30  C   UNL     1      -3.912  -8.450   5.365  0.00  0.00    +0.139 A 
ATOM     31  C   UNL     1      -4.398  -9.729   5.133  0.00  0.00    +0.047 A 
ATOM     32  C   UNL     1      -5.723 -10.021   5.393  0.00  0.00    +0.004 A 
ATOM     33  C   UNL     1      -6.565  -9.040   5.884  0.00  0.00    +0.002 A 
ATOM     34  C   UNL     1      -6.084  -7.765   6.117  0.00  0.00    +0.023 A 
ATOM     35  C   UNL     1      -4.757  -7.469   5.864  0.00  0.00    +0.083 A 
ATOM     36 CL   UNL     1      -4.152  -5.870   6.163  0.00  0.00    -0.080 Cl
ENDBRANCH  29  30
ENDBRANCH  27  29
ENDBRANCH  26  27
ENDBRANCH  24  26
ENDBRANCH   5  22
TORSDOF 6
