REMARK  Name = ZINC52712283
REMARK  5 active torsions:
REMARK  status: ('A' for Active; 'I' for Inactive)
REMARK    1  A    between atoms: C_1  and  C_2
REMARK    2  A    between atoms: C_2  and  C_3
REMARK    3  A    between atoms: C_6  and  C_9
REMARK    4  A    between atoms: C_15  and  S_22
REMARK    5  A    between atoms: S_22  and  N_25
REMARK                            x       y       z     vdW  Elec       q    Type
REMARK                         _______ _______ _______ _____ _____    ______ ____
ROOT
ATOM      1  C   UNL     1       2.797  -1.919   4.683  0.00  0.00    +0.191 C 
ATOM      2  N   UNL     1       4.164  -1.405   4.683  0.00  0.00    -0.322 N 
ATOM      3  C   UNL     1       4.478  -0.065   4.894  0.00  0.00    +0.057 A 
ATOM      4  C   UNL     1       5.703   0.419   4.436  0.00  0.00    +0.047 A 
ATOM      5  C   UNL     1       6.050   1.738   4.645  0.00  0.00    +0.069 A 
ATOM      6  C   UNL     1       5.186   2.590   5.310  0.00  0.00    +0.125 A 
ATOM      7  C   UNL     1       3.966   2.119   5.761  0.00  0.00    +0.060 A 
ATOM      8  C   UNL     1       3.613   0.803   5.547  0.00  0.00    +0.128 A 
ATOM      9  S   UNL     1       2.036   0.216   6.090  0.00  0.00    +0.062 S 
ATOM     10  O   UNL     1       1.957   0.471   7.486  0.00  0.00    -0.153 OA
ATOM     11  O   UNL     1       1.072   0.698   5.164  0.00  0.00    -0.153 OA
ATOM     12  N   UNL     1       2.109  -1.443   5.901  0.00  0.00    -0.166 NA
ATOM     13 CL   UNL     1       7.577   2.331   4.070  0.00  0.00    -0.081 Cl
ATOM     14  H   UNL     1       4.891  -2.029   4.528  0.00  0.00    +0.148 HD
ATOM     15  H   UNL     1       1.727  -2.055   6.549  0.00  0.00    +0.150 HD
ENDROOT
BRANCH   1  19
ATOM     16  C   UNL     1       0.731  -0.503   1.223  0.00  0.00    -0.048 A 
ATOM     17  C   UNL     1       2.097  -0.710   1.176  0.00  0.00    +0.004 A 
ATOM     18  C   UNL     1       2.766  -1.167   2.296  0.00  0.00    +0.007 A 
ATOM     19  C   UNL     1       2.068  -1.419   3.463  0.00  0.00    -0.011 A 
ATOM     20  C   UNL     1       0.702  -1.212   3.510  0.00  0.00    +0.007 A 
ATOM     21  C   UNL     1       0.034  -0.750   2.391  0.00  0.00    +0.004 A 
BRANCH  16  23
ATOM     22  C   UNL     1      -0.019   1.526   0.010  0.00  0.00    +0.009 C 
ATOM     23  C   UNL     1       0.002  -0.004   0.002  0.00  0.00    +0.032 C 
ENDBRANCH  16  23
ENDBRANCH   1  19
BRANCH   6  24
ATOM     24  S   UNL     1       5.639   4.271   5.583  0.00  0.00    +0.057 S 
ATOM     25  O   UNL     1       6.092   4.777   4.335  0.00  0.00    -0.153 OA
ATOM     26  O   UNL     1       4.569   4.868   6.303  0.00  0.00    -0.153 OA
BRANCH  24  27
ATOM     27  N   UNL     1       6.948   4.267   6.596  0.00  0.00    -0.203 NA
ATOM     28  H   UNL     1       7.311   3.427   6.916  0.00  0.00    +0.144 HD
ATOM     29  H   UNL     1       7.352   5.106   6.870  0.00  0.00    +0.144 HD
ENDBRANCH  24  27
ENDBRANCH   6  24
TORSDOF 4
