REMARK  Name = ZINC12497840
REMARK  11 active torsions:
REMARK  status: ('A' for Active; 'I' for Inactive)
REMARK    1  A    between atoms: C_1  and  C_2
REMARK    2  A    between atoms: C_2  and  C_29
REMARK    3  A    between atoms: N_3  and  N_4
REMARK    4  A    between atoms: C_5  and  C_7
REMARK    5  A    between atoms: C_7  and  S_8
REMARK    6  A    between atoms: S_8  and  C_9
REMARK    7  A    between atoms: C_12  and  C_21
REMARK    8  A    between atoms: N_13  and  C_14
REMARK    9  A    between atoms: C_24  and  O_27
REMARK   10  A    between atoms: O_27  and  C_28
REMARK   11  A    between atoms: C_34  and  O_35
REMARK                            x       y       z     vdW  Elec       q    Type
REMARK                         _______ _______ _______ _____ _____    ______ ____
ROOT
ATOM      1  C   UNL     1      -0.959  -6.507   3.852  0.00  0.00    +0.197 A 
ATOM      2  N   UNL     1      -0.960  -7.190   2.729  0.00  0.00    -0.122 NA
ATOM      3  N   UNL     1      -1.132  -8.440   2.972  0.00  0.00    -0.128 NA
ATOM      4  C   UNL     1      -1.251  -8.635   4.265  0.00  0.00    +0.169 A 
ATOM      5  N   UNL     1      -1.138  -7.403   4.871  0.00  0.00    -0.270 N 
ENDROOT
BRANCH   5   6
ATOM      6  C   UNL     1      -1.198  -7.125   6.244  0.00  0.00    +0.051 A 
ATOM      7  C   UNL     1      -0.212  -7.609   7.095  0.00  0.00    +0.028 A 
ATOM      8  C   UNL     1      -0.273  -7.333   8.447  0.00  0.00    +0.022 A 
ATOM      9  C   UNL     1      -1.315  -6.576   8.954  0.00  0.00    +0.041 A 
ATOM     10  C   UNL     1      -2.298  -6.094   8.108  0.00  0.00    +0.022 A 
ATOM     11  C   UNL     1      -2.239  -6.362   6.754  0.00  0.00    +0.028 A 
ATOM     12 CL   UNL     1      -1.388  -6.232  10.654  0.00  0.00    -0.084 Cl
ENDBRANCH   5   6
BRANCH   4  13
ATOM     13  C   UNL     1      -1.460  -9.932   4.942  0.00  0.00    +0.020 A 
ATOM     14  C   UNL     1      -1.884  -9.967   6.272  0.00  0.00    +0.015 A 
ATOM     15  C   UNL     1      -2.079 -11.178   6.900  0.00  0.00    +0.046 A 
ATOM     16  C   UNL     1      -1.853 -12.363   6.212  0.00  0.00    +0.120 A 
ATOM     17  C   UNL     1      -1.431 -12.333   4.889  0.00  0.00    +0.046 A 
ATOM     18  C   UNL     1      -1.240 -11.126   4.252  0.00  0.00    +0.015 A 
BRANCH  16  19
ATOM     19  O   UNL     1      -2.046 -13.556   6.834  0.00  0.00    -0.495 OA
ATOM     20  C   UNL     1      -1.796 -14.736   6.068  0.00  0.00    +0.277 C 
ENDBRANCH  16  19
ENDBRANCH   4  13
BRANCH   1  21
ATOM     21  S   UNL     1      -0.755  -4.765   4.016  0.00  0.00    -0.076 S 
BRANCH  21  22
ATOM     22  C   UNL     1      -0.568  -4.182   2.308  0.00  0.00    +0.174 C 
BRANCH  22  24
ATOM     23  N   UNL     1      -0.223  -2.030   1.139  0.00  0.00    -0.206 N 
ATOM     24  C   UNL     1      -0.383  -2.687   2.305  0.00  0.00    +0.242 C 
ATOM     25  O   UNL     1      -0.379  -2.074   3.352  0.00  0.00    -0.273 OA
ATOM     26  H   UNL     1      -0.227  -2.520   0.302  0.00  0.00    +0.177 HD
BRANCH  23  29
ATOM     27  C   UNL     1       0.090   1.510   0.009  0.00  0.00    +0.068 C 
ATOM     28  C   UNL     1      -0.005   0.006   0.011  0.00  0.00    +0.067 C 
ATOM     29  N   UNL     1      -0.052  -0.639   1.136  0.00  0.00    -0.184 NA
BRANCH  28  30
ATOM     30  C   UNL     1      -0.045  -0.731  -1.264  0.00  0.00    +0.039 A 
ATOM     31  C   UNL     1      -1.191  -1.442  -1.629  0.00  0.00    +0.013 A 
ATOM     32  C   UNL     1      -1.222  -2.130  -2.824  0.00  0.00    +0.001 A 
ATOM     33  C   UNL     1      -0.121  -2.119  -3.664  0.00  0.00    +0.004 A 
ATOM     34  C   UNL     1       1.018  -1.420  -3.314  0.00  0.00    +0.046 A 
ATOM     35  C   UNL     1       1.065  -0.719  -2.120  0.00  0.00    +0.126 A 
BRANCH  35  36
ATOM     36  O   UNL     1       2.182  -0.027  -1.778  0.00  0.00    -0.506 OA
ATOM     37  H   UNL     1       2.791  -0.520  -1.211  0.00  0.00    +0.292 HD
ENDBRANCH  35  36
ENDBRANCH  28  30
ENDBRANCH  23  29
ENDBRANCH  22  24
ENDBRANCH  21  22
ENDBRANCH   1  21
TORSDOF 9
