REMARK  Name = ZINC02355799
REMARK  3 active torsions:
REMARK  status: ('A' for Active; 'I' for Inactive)
REMARK    1  A    between atoms: C_7  and  C_19
REMARK    2  A    between atoms: N_9  and  C_10
REMARK    3  A    between atoms: C_10  and  C_11
REMARK                            x       y       z     vdW  Elec       q    Type
REMARK                         _______ _______ _______ _____ _____    ______ ____
ROOT
ATOM      1  C   UNL     1       0.399   1.269   1.163  0.00  0.00    +0.001 A 
ATOM      2  C   UNL     1       1.562   1.966   0.873  0.00  0.00    +0.002 A 
ATOM      3  C   UNL     1       2.641   1.325   0.302  0.00  0.00    +0.026 A 
ATOM      4  C   UNL     1       2.567  -0.034   0.012  0.00  0.00    +0.050 A 
ATOM      5  C   UNL     1       1.388  -0.736   0.306  0.00  0.00    +0.007 A 
ATOM      6  C   UNL     1       0.307  -0.077   0.882  0.00  0.00    +0.010 A 
ATOM      7  C   UNL     1       1.633  -2.130  -0.117  0.00  0.00    +0.001 A 
ATOM      8  C   UNL     1       2.921  -2.156  -0.626  0.00  0.00    +0.095 A 
ATOM      9  N   UNL     1       3.460  -0.927  -0.547  0.00  0.00    -0.342 N 
ENDROOT
BRANCH   7  10
ATOM     10  C   UNL     1       0.737  -3.213  -0.023  0.00  0.00    +0.028 C 
ATOM     11  C   UNL     1       1.175  -4.436   0.475  0.00  0.00    +0.101 C 
ATOM     12  C   UNL     1       2.492  -4.579   1.110  0.00  0.00    +0.274 C 
ATOM     13  O   UNL     1       3.320  -3.519   1.229  0.00  0.00    -0.268 OA
ATOM     14  N   UNL     1       2.849  -5.770   1.563  0.00  0.00    -0.154 NA
ATOM     15  C   UNL     1       2.054  -6.831   1.460  0.00  0.00    +0.164 C 
ATOM     16  S   UNL     1       2.615  -8.325   2.080  0.00  0.00    -0.016 S 
ATOM     17  N   UNL     1       0.837  -6.795   0.897  0.00  0.00    -0.262 N 
ATOM     18  C   UNL     1       0.336  -5.646   0.395  0.00  0.00    +0.255 C 
ATOM     19  O   UNL     1      -0.770  -5.611  -0.111  0.00  0.00    -0.270 OA
ATOM     20  H   UNL     1       0.307  -7.606   0.854  0.00  0.00    +0.157 HD
ENDBRANCH   7  10
BRANCH   9  21
ATOM     21  C   UNL     1       4.812  -0.581  -0.994  0.00  0.00    +0.157 C 
BRANCH  21  22
ATOM     22  C   UNL     1       5.760  -0.648   0.176  0.00  0.00    -0.026 A 
ATOM     23  C   UNL     1       5.975   0.473   0.956  0.00  0.00    +0.007 A 
ATOM     24  C   UNL     1       6.845   0.413   2.028  0.00  0.00    +0.022 A 
ATOM     25  C   UNL     1       7.500  -0.769   2.322  0.00  0.00    +0.059 A 
ATOM     26  C   UNL     1       7.285  -1.892   1.541  0.00  0.00    +0.060 A 
ATOM     27  C   UNL     1       6.410  -1.831   0.471  0.00  0.00    +0.026 A 
ATOM     28 CL   UNL     1       8.107  -3.376   1.908  0.00  0.00    -0.082 Cl
ATOM     29 CL   UNL     1       8.593  -0.845   3.669  0.00  0.00    -0.082 Cl
ENDBRANCH  21  22
ENDBRANCH   9  21
TORSDOF 3
