REMARK  Name = ZINC26533300
REMARK  8 active torsions:
REMARK  status: ('A' for Active; 'I' for Inactive)
REMARK    1  A    between atoms: C_1  and  C_2
REMARK    2  A    between atoms: C_2  and  O_3
REMARK    3  A    between atoms: O_3  and  C_4
REMARK    4  A    between atoms: C_4  and  C_6
REMARK    5  A    between atoms: C_8  and  C_20
REMARK    6  A    between atoms: C_14  and  C_15
REMARK    7  A    between atoms: C_14  and  O_19
REMARK    8  A    between atoms: C_23  and  C_25
REMARK                            x       y       z     vdW  Elec       q    Type
REMARK                         _______ _______ _______ _____ _____    ______ ____
ROOT
ATOM      1  C   UNL     1      -4.411   7.573  -2.013  0.00  0.00    +0.184 C 
ATOM      2  C   UNL     1      -5.121   6.696  -0.976  0.00  0.00    +0.159 C 
ATOM      3  N   UNL     1      -4.904   7.258   0.358  0.00  0.00    -0.289 N 
ATOM      4  C   UNL     1      -3.797   7.958   0.649  0.00  0.00    +0.302 C 
ATOM      5  O   UNL     1      -3.662   8.393   1.776  0.00  0.00    -0.253 OA
ATOM      6  N   UNL     1      -2.834   8.195  -0.254  0.00  0.00    -0.264 N 
ATOM      7  C   UNL     1      -2.933   7.688  -1.624  0.00  0.00    +0.246 C 
ATOM      8  H   UNL     1      -5.657   7.109   1.146  0.00  0.00    +0.151 HD
ATOM      9  H   UNL     1      -1.958   8.785   0.052  0.00  0.00    +0.153 HD
ENDROOT
BRANCH   2  10
ATOM     10  C   UNL     1      -4.561   5.298  -1.031  0.00  0.00    +0.127 A 
ATOM     11  C   UNL     1      -4.212   4.549   0.034  0.00  0.00    +0.047 A 
ATOM     12  C   UNL     1      -3.740   3.318  -0.465  0.00  0.00    +0.050 A 
ATOM     13  C   UNL     1      -3.828   3.384  -1.820  0.00  0.00    +0.135 A 
ATOM     14  O   UNL     1      -4.322   4.593  -2.149  0.00  0.00    -0.458 OA
BRANCH  13  15
ATOM     15  C   UNL     1      -3.442   2.318  -2.767  0.00  0.00    +0.017 A 
ATOM     16  C   UNL     1      -2.939   1.106  -2.291  0.00  0.00    +0.012 A 
ATOM     17  C   UNL     1      -2.575   0.116  -3.180  0.00  0.00    +0.016 A 
ATOM     18  C   UNL     1      -2.719   0.319  -4.542  0.00  0.00    +0.018 A 
ATOM     19  C   UNL     1      -3.222   1.516  -5.020  0.00  0.00    +0.016 A 
ATOM     20  C   UNL     1      -3.584   2.516  -4.141  0.00  0.00    +0.012 A 
ATOM     21 BR   UNL     1      -2.225  -1.046  -5.754  0.00  0.00    -0.050 Br
ENDBRANCH  13  15
ENDBRANCH   2  10
BRANCH   7  22
ATOM     22  C   UNL     1      -2.274   6.309  -1.706  0.00  0.00    +0.436 C 
ATOM     23  F   UNL     1      -2.529   5.599  -0.528  0.00  0.00    -0.166 F 
ATOM     24  F   UNL     1      -2.798   5.607  -2.797  0.00  0.00    -0.166 F 
ATOM     25  F   UNL     1      -0.893   6.461  -1.870  0.00  0.00    -0.166 F 
ENDBRANCH   7  22
BRANCH   1  26
ATOM     26  C   UNL     1      -5.038   8.943  -2.031  0.00  0.00    +0.317 C 
ATOM     27  O   UNL     1      -4.369   9.917  -1.777  0.00  0.00    -0.250 OA
BRANCH  26  28
ATOM     28  O   UNL     1      -6.339   9.082  -2.329  0.00  0.00    -0.465 OA
BRANCH  28  30
ATOM     29  C   UNL     1      -8.362  10.390  -2.687  0.00  0.00    +0.048 C 
ATOM     30  C   UNL     1      -6.875  10.431  -2.327  0.00  0.00    +0.229 C 
ENDBRANCH  28  30
ENDBRANCH  26  28
ENDBRANCH   1  26
BRANCH   7  31
ATOM     31  O   UNL     1      -2.272   8.588  -2.515  0.00  0.00    -0.364 OA
ATOM     32  H   UNL     1      -1.200   8.797  -2.391  0.00  0.00    +0.212 HD
ENDBRANCH   7  31
TORSDOF 7
