REMARK  Name = ZINC02149581
REMARK  8 active torsions:
REMARK  status: ('A' for Active; 'I' for Inactive)
REMARK    1  A    between atoms: C_1  and  C_2
REMARK    2  A    between atoms: C_9  and  C_31
REMARK    3  A    between atoms: C_10  and  C_16
REMARK    4  A    between atoms: C_16  and  C_17
REMARK    5  A    between atoms: C_17  and  C_18
REMARK    6  A    between atoms: N_20  and  C_21
REMARK    7  A    between atoms: C_24  and  S_27
REMARK    8  A    between atoms: S_27  and  N_30
REMARK                            x       y       z     vdW  Elec       q    Type
REMARK                         _______ _______ _______ _____ _____    ______ ____
ROOT
ATOM      1  C   UNL     1       0.025   0.019   2.483  0.00  0.00    +0.052 C 
ENDROOT
BRANCH   1  11
ATOM      2  C   UNL     1      -0.046   0.971  -5.673  0.00  0.00    +0.047 C 
ATOM      3  C   UNL     1      -0.029  -0.419  -5.092  0.00  0.00    -0.005 A 
ATOM      4  C   UNL     1      -0.025  -1.574  -5.769  0.00  0.00    +0.199 A 
ATOM      5  O   UNL     1      -0.009  -2.615  -4.916  0.00  0.00    -0.463 OA
ATOM      6  C   UNL     1      -0.002  -2.190  -3.636  0.00  0.00    +0.139 A 
ATOM      7  C   UNL     1      -0.015  -0.780  -3.667  0.00  0.00    +0.024 A 
ATOM      8  C   UNL     1      -0.012  -0.051  -2.486  0.00  0.00    +0.023 A 
ATOM      9  C   UNL     1      -0.002  -0.726  -1.266  0.00  0.00    +0.022 A 
ATOM     10  C   UNL     1       0.007   0.013   0.000  0.00  0.00    -0.030 A 
ATOM     11  C   UNL     1       0.022  -0.697   1.157  0.00  0.00    +0.041 A 
ATOM     12  C   UNL     1       0.034  -2.108   1.115  0.00  0.00    +0.341 A 
ATOM     13  O   UNL     1       0.048  -2.732   2.161  0.00  0.00    -0.245 OA
ATOM     14  O   UNL     1       0.031  -2.780  -0.046  0.00  0.00    -0.422 OA
ATOM     15  C   UNL     1       0.017  -2.136  -1.236  0.00  0.00    +0.143 A 
ATOM     16  C   UNL     1       0.013  -2.854  -2.419  0.00  0.00    +0.093 A 
ATOM     17  C   UNL     1      -0.007   1.519   0.017  0.00  0.00    +0.045 C 
ENDBRANCH   1  11
BRANCH   1  18
ATOM     18  C   UNL     1      -1.416   0.248   2.942  0.00  0.00    +0.101 C 
BRANCH  18  19
ATOM     19  C   UNL     1      -1.413   0.964   4.268  0.00  0.00    +0.218 C 
ATOM     20  O   UNL     1      -0.362   1.262   4.794  0.00  0.00    -0.275 OA
ATOM     21  N   UNL     1      -2.579   1.274   4.870  0.00  0.00    -0.285 N 
ATOM     22  H   UNL     1      -3.420   1.096   4.419  0.00  0.00    +0.155 HD
BRANCH  21  23
ATOM     23  C   UNL     1      -2.577   1.851   6.144  0.00  0.00    +0.033 A 
ATOM     24  C   UNL     1      -3.582   1.540   7.050  0.00  0.00    +0.025 A 
ATOM     25  C   UNL     1      -3.574   2.107   8.310  0.00  0.00    +0.030 A 
ATOM     26  C   UNL     1      -2.573   2.993   8.665  0.00  0.00    +0.105 A 
ATOM     27  C   UNL     1      -1.574   3.309   7.762  0.00  0.00    +0.030 A 
ATOM     28  C   UNL     1      -1.573   2.741   6.503  0.00  0.00    +0.025 A 
BRANCH  26  29
ATOM     29  S   UNL     1      -2.570   3.719  10.270  0.00  0.00    +0.056 S 
ATOM     30  O   UNL     1      -3.305   2.843  11.113  0.00  0.00    -0.153 OA
ATOM     31  O   UNL     1      -1.227   4.092  10.544  0.00  0.00    -0.153 OA
BRANCH  29  32
ATOM     32  N   UNL     1      -3.442   5.124  10.172  0.00  0.00    -0.204 NA
ATOM     33  H   UNL     1      -3.835   5.394   9.328  0.00  0.00    +0.144 HD
ATOM     34  H   UNL     1      -3.558   5.678  10.960  0.00  0.00    +0.144 HD
ENDBRANCH  29  32
ENDBRANCH  26  29
ENDBRANCH  21  23
ENDBRANCH  18  19
ENDBRANCH   1  18
TORSDOF 6
