REMARK  Name = ZINC30965567
REMARK  8 active torsions:
REMARK  status: ('A' for Active; 'I' for Inactive)
REMARK    1  A    between atoms: C_4  and  C_7
REMARK    2  A    between atoms: C_7  and  C_8
REMARK    3  A    between atoms: C_8  and  C_10
REMARK    4  A    between atoms: C_8  and  N_20
REMARK    5  A    between atoms: C_21  and  C_23
REMARK    6  A    between atoms: C_23  and  N_24
REMARK    7  A    between atoms: C_25  and  C_27
REMARK    8  A    between atoms: C_30  and  N_33
REMARK                            x       y       z     vdW  Elec       q    Type
REMARK                         _______ _______ _______ _____ _____    ______ ____
ROOT
ATOM      1  N   UNL     1      -0.693   2.028  -1.190  0.00  0.00    -0.304 N 
ATOM      2  C   UNL     1      -1.281   3.240  -1.175  0.00  0.00    +0.231 C 
ATOM      3  O   UNL     1      -1.210   3.937  -0.185  0.00  0.00    -0.274 OA
ATOM      4  H   UNL     1      -0.757   1.396  -2.089  0.00  0.00    +0.149 HD
ENDROOT
BRANCH   1   5
ATOM      5  C   UNL     1       0.032   1.551  -0.010  0.00  0.00    +0.143 C 
BRANCH   5   6
ATOM      6  C   UNL     1       1.444   2.076  -0.042  0.00  0.00    +0.129 A 
ATOM      7  N   UNL     1       1.933   2.943  -0.970  0.00  0.00    -0.340 N 
ATOM      8  H   UNL     1       1.281   3.311  -1.776  0.00  0.00    +0.167 HD
ATOM      9  C   UNL     1       3.256   3.180  -0.654  0.00  0.00    +0.066 A 
ATOM     10  C   UNL     1       4.259   3.958  -1.215  0.00  0.00    +0.028 A 
ATOM     11  C   UNL     1       5.513   3.971  -0.644  0.00  0.00    +0.002 A 
ATOM     12  C   UNL     1       5.779   3.211   0.487  0.00  0.00    +0.002 A 
ATOM     13  C   UNL     1       4.804   2.439   1.052  0.00  0.00    +0.030 A 
ATOM     14  C   UNL     1       3.525   2.411   0.490  0.00  0.00    +0.089 A 
ATOM     15  N   UNL     1       2.376   1.762   0.810  0.00  0.00    -0.231 NA
ENDBRANCH   5   6
BRANCH   5  16
ATOM     16  C   UNL     1       0.057   0.021  -0.011  0.00  0.00    +0.065 C 
BRANCH  16  20
ATOM     17  C   UNL     1      -3.922  -1.468   0.430  0.00  0.00    +0.000 A 
ATOM     18  C   UNL     1      -3.410  -1.229  -0.831  0.00  0.00    +0.000 A 
ATOM     19  C   UNL     1      -2.122  -0.747  -0.974  0.00  0.00    +0.004 A 
ATOM     20  C   UNL     1      -1.347  -0.504   0.145  0.00  0.00    -0.045 A 
ATOM     21  C   UNL     1      -1.858  -0.749   1.406  0.00  0.00    +0.004 A 
ATOM     22  C   UNL     1      -3.147  -1.226   1.549  0.00  0.00    +0.000 A 
ENDBRANCH  16  20
ENDBRANCH   5  16
ENDBRANCH   1   5
BRANCH   2  23
ATOM     23  C   UNL     1      -2.027   3.731  -2.389  0.00  0.00    +0.200 C 
BRANCH  23  24
ATOM     24  N   UNL     1      -2.570   5.066  -2.122  0.00  0.00    -0.303 N 
ATOM     25  C   UNL     1      -3.280   5.707  -3.072  0.00  0.00    +0.244 C 
ATOM     26  O   UNL     1      -3.469   5.178  -4.150  0.00  0.00    -0.270 OA
ATOM     27  H   UNL     1      -2.398   5.544  -1.147  0.00  0.00    +0.150 HD
BRANCH  25  28
ATOM     28  C   UNL     1      -3.826   7.051  -2.803  0.00  0.00    +0.037 A 
ATOM     29  C   UNL     1      -3.614   7.658  -1.562  0.00  0.00    +0.015 A 
ATOM     30  C   UNL     1      -4.120   8.915  -1.317  0.00  0.00    +0.024 A 
ATOM     31  C   UNL     1      -4.853   9.575  -2.298  0.00  0.00    +0.036 A 
ATOM     32  C   UNL     1      -5.071   8.971  -3.533  0.00  0.00    +0.024 A 
ATOM     33  C   UNL     1      -4.562   7.717  -3.787  0.00  0.00    +0.015 A 
BRANCH  31  34
ATOM     34  N   UNL     1      -5.370  10.845  -2.044  0.00  0.00    -0.271 N 
ATOM     35  C   UNL     1      -6.048  11.678  -3.044  0.00  0.00    +0.114 C 
ATOM     36  C   UNL     1      -6.046  13.108  -2.459  0.00  0.00    +0.029 C 
ATOM     37  C   UNL     1      -5.959  12.827  -0.941  0.00  0.00    +0.098 C 
ATOM     38  C   UNL     1      -5.315  11.461  -0.851  0.00  0.00    +0.220 C 
ATOM     39  O   UNL     1      -4.820  10.991   0.151  0.00  0.00    -0.275 OA
ENDBRANCH  31  34
ENDBRANCH  25  28
ENDBRANCH  23  24
ENDBRANCH   2  23
TORSDOF 8
