REMARK  Name = ZINC07490629
REMARK  10 active torsions:
REMARK  status: ('A' for Active; 'I' for Inactive)
REMARK    1  A    between atoms: C_1  and  C_2
REMARK    2  A    between atoms: C_5  and  N_8
REMARK    3  A    between atoms: C_9  and  C_11
REMARK    4  A    between atoms: C_11  and  N_50
REMARK    5  A    between atoms: C_12  and  N_50
REMARK    6  A    between atoms: C_13  and  C_14
REMARK    7  A    between atoms: C_13  and  N_50
REMARK    8  A    between atoms: N_16  and  C_17
REMARK    9  A    between atoms: C_17  and  C_19
REMARK   10  A    between atoms: C_17  and  C_20
REMARK                            x       y       z     vdW  Elec       q    Type
REMARK                         _______ _______ _______ _____ _____    ______ ____
ROOT
ATOM      1  C   UNL     1       3.334   2.791  -1.694  0.00  0.00    -0.095 C 
ATOM      2  N   UNL     1       3.412   2.321  -0.294  0.00  0.00    +0.389 N 
ATOM      3  H   UNL     1       3.179   3.100   0.333  0.00  0.00    -0.081 HD
ENDROOT
BRANCH   2   4
ATOM      4  C   UNL     1       2.448   1.223  -0.076  0.00  0.00    +0.019 C 
BRANCH   4   6
ATOM      5  N   UNL     1      -0.011   0.966   0.007  0.00  0.00    -0.287 N 
ATOM      6  C   UNL     1       1.050   1.777  -0.174  0.00  0.00    +0.201 C 
ATOM      7  O   UNL     1       0.879   2.953  -0.417  0.00  0.00    -0.278 OA
ATOM      8  H   UNL     1       0.122   0.012   0.124  0.00  0.00    +0.155 HD
BRANCH   5  13
ATOM      9  C   UNL     1      -5.256   3.126   0.068  0.00  0.00    +0.044 C 
ATOM     10  C   UNL     1      -3.863   2.552   0.052  0.00  0.00    -0.050 A 
ATOM     11  C   UNL     1      -3.645   1.284  -0.456  0.00  0.00    +0.005 A 
ATOM     12  C   UNL     1      -2.369   0.756  -0.472  0.00  0.00    +0.023 A 
ATOM     13  C   UNL     1      -1.305   1.499   0.022  0.00  0.00    +0.033 A 
ATOM     14  C   UNL     1      -1.528   2.769   0.536  0.00  0.00    +0.023 A 
ATOM     15  C   UNL     1      -2.806   3.294   0.544  0.00  0.00    +0.005 A 
ENDBRANCH   5  13
ENDBRANCH   4   6
ENDBRANCH   2   4
BRANCH   2  16
ATOM     16  C   UNL     1       4.783   1.857   0.007  0.00  0.00    +0.019 C 
BRANCH  16  17
ATOM     17  C   UNL     1       5.712   3.043  -0.009  0.00  0.00    +0.197 C 
ATOM     18  O   UNL     1       5.281   4.148  -0.261  0.00  0.00    -0.278 OA
ATOM     19  N   UNL     1       7.023   2.876   0.257  0.00  0.00    -0.310 N 
ATOM     20  H   UNL     1       7.368   1.992   0.458  0.00  0.00    +0.149 HD
BRANCH  19  21
ATOM     21  C   UNL     1       7.927   4.029   0.241  0.00  0.00    +0.100 C 
ATOM     22  C   UNL     1       7.889   4.724   1.604  0.00  0.00    +0.033 C 
BRANCH  21  23
ATOM     23  C   UNL     1       9.331   3.563  -0.046  0.00  0.00    -0.027 A 
ATOM     24  C   UNL     1       9.804   2.398   0.528  0.00  0.00    +0.006 A 
ATOM     25  C   UNL     1      11.090   1.968   0.261  0.00  0.00    +0.015 A 
ATOM     26  C   UNL     1      11.907   2.709  -0.574  0.00  0.00    +0.018 A 
ATOM     27  C   UNL     1      11.435   3.877  -1.145  0.00  0.00    +0.015 A 
ATOM     28  C   UNL     1      10.147   4.304  -0.881  0.00  0.00    +0.006 A 
ATOM     29 BR   UNL     1      13.669   2.125  -0.935  0.00  0.00    -0.050 Br
ENDBRANCH  21  23
ENDBRANCH  19  21
ENDBRANCH  16  17
ENDBRANCH   2  16
TORSDOF 7
