REMARK  Name = ZINC67271324
REMARK  9 active torsions:
REMARK  status: ('A' for Active; 'I' for Inactive)
REMARK    1  A    between atoms: C_1  and  C_2
REMARK    2  A    between atoms: C_2  and  C_3
REMARK    3  A    between atoms: N_11  and  C_15
REMARK    4  A    between atoms: C_15  and  C_16
REMARK    5  A    between atoms: N_18  and  C_19
REMARK    6  A    between atoms: C_19  and  C_20
REMARK    7  A    between atoms: C_20  and  C_22
REMARK    8  A    between atoms: C_20  and  N_23
REMARK    9  A    between atoms: C_26  and  C_29
REMARK                            x       y       z     vdW  Elec       q    Type
REMARK                         _______ _______ _______ _____ _____    ______ ____
ROOT
ATOM      1  C   UNL     1       5.172  -4.721   0.080  0.00  0.00    +0.213 C 
ENDROOT
BRANCH   1  10
ATOM      2  C   UNL     1       0.263  -1.184  -0.355  0.00  0.00    -0.011 C 
ATOM      3  C   UNL     1       1.685  -0.691  -0.078  0.00  0.00    +0.006 C 
ATOM      4  C   UNL     1       2.186  -1.296   1.235  0.00  0.00    +0.035 C 
ATOM      5  C   UNL     1       2.169  -2.818   1.136  0.00  0.00    +0.113 C 
ATOM      6  C   UNL     1       0.762  -3.323   0.835  0.00  0.00    +0.035 C 
ATOM      7  C   UNL     1       0.266  -2.709  -0.477  0.00  0.00    +0.006 C 
ATOM      8  C   UNL     1       3.138  -3.289   0.076  0.00  0.00    +0.247 C 
ATOM      9  O   UNL     1       3.109  -3.035  -1.109  0.00  0.00    -0.273 OA
ATOM     10  N   UNL     1       4.040  -4.052   0.727  0.00  0.00    -0.215 N 
ATOM     11  C   UNL     1       3.773  -4.123   2.037  0.00  0.00    +0.310 C 
ATOM     12  O   UNL     1       4.445  -4.752   2.830  0.00  0.00    -0.252 OA
ATOM     13  N   UNL     1       2.676  -3.419   2.376  0.00  0.00    -0.285 N 
ATOM     14  H   UNL     1       2.296  -3.328   3.264  0.00  0.00    +0.151 HD
BRANCH   2  16
ATOM     15  C   UNL     1      -0.366   0.947  -1.498  0.00  0.00    +0.004 C 
ATOM     16  C   UNL     1      -0.244  -0.569  -1.661  0.00  0.00    -0.000 C 
ENDBRANCH   2  16
ENDBRANCH   1  10
BRANCH   1  17
ATOM     17  C   UNL     1       6.367  -3.802   0.084  0.00  0.00    +0.231 C 
ATOM     18  O   UNL     1       6.282  -2.698   0.579  0.00  0.00    -0.274 OA
ATOM     19  N   UNL     1       7.530  -4.208  -0.462  0.00  0.00    -0.316 N 
ATOM     20  H   UNL     1       7.599  -5.091  -0.858  0.00  0.00    +0.149 HD
BRANCH  19  21
ATOM     21  C   UNL     1       8.692  -3.315  -0.458  0.00  0.00    +0.089 C 
BRANCH  21  22
ATOM     22  C   UNL     1       9.909  -4.059  -1.011  0.00  0.00    -0.054 C 
ATOM     23  C   UNL     1      11.144  -3.161  -0.914  0.00  0.00    -0.012 C 
BRANCH  22  24
ATOM     24  N   UNL     1      10.132  -5.283  -0.230  0.00  0.00    +0.382 N 
ATOM     25  C   UNL     1      10.494  -4.924   1.146  0.00  0.00    -0.078 C 
ATOM     26  C   UNL     1      10.648  -6.195   1.985  0.00  0.00    -0.016 C 
ATOM     27  C   UNL     1      11.748  -7.071   1.378  0.00  0.00    -0.018 C 
ATOM     28  C   UNL     1      11.395  -7.378  -0.080  0.00  0.00    -0.016 C 
ATOM     29  C   UNL     1      11.214  -6.063  -0.843  0.00  0.00    -0.078 C 
ATOM     30  C   UNL     1      11.853  -8.379   2.165  0.00  0.00    +0.007 C 
ATOM     31  H   UNL     1       9.286  -5.833  -0.220  0.00  0.00    -0.081 HD
ENDBRANCH  22  24
ENDBRANCH  21  22
ENDBRANCH  19  21
ENDBRANCH   1  17
TORSDOF 6
