REMARK  Name = ZINC15946235
REMARK  11 active torsions:
REMARK  status: ('A' for Active; 'I' for Inactive)
REMARK    1  A    between atoms: C_1  and  C_2
REMARK    2  A    between atoms: C_2  and  C_3
REMARK    3  A    between atoms: C_3  and  C_4
REMARK    4  A    between atoms: C_3  and  C_5
REMARK    5  A    between atoms: C_3  and  C_6
REMARK    6  A    between atoms: C_15  and  O_32
REMARK    7  A    between atoms: C_17  and  C_20
REMARK    8  A    between atoms: C_22  and  N_29
REMARK    9  A    between atoms: C_23  and  O_28
REMARK   10  A    between atoms: C_24  and  O_26
REMARK   11  A    between atoms: O_26  and  C_27
REMARK                            x       y       z     vdW  Elec       q    Type
REMARK                         _______ _______ _______ _____ _____    ______ ____
ROOT
ATOM      1  C   UNL     1      -1.413  -2.063   0.004  0.00  0.00    -0.000 C 
ATOM      2  C   UNL     1      -2.848  -2.596   0.021  0.00  0.00    +0.009 C 
ATOM      3  C   UNL     1      -2.847  -4.105  -0.235  0.00  0.00    +0.037 C 
ATOM      4  C   UNL     1      -1.882  -4.765   0.740  0.00  0.00    -0.023 A 
ATOM      5  C   UNL     1      -0.932  -4.045   1.380  0.00  0.00    -0.004 A 
ATOM      6  S   UNL     1      -0.072  -5.223   2.386  0.00  0.00    -0.078 S 
ATOM      7  C   UNL     1      -0.919  -6.592   1.990  0.00  0.00    +0.080 A 
ATOM      8  C   UNL     1      -1.885  -6.180   1.065  0.00  0.00    +0.068 A 
ATOM      9  C   UNL     1      -2.795  -7.218   0.515  0.00  0.00    +0.220 C 
ATOM     10  N   UNL     1      -2.808  -8.384   1.103  0.00  0.00    -0.223 NA
ATOM     11  C   UNL     1      -2.041  -8.716   2.296  0.00  0.00    +0.224 C 
ATOM     12  N   UNL     1      -0.816  -7.902   2.399  0.00  0.00    -0.313 N 
ATOM     13  C   UNL     1      -0.676  -2.575   1.251  0.00  0.00    +0.046 C 
ATOM     14  H   UNL     1       0.016  -8.269   2.737  0.00  0.00    +0.149 HD
ENDROOT
BRANCH  11  15
ATOM     15  C   UNL     1      -2.895  -8.473   3.514  0.00  0.00    +0.000 A 
ATOM     16  C   UNL     1      -2.305  -8.101   4.707  0.00  0.00    +0.044 A 
ATOM     17  C   UNL     1      -3.084  -7.877   5.827  0.00  0.00    +0.171 A 
ATOM     18  C   UNL     1      -4.460  -8.025   5.754  0.00  0.00    +0.189 A 
ATOM     19  C   UNL     1      -5.054  -8.400   4.553  0.00  0.00    +0.164 A 
ATOM     20  C   UNL     1      -4.268  -8.618   3.433  0.00  0.00    +0.057 A 
BRANCH  17  21
ATOM     21  N   UNL     1      -2.449  -7.480   7.103  0.00  0.00    +0.060 N 
ATOM     22  O   UNL     1      -1.249  -7.351   7.167  0.00  0.00    -0.126 OA
ATOM     23  O   UNL     1      -3.131  -7.284   8.082  0.00  0.00    -0.126 OA
ENDBRANCH  17  21
BRANCH  19  24
ATOM     24  O   UNL     1      -6.404  -8.547   4.477  0.00  0.00    -0.491 OA
ATOM     25  C   UNL     1      -6.944  -8.933   3.212  0.00  0.00    +0.277 C 
ENDBRANCH  19  24
BRANCH  18  26
ATOM     26  O   UNL     1      -5.228  -7.806   6.855  0.00  0.00    -0.502 OA
ATOM     27  H   UNL     1      -5.530  -6.892   6.948  0.00  0.00    +0.292 HD
ENDBRANCH  18  26
ENDBRANCH  11  15
BRANCH   1  28
ATOM     28  C   UNL     1      -1.433  -0.534   0.013  0.00  0.00    -0.032 C 
ATOM     29  C   UNL     1      -2.149  -0.040   1.272  0.00  0.00    +0.011 C 
ATOM     30  C   UNL     1      -2.173  -0.027  -1.227  0.00  0.00    +0.011 C 
BRANCH  28  32
ATOM     31  C   UNL     1      -0.019   1.526   0.010  0.00  0.00    +0.004 C 
ATOM     32  C   UNL     1       0.002  -0.004   0.002  0.00  0.00    +0.003 C 
ENDBRANCH  28  32
ENDBRANCH   1  28
BRANCH   9  33
ATOM     33  O   UNL     1      -3.583  -6.964  -0.555  0.00  0.00    -0.492 OA
ATOM     34  H   UNL     1      -4.133  -7.712  -0.825  0.00  0.00    +0.294 HD
ENDBRANCH   9  33
TORSDOF 7
