REMARK  Name = ZINC03771915
REMARK  10 active torsions:
REMARK  status: ('A' for Active; 'I' for Inactive)
REMARK    1  A    between atoms: C_1  and  C_2
REMARK    2  A    between atoms: C_5  and  N_9
REMARK    3  A    between atoms: C_6  and  C_8
REMARK    4  A    between atoms: C_10  and  C_12
REMARK    5  A    between atoms: C_18  and  C_20
REMARK    6  A    between atoms: C_20  and  O_22
REMARK    7  A    between atoms: O_22  and  C_23
REMARK    8  A    between atoms: C_24  and  N_37
REMARK    9  A    between atoms: C_25  and  C_35
REMARK   10  A    between atoms: C_26  and  C_28
REMARK                            x       y       z     vdW  Elec       q    Type
REMARK                         _______ _______ _______ _____ _____    ______ ____
ROOT
ATOM      1  C   UNL     1       2.352   1.259  -0.763  0.00  0.00    +0.056 C 
ATOM      2  C   UNL     1       2.368  -0.075  -1.048  0.00  0.00    +0.090 C 
ATOM      3  N   UNL     1       1.423  -0.911  -0.493  0.00  0.00    -0.217 N 
ATOM      4  C   UNL     1       1.657  -2.225  -0.353  0.00  0.00    +0.251 C 
ATOM      5  O   UNL     1       0.718  -2.955  -0.094  0.00  0.00    -0.270 OA
ATOM      6  C   UNL     1       2.974  -2.819  -0.496  0.00  0.00    +0.090 C 
ATOM      7  C   UNL     1       3.951  -2.243  -1.238  0.00  0.00    +0.103 C 
ATOM      8  S   UNL     1       3.618  -0.739  -2.099  0.00  0.00    -0.066 S 
ATOM      9  C   UNL     1       0.220  -0.379  -0.064  0.00  0.00    +0.110 C 
ATOM     10  C   UNL     1       0.139   0.934   0.279  0.00  0.00    +0.077 C 
ATOM     11  C   UNL     1       1.363   1.810   0.232  0.00  0.00    +0.100 C 
ENDROOT
BRANCH  11  12
ATOM     12  C   UNL     1       1.999   1.853   1.597  0.00  0.00    -0.034 A 
ATOM     13  C   UNL     1       2.438   0.685   2.193  0.00  0.00    +0.007 A 
ATOM     14  C   UNL     1       3.026   0.725   3.443  0.00  0.00    +0.038 A 
ATOM     15  C   UNL     1       3.165   1.933   4.104  0.00  0.00    +0.123 A 
ATOM     16  C   UNL     1       2.720   3.102   3.509  0.00  0.00    +0.038 A 
ATOM     17  C   UNL     1       2.137   3.061   2.256  0.00  0.00    +0.007 A 
ATOM     18  F   UNL     1       3.734   1.973   5.328  0.00  0.00    -0.205 F 
ENDBRANCH  11  12
BRANCH   1  20
ATOM     19  N   UNL     1       3.246   3.439  -1.116  0.00  0.00    -0.281 N 
ATOM     20  C   UNL     1       3.260   2.121  -1.396  0.00  0.00    +0.248 C 
ATOM     21  O   UNL     1       4.061   1.677  -2.201  0.00  0.00    -0.270 OA
ATOM     22  H   UNL     1       2.653   3.783  -0.429  0.00  0.00    +0.155 HD
BRANCH  19  27
ATOM     23  C   UNL     1       6.654   6.978  -3.950  0.00  0.00    +0.044 C 
ATOM     24  C   UNL     1       5.749   6.038  -3.198  0.00  0.00    -0.050 A 
ATOM     25  C   UNL     1       6.122   4.719  -3.014  0.00  0.00    +0.005 A 
ATOM     26  C   UNL     1       5.298   3.856  -2.319  0.00  0.00    +0.024 A 
ATOM     27  C   UNL     1       4.086   4.312  -1.815  0.00  0.00    +0.037 A 
ATOM     28  C   UNL     1       3.714   5.636  -2.001  0.00  0.00    -0.029 A 
ATOM     29  C   UNL     1       4.546   6.496  -2.692  0.00  0.00    +0.008 A 
ATOM     30  C   UNL     1       2.403   6.136  -1.450  0.00  0.00    +0.045 C 
ENDBRANCH  19  27
ENDBRANCH   1  20
BRANCH   9  31
ATOM     31  N   UNL     1      -0.895  -1.180   0.015  0.00  0.00    -0.345 N 
ATOM     32  H   UNL     1      -0.938  -2.003  -0.496  0.00  0.00    +0.144 HD
ATOM     33  H   UNL     1      -1.638  -0.921   0.582  0.00  0.00    +0.144 HD
ENDBRANCH   9  31
BRANCH   7  34
ATOM     34  C   UNL     1       5.289  -2.872  -1.327  0.00  0.00    +0.346 C 
ATOM     35  O   UNL     1       5.514  -3.907  -0.734  0.00  0.00    -0.244 OA
BRANCH  34  36
ATOM     36  O   UNL     1       6.257  -2.296  -2.066  0.00  0.00    -0.464 OA
ATOM     37  C   UNL     1       7.543  -2.968  -2.107  0.00  0.00    +0.280 C 
ENDBRANCH  34  36
ENDBRANCH   7  34
BRANCH  10  38
ATOM     38  C   UNL     1      -1.119   1.489   0.680  0.00  0.00    +0.099 C 
ATOM     39  N   UNL     1      -2.116   1.930   0.999  0.00  0.00    -0.191 NA
ENDBRANCH  10  38
TORSDOF 7
