REMARK  Name = ZINC17085952
REMARK  9 active torsions:
REMARK  status: ('A' for Active; 'I' for Inactive)
REMARK    1  A    between atoms: C_1  and  C_2
REMARK    2  A    between atoms: C_2  and  O_3
REMARK    3  A    between atoms: O_3  and  C_4
REMARK    4  A    between atoms: C_6  and  C_12
REMARK    5  A    between atoms: C_9  and  O_10
REMARK    6  A    between atoms: C_21  and  C_25
REMARK    7  A    between atoms: C_25  and  C_26
REMARK    8  A    between atoms: C_25  and  C_27
REMARK    9  A    between atoms: C_25  and  C_28
REMARK                            x       y       z     vdW  Elec       q    Type
REMARK                         _______ _______ _______ _____ _____    ______ ____
ROOT
ATOM      1  C   UNL     1      -0.219  -4.968   0.485  0.00  0.00    +0.190 C 
ATOM      2  N   UNL     1      -0.617  -6.229  -0.167  0.00  0.00    -0.316 N 
ATOM      3  C   UNL     1      -1.841  -6.247  -0.780  0.00  0.00    +0.080 A 
ATOM      4  C   UNL     1      -2.883  -5.374  -0.428  0.00  0.00    +0.068 A 
ATOM      5  C   UNL     1      -4.124  -5.538  -1.167  0.00  0.00    -0.023 A 
ATOM      6  C   UNL     1      -4.118  -6.504  -2.113  0.00  0.00    -0.004 A 
ATOM      7  S   UNL     1      -2.493  -7.210  -2.036  0.00  0.00    -0.078 S 
ATOM      8  C   UNL     1      -5.245  -6.888  -3.020  0.00  0.00    +0.046 C 
ATOM      9  C   UNL     1      -6.303  -5.775  -2.977  0.00  0.00    -0.000 C 
ATOM     10  C   UNL     1      -6.580  -5.415  -1.515  0.00  0.00    +0.009 C 
ATOM     11  C   UNL     1      -5.369  -4.695  -0.919  0.00  0.00    +0.037 C 
ATOM     12  C   UNL     1      -2.621  -4.397   0.654  0.00  0.00    +0.248 C 
ATOM     13  O   UNL     1      -3.507  -3.690   1.098  0.00  0.00    -0.270 OA
ATOM     14  N   UNL     1      -1.359  -4.322   1.127  0.00  0.00    -0.289 N 
ATOM     15  H   UNL     1       0.059  -7.097  -0.145  0.00  0.00    +0.149 HD
ATOM     16  H   UNL     1      -1.214  -3.737   2.047  0.00  0.00    +0.151 HD
ENDROOT
BRANCH   1  19
ATOM     17  C   UNL     1       0.777  -1.811  -1.336  0.00  0.00    +0.164 A 
ATOM     18  C   UNL     1       0.248  -2.669  -0.385  0.00  0.00    +0.056 A 
ATOM     19  C   UNL     1       0.357  -4.037  -0.551  0.00  0.00    -0.004 A 
ATOM     20  C   UNL     1       0.991  -4.553  -1.666  0.00  0.00    +0.031 A 
ATOM     21  C   UNL     1       1.521  -3.703  -2.619  0.00  0.00    +0.086 A 
ATOM     22  C   UNL     1       1.411  -2.329  -2.461  0.00  0.00    +0.177 A 
ATOM     23 CL   UNL     1       2.317  -4.354  -4.017  0.00  0.00    -0.080 Cl
BRANCH  22  24
ATOM     24  O   UNL     1       1.926  -1.491  -3.400  0.00  0.00    -0.502 OA
ATOM     25  H   UNL     1       2.427  -1.903  -4.289  0.00  0.00    +0.292 HD
ENDBRANCH  22  24
BRANCH  17  26
ATOM     26  O   UNL     1       0.671  -0.465  -1.174  0.00  0.00    -0.489 OA
BRANCH  26  28
ATOM     27  C   UNL     1      -0.019   1.526   0.010  0.00  0.00    +0.048 C 
ATOM     28  C   UNL     1       0.002  -0.004   0.002  0.00  0.00    +0.226 C 
ENDBRANCH  26  28
ENDBRANCH  17  26
ENDBRANCH   1  19
BRANCH   9  29
ATOM     29  C   UNL     1      -7.593  -6.268  -3.637  0.00  0.00    -0.035 C 
ATOM     30  C   UNL     1      -8.650  -5.164  -3.577  0.00  0.00    +0.011 C 
ATOM     31  C   UNL     1      -7.313  -6.626  -5.098  0.00  0.00    +0.011 C 
ATOM     32  C   UNL     1      -8.104  -7.505  -2.897  0.00  0.00    +0.011 C 
ENDBRANCH   9  29
TORSDOF 5
