REMARK  Name = ZINC36874303
REMARK  9 active torsions:
REMARK  status: ('A' for Active; 'I' for Inactive)
REMARK    1  A    between atoms: C_1  and  C_2
REMARK    2  A    between atoms: C_2  and  C_4
REMARK    3  A    between atoms: C_2  and  O_15
REMARK    4  A    between atoms: N_6  and  C_7
REMARK    5  A    between atoms: C_7  and  C_8
REMARK    6  A    between atoms: C_8  and  C_9
REMARK    7  A    between atoms: O_15  and  C_16
REMARK    8  A    between atoms: C_16  and  C_18
REMARK    9  A    between atoms: C_23  and  N_24
REMARK                            x       y       z     vdW  Elec       q    Type
REMARK                         _______ _______ _______ _____ _____    ______ ____
ROOT
ATOM      1  C   UNL     1      -3.303  -1.174   1.311  0.00  0.00    +0.080 A 
ATOM      2  C   UNL     1      -4.060  -1.338   0.152  0.00  0.00    +0.017 A 
ATOM      3  C   UNL     1      -5.336  -1.868   0.218  0.00  0.00    +0.013 A 
ATOM      4  C   UNL     1      -5.879  -2.244   1.444  0.00  0.00    +0.035 A 
ATOM      5  C   UNL     1      -5.129  -2.087   2.623  0.00  0.00    +0.054 A 
ATOM      6  C   UNL     1      -3.834  -1.555   2.557  0.00  0.00    +0.050 A 
ATOM      7  C   UNL     1      -5.700  -2.483   3.921  0.00  0.00    +0.196 C 
ATOM      8  O   UNL     1      -5.050  -2.345   4.939  0.00  0.00    -0.287 OA
ATOM      9  C   UNL     1      -7.065  -3.047   3.987  0.00  0.00    +0.033 A 
ATOM     10  C   UNL     1      -7.611  -3.423   5.210  0.00  0.00    +0.012 A 
ATOM     11  C   UNL     1      -8.890  -3.950   5.262  0.00  0.00    +0.001 A 
ATOM     12  C   UNL     1      -9.630  -4.108   4.104  0.00  0.00    +0.001 A 
ATOM     13  C   UNL     1      -9.102  -3.740   2.880  0.00  0.00    +0.012 A 
ATOM     14  C   UNL     1      -7.818  -3.207   2.810  0.00  0.00    +0.033 A 
ATOM     15  C   UNL     1      -7.245  -2.810   1.507  0.00  0.00    +0.195 C 
ATOM     16  O   UNL     1      -7.895  -2.947   0.490  0.00  0.00    -0.287 OA
ENDROOT
BRANCH   6  17
ATOM     17  N   UNL     1      -3.087  -1.400   3.707  0.00  0.00    -0.357 N 
ATOM     18  H   UNL     1      -2.459  -0.665   3.782  0.00  0.00    +0.142 HD
ATOM     19  H   UNL     1      -3.189  -2.027   4.440  0.00  0.00    +0.142 HD
ENDBRANCH   6  17
BRANCH   1  20
ATOM     20  C   UNL     1      -1.943  -0.609   1.230  0.00  0.00    +0.342 C 
ATOM     21  O   UNL     1      -1.296  -0.433   2.243  0.00  0.00    -0.245 OA
BRANCH  20  22
ATOM     22  O   UNL     1      -1.417  -0.287   0.031  0.00  0.00    -0.449 OA
BRANCH  22  24
ATOM     23  C   UNL     1      -0.171   1.780   0.143  0.00  0.00    +0.062 C 
ATOM     24  C   UNL     1      -0.096   0.257   0.027  0.00  0.00    +0.259 C 
BRANCH  24  25
ATOM     25  C   UNL     1       0.597  -0.116  -1.259  0.00  0.00    +0.254 C 
ATOM     26  O   UNL     1      -0.013  -0.703  -2.127  0.00  0.00    -0.272 OA
ATOM     27  N   UNL     1       1.893   0.203  -1.443  0.00  0.00    -0.312 N 
ATOM     28  H   UNL     1       2.380   0.673  -0.748  0.00  0.00    +0.149 HD
BRANCH  27  29
ATOM     29  C   UNL     1       2.566  -0.159  -2.693  0.00  0.00    +0.109 C 
BRANCH  29  30
ATOM     30  C   UNL     1       4.020   0.315  -2.645  0.00  0.00    +0.054 C 
BRANCH  30  31
ATOM     31  C   UNL     1       4.712  -0.057  -3.931  0.00  0.00    -0.046 A 
ATOM     32  C   UNL     1       5.351  -1.278  -4.043  0.00  0.00    +0.004 A 
ATOM     33  C   UNL     1       5.986  -1.620  -5.223  0.00  0.00    +0.000 A 
ATOM     34  C   UNL     1       5.982  -0.741  -6.290  0.00  0.00    +0.000 A 
ATOM     35  C   UNL     1       5.343   0.479  -6.177  0.00  0.00    +0.000 A 
ATOM     36  C   UNL     1       4.704   0.819  -4.999  0.00  0.00    +0.004 A 
ENDBRANCH  30  31
ENDBRANCH  29  30
ENDBRANCH  27  29
ENDBRANCH  24  25
ENDBRANCH  22  24
ENDBRANCH  20  22
ENDBRANCH   1  20
TORSDOF 8
