REMARK  Name = ZINC08623021
REMARK  11 active torsions:
REMARK  status: ('A' for Active; 'I' for Inactive)
REMARK    1  A    between atoms: C_1  and  C_2
REMARK    2  A    between atoms: C_2  and  C_3
REMARK    3  A    between atoms: C_3  and  C_4
REMARK    4  A    between atoms: C_3  and  C_6
REMARK    5  A    between atoms: C_4  and  C_5
REMARK    6  A    between atoms: C_8  and  C_18
REMARK    7  A    between atoms: C_10  and  C_12
REMARK    8  A    between atoms: C_26  and  C_28
REMARK    9  A    between atoms: C_28  and  N_29
REMARK   10  A    between atoms: N_29  and  S_30
REMARK   11  A    between atoms: S_30  and  C_33
REMARK                            x       y       z     vdW  Elec       q    Type
REMARK                         _______ _______ _______ _____ _____    ______ ____
ROOT
ATOM      1  C   UNL     1      -0.379  -1.596  -3.465  0.00  0.00    +0.024 C 
ATOM      2  C   UNL     1      -1.358  -1.250  -2.339  0.00  0.00    -0.068 C 
ATOM      3  C   UNL     1      -2.150   0.692  -3.549  0.00  0.00    -0.078 C 
ATOM      4  C   UNL     1      -1.194   0.402  -4.710  0.00  0.00    -0.015 C 
ATOM      5  C   UNL     1       0.054  -0.299  -4.160  0.00  0.00    -0.007 C 
ATOM      6  C   UNL     1       0.712   0.617  -3.120  0.00  0.00    -0.010 C 
ATOM      7  C   UNL     1      -0.297   0.901  -2.004  0.00  0.00    -0.053 C 
ATOM      8  N   UNL     1      -1.576   0.210  -2.275  0.00  0.00    +0.383 N 
ATOM      9  H   UNL     1      -2.234   0.416  -1.514  0.00  0.00    -0.081 HD
ENDROOT
BRANCH   1  12
ATOM     10  C   UNL     1       3.136  -2.885  -2.981  0.00  0.00    +0.048 A 
ATOM     11  C   UNL     1       2.048  -2.238  -3.548  0.00  0.00    +0.047 A 
ATOM     12  C   UNL     1       0.829  -2.288  -2.888  0.00  0.00    +0.047 A 
ATOM     13  N   UNL     1       0.739  -2.955  -1.751  0.00  0.00    -0.232 NA
ATOM     14  C   UNL     1       1.797  -3.567  -1.238  0.00  0.00    +0.160 A 
ATOM     15  N   UNL     1       2.977  -3.534  -1.841  0.00  0.00    -0.232 NA
BRANCH  14  16
ATOM     16  C   UNL     1       1.657  -4.306   0.041  0.00  0.00    +0.022 A 
ATOM     17  C   UNL     1       0.430  -4.359   0.709  0.00  0.00    +0.031 A 
ATOM     18  C   UNL     1       0.343  -5.062   1.894  0.00  0.00    +0.111 A 
ATOM     19  N   UNL     1       1.398  -5.670   2.400  0.00  0.00    -0.263 NA
ATOM     20  C   UNL     1       2.575  -5.640   1.804  0.00  0.00    +0.111 A 
ATOM     21  C   UNL     1       2.749  -4.964   0.614  0.00  0.00    +0.031 A 
ENDBRANCH  14  16
BRANCH  10  22
ATOM     22  C   UNL     1       4.481  -2.854  -3.660  0.00  0.00    +0.037 C 
BRANCH  22  24
ATOM     23  C   UNL     1       5.952  -4.017  -5.311  0.00  0.00    +0.004 C 
ATOM     24  C   UNL     1       4.539  -3.949  -4.727  0.00  0.00    +0.006 C 
ENDBRANCH  22  24
BRANCH  22  25
ATOM     25  C   UNL     1       4.688  -1.488  -4.318  0.00  0.00    +0.006 C 
ATOM     26  C   UNL     1       4.752  -0.406  -3.238  0.00  0.00    +0.004 C 
ENDBRANCH  22  25
ENDBRANCH  10  22
ENDBRANCH   1  12
BRANCH   7  27
ATOM     27  C   UNL     1       0.264   0.403  -0.670  0.00  0.00    +0.091 C 
BRANCH  27  28
ATOM     28  N   UNL     1      -0.734   0.602   0.384  0.00  0.00    -0.191 NA
ATOM     29  H   UNL     1      -1.491   1.187   0.230  0.00  0.00    +0.148 HD
BRANCH  28  30
ATOM     30  S   UNL     1      -0.567  -0.173   1.838  0.00  0.00    +0.065 S 
ATOM     31  O   UNL     1      -1.662   0.240   2.646  0.00  0.00    -0.153 OA
ATOM     32  O   UNL     1      -0.310  -1.539   1.544  0.00  0.00    -0.153 OA
BRANCH  30  33
ATOM     33  C   UNL     1       0.889   0.461   2.602  0.00  0.00    +0.142 A 
ATOM     34  C   UNL     1       1.011   1.462   3.507  0.00  0.00    +0.036 A 
ATOM     35  C   UNL     1       2.269   1.792   3.976  0.00  0.00    +0.010 A 
ATOM     36  C   UNL     1       3.343   1.104   3.517  0.00  0.00    +0.047 A 
ATOM     37  S   UNL     1       2.585  -0.056   2.392  0.00  0.00    -0.077 S 
ENDBRANCH  30  33
ENDBRANCH  28  30
ENDBRANCH  27  28
ENDBRANCH   7  27
TORSDOF 9
