REMARK  Name = ZINC38659659
REMARK  17 active torsions:
REMARK  status: ('A' for Active; 'I' for Inactive)
REMARK    1  A    between atoms: C_1  and  C_2
REMARK    2  A    between atoms: C_2  and  O_3
REMARK    3  A    between atoms: O_3  and  C_4
REMARK    4  A    between atoms: C_7  and  C_12
REMARK    5  A    between atoms: C_9  and  O_10
REMARK    6  A    between atoms: O_10  and  C_11
REMARK    7  A    between atoms: C_17  and  O_26
REMARK    8  A    between atoms: C_21  and  N_25
REMARK    9  A    between atoms: C_22  and  C_23
REMARK   10  A    between atoms: O_26  and  C_27
REMARK   11  A    between atoms: C_27  and  C_29
REMARK   12  A    between atoms: C_29  and  C_31
REMARK   13  A    between atoms: C_29  and  O_32
REMARK   14  A    between atoms: O_32  and  C_33
REMARK   15  A    between atoms: C_36  and  C_39
REMARK   16  A    between atoms: C_39  and  C_40
REMARK   17  A    between atoms: C_39  and  C_41
REMARK                            x       y       z     vdW  Elec       q    Type
REMARK                         _______ _______ _______ _____ _____    ______ ____
ROOT
ATOM      1  C   UNL     1      -1.760  -6.145   0.154  0.00  0.00    +0.098 C 
ATOM      2  C   UNL     1      -1.187  -6.706  -1.120  0.00  0.00    +0.008 A 
ATOM      3  C   UNL     1      -1.929  -6.643  -2.286  0.00  0.00    +0.012 A 
ATOM      4  C   UNL     1      -1.419  -7.151  -3.464  0.00  0.00    +0.047 A 
ATOM      5  C   UNL     1      -0.157  -7.729  -3.481  0.00  0.00    +0.135 A 
ATOM      6  C   UNL     1       0.589  -7.794  -2.316  0.00  0.00    +0.093 A 
ATOM      7  C   UNL     1       0.074  -7.281  -1.132  0.00  0.00    +0.138 A 
ATOM      8  O   UNL     1       0.817  -7.353   0.001  0.00  0.00    -0.441 OA
ATOM      9  C   UNL     1       0.223  -7.232   1.200  0.00  0.00    +0.199 C 
ATOM     10  C   UNL     1      -0.997  -6.668   1.338  0.00  0.00    +0.098 C 
ENDROOT
BRANCH   1  14
ATOM     11  C   UNL     1      -1.489  -1.878   0.070  0.00  0.00    +0.162 A 
ATOM     12  C   UNL     1      -0.341  -2.650  -0.008  0.00  0.00    +0.050 A 
ATOM     13  C   UNL     1      -0.432  -4.029   0.020  0.00  0.00    +0.008 A 
ATOM     14  C   UNL     1      -1.667  -4.641   0.125  0.00  0.00    -0.031 A 
ATOM     15  C   UNL     1      -2.816  -3.877   0.202  0.00  0.00    +0.054 A 
ATOM     16  C   UNL     1      -2.732  -2.495   0.181  0.00  0.00    +0.162 A 
BRANCH  16  17
ATOM     17  O   UNL     1      -3.861  -1.742   0.263  0.00  0.00    -0.491 OA
ATOM     18  C   UNL     1      -5.102  -2.442   0.376  0.00  0.00    +0.277 C 
ENDBRANCH  16  17
BRANCH  11  19
ATOM     19  O   UNL     1      -1.402  -0.521   0.043  0.00  0.00    -0.489 OA
BRANCH  19  21
ATOM     20  C   UNL     1      -0.195   1.569  -0.087  0.00  0.00    +0.048 C 
ATOM     21  C   UNL     1      -0.093   0.042  -0.073  0.00  0.00    +0.226 C 
ENDBRANCH  19  21
ENDBRANCH  11  19
ENDBRANCH   1  14
BRANCH   9  22
ATOM     22  N   UNL     1       0.875  -7.695   2.315  0.00  0.00    -0.328 N 
ATOM     23  H   UNL     1       1.752  -8.101   2.231  0.00  0.00    +0.145 HD
ATOM     24  H   UNL     1       0.460  -7.615   3.188  0.00  0.00    +0.145 HD
ENDBRANCH   9  22
BRANCH  10  25
ATOM     25  C   UNL     1      -1.574  -6.569   2.645  0.00  0.00    +0.101 C 
ATOM     26  N   UNL     1      -2.032  -6.489   3.682  0.00  0.00    -0.191 NA
ENDBRANCH  10  25
BRANCH   5  27
ATOM     27  O   UNL     1       0.346  -8.231  -4.640  0.00  0.00    -0.423 OA
BRANCH  27  28
ATOM     28  C   UNL     1       0.519  -9.559  -4.729  0.00  0.00    +0.353 C 
ATOM     29  O   UNL     1       0.139 -10.279  -3.836  0.00  0.00    -0.246 OA
BRANCH  28  30
ATOM     30  C   UNL     1       1.186 -10.153  -5.943  0.00  0.00    +0.279 C 
ATOM     31  C   UNL     1       2.641  -9.684  -6.006  0.00  0.00    +0.064 C 
BRANCH  30  32
ATOM     32  O   UNL     1       1.148 -11.579  -5.859  0.00  0.00    -0.478 OA
BRANCH  32  33
ATOM     33  C   UNL     1       1.255 -12.269  -7.024  0.00  0.00    +0.122 A 
ATOM     34  C   UNL     1       1.297 -13.656  -7.009  0.00  0.00    +0.046 A 
ATOM     35  C   UNL     1       1.405 -14.355  -8.195  0.00  0.00    +0.007 A 
ATOM     36  C   UNL     1       1.473 -13.675  -9.397  0.00  0.00    -0.045 A 
ATOM     37  C   UNL     1       1.432 -12.293  -9.415  0.00  0.00    +0.007 A 
ATOM     38  C   UNL     1       1.317 -11.589  -8.232  0.00  0.00    +0.046 A 
BRANCH  36  39
ATOM     39  C   UNL     1       1.591 -14.441 -10.689  0.00  0.00    +0.013 C 
ATOM     40  C   UNL     1       0.394 -14.117 -11.585  0.00  0.00    +0.012 C 
ATOM     41  C   UNL     1       2.885 -14.040 -11.402  0.00  0.00    +0.012 C 
ENDBRANCH  36  39
ENDBRANCH  32  33
ENDBRANCH  30  32
ENDBRANCH  28  30
ENDBRANCH  27  28
ENDBRANCH   5  27
TORSDOF 12
