REMARK  Name = ZINC32889556
REMARK  8 active torsions:
REMARK  status: ('A' for Active; 'I' for Inactive)
REMARK    1  A    between atoms: C_1  and  C_2
REMARK    2  A    between atoms: N_5  and  C_8
REMARK    3  A    between atoms: C_8  and  C_10
REMARK    4  A    between atoms: C_8  and  C_30
REMARK    5  A    between atoms: C_10  and  N_11
REMARK    6  A    between atoms: C_17  and  N_20
REMARK    7  A    between atoms: N_20  and  S_21
REMARK    8  A    between atoms: S_21  and  C_24
REMARK                            x       y       z     vdW  Elec       q    Type
REMARK                         _______ _______ _______ _____ _____    ______ ____
ROOT
ATOM      1  N   UNL     1      -2.634   3.715  -1.476  0.00  0.00    -0.300 N 
ATOM      2  C   UNL     1      -3.108   4.178  -2.650  0.00  0.00    +0.302 C 
ATOM      3  O   UNL     1      -2.532   3.908  -3.686  0.00  0.00    -0.253 OA
ATOM      4  N   UNL     1      -4.219   4.940  -2.675  0.00  0.00    -0.286 N 
ATOM      5  C   UNL     1      -4.867   5.360  -1.425  0.00  0.00    +0.111 C 
ATOM      6  C   UNL     1      -6.341   4.963  -1.470  0.00  0.00    +0.039 C 
ATOM      7  C   UNL     1      -6.983   5.537  -2.735  0.00  0.00    +0.079 C 
ATOM      8  C   UNL     1      -6.287   4.959  -3.970  0.00  0.00    +0.039 C 
ATOM      9  C   UNL     1      -4.809   5.362  -3.953  0.00  0.00    +0.111 C 
ATOM     10  H   UNL     1      -3.107   4.024  -0.532  0.00  0.00    +0.150 HD
ENDROOT
BRANCH   7  11
ATOM     11  N   UNL     1      -8.404   5.182  -2.766  0.00  0.00    -0.187 NA
ATOM     12  H   UNL     1      -8.737   4.291  -3.319  0.00  0.00    +0.148 HD
BRANCH  11  13
ATOM     13  S   UNL     1      -9.535   6.242  -2.184  0.00  0.00    +0.059 S 
ATOM     14  O   UNL     1     -10.803   5.629  -2.375  0.00  0.00    -0.153 OA
ATOM     15  O   UNL     1      -9.078   6.665  -0.907  0.00  0.00    -0.153 OA
BRANCH  13  16
ATOM     16  C   UNL     1      -9.501   7.663  -3.227  0.00  0.00    +0.105 A 
ATOM     17  C   UNL     1      -8.663   8.720  -2.927  0.00  0.00    +0.028 A 
ATOM     18  C   UNL     1      -8.633   9.832  -3.747  0.00  0.00    +0.002 A 
ATOM     19  C   UNL     1      -9.449   9.892  -4.862  0.00  0.00    +0.000 A 
ATOM     20  C   UNL     1     -10.291   8.836  -5.158  0.00  0.00    +0.002 A 
ATOM     21  C   UNL     1     -10.317   7.722  -4.341  0.00  0.00    +0.028 A 
ENDBRANCH  13  16
ENDBRANCH  11  13
ENDBRANCH   7  11
BRANCH   1  22
ATOM     22  C   UNL     1      -1.490   2.800  -1.456  0.00  0.00    +0.095 C 
BRANCH  22  23
ATOM     23  C   UNL     1      -1.232   2.337  -0.022  0.00  0.00    -0.013 C 
BRANCH  23  28
ATOM     24  C   UNL     1      -5.545  -0.680   2.208  0.00  0.00    +0.007 C 
ATOM     25  C   UNL     1      -4.182  -0.272   1.644  0.00  0.00    -0.018 C 
ATOM     26  C   UNL     1      -3.581   0.838   2.511  0.00  0.00    -0.015 C 
ATOM     27  C   UNL     1      -2.247   1.284   1.907  0.00  0.00    -0.078 C 
ATOM     28  N   UNL     1      -2.466   1.771   0.540  0.00  0.00    +0.386 N 
ATOM     29  C   UNL     1      -2.999   0.710  -0.323  0.00  0.00    -0.078 C 
ATOM     30  C   UNL     1      -4.356   0.247   0.214  0.00  0.00    -0.015 C 
ATOM     31  H   UNL     1      -3.217   2.574   0.587  0.00  0.00    -0.081 HD
ENDBRANCH  23  28
BRANCH  23  32
ATOM     32  C   UNL     1      -0.791   3.510   0.814  0.00  0.00    -0.022 A 
ATOM     33  C   UNL     1       0.461   3.867   1.192  0.00  0.00    +0.009 A 
ATOM     34  C   UNL     1       0.630   5.001   1.964  0.00  0.00    +0.008 A 
ATOM     35  C   UNL     1      -0.460   5.722   2.321  0.00  0.00    +0.045 A 
ATOM     36  S   UNL     1      -1.782   4.796   1.558  0.00  0.00    -0.103 S 
ENDBRANCH  23  32
ENDBRANCH  22  23
ENDBRANCH   1  22
TORSDOF 7
