REMARK  Name = ZINC50441394
REMARK  4 active torsions:
REMARK  status: ('A' for Active; 'I' for Inactive)
REMARK    1  A    between atoms: C_3  and  C_19
REMARK    2  A    between atoms: C_4  and  O_7
REMARK    3  A    between atoms: O_7  and  C_8
REMARK    4  A    between atoms: C_11  and  N_15
REMARK                            x       y       z     vdW  Elec       q    Type
REMARK                         _______ _______ _______ _____ _____    ______ ____
ROOT
ATOM      1  C   UNL     1      -0.056   1.864   0.321  0.00  0.00    +0.021 A 
ATOM      2  C   UNL     1       1.215   2.400   0.199  0.00  0.00    +0.018 A 
ATOM      3  C   UNL     1       2.300   1.522   0.110  0.00  0.00    +0.074 A 
ATOM      4  C   UNL     1       2.058   0.141   0.147  0.00  0.00    +0.231 A 
ATOM      5  N   UNL     1       0.823  -0.319   0.265  0.00  0.00    -0.220 NA
ATOM      6  C   UNL     1      -0.215   0.491   0.351  0.00  0.00    +0.114 A 
ENDROOT
BRANCH   3   7
ATOM      7  C   UNL     1       3.677   2.040  -0.023  0.00  0.00    +0.099 C 
ATOM      8  N   UNL     1       3.984   2.867  -1.021  0.00  0.00    -0.387 N 
ATOM      9  N   UNL     1       4.611   1.680   0.857  0.00  0.00    -0.344 N 
ATOM     10  H   UNL     1       4.867   3.266  -1.065  0.00  0.00    +0.157 HD
ATOM     11  H   UNL     1       4.387   1.078   1.583  0.00  0.00    +0.144 HD
ATOM     12  H   UNL     1       5.516   2.020   0.770  0.00  0.00    +0.144 HD
ATOM     13  H   UNL     1       3.325   3.071  -1.703  0.00  0.00    +0.157 HD
ENDBRANCH   3   7
BRANCH   4  14
ATOM     14  O   UNL     1       3.094  -0.727   0.062  0.00  0.00    -0.435 OA
BRANCH  14  15
ATOM     15  C   UNL     1       2.817  -2.057   0.103  0.00  0.00    +0.158 A 
ATOM     16  C   UNL     1       2.779  -2.723   1.320  0.00  0.00    +0.063 A 
ATOM     17  C   UNL     1       2.498  -4.076   1.358  0.00  0.00    +0.051 A 
ATOM     18  C   UNL     1       2.254  -4.766   0.184  0.00  0.00    +0.129 A 
ATOM     19  C   UNL     1       2.292  -4.105  -1.030  0.00  0.00    +0.051 A 
ATOM     20  C   UNL     1       2.566  -2.751  -1.073  0.00  0.00    +0.063 A 
ATOM     21 BR   UNL     1       2.608  -1.847  -2.733  0.00  0.00    -0.046 Br
ATOM     22 BR   UNL     1       3.113  -1.780   2.925  0.00  0.00    -0.046 Br
BRANCH  18  23
ATOM     23  N   UNL     1       1.953  -6.214   0.228  0.00  0.00    +0.056 N 
ATOM     24  O   UNL     1       1.921  -6.793   1.289  0.00  0.00    -0.126 OA
ATOM     25  O   UNL     1       1.740  -6.819  -0.797  0.00  0.00    -0.126 OA
ENDBRANCH  18  23
ENDBRANCH  14  15
ENDBRANCH   4  14
TORSDOF 4
