REMARK  Name = ZINC01115336
REMARK  5 active torsions:
REMARK  status: ('A' for Active; 'I' for Inactive)
REMARK    1  A    between atoms: C_1  and  C_2
REMARK    2  A    between atoms: C_9  and  N_13
REMARK    3  A    between atoms: C_10  and  C_11
REMARK    4  A    between atoms: C_14  and  C_16
REMARK    5  A    between atoms: C_19  and  C_21
REMARK                            x       y       z     vdW  Elec       q    Type
REMARK                         _______ _______ _______ _____ _____    ______ ____
ROOT
ATOM      1  N   UNL     1       4.721   4.296  -0.304  0.00  0.00    -0.272 N 
ATOM      2  C   UNL     1       4.455   5.574  -0.641  0.00  0.00    +0.284 C 
ATOM      3  O   UNL     1       3.305   5.929  -0.819  0.00  0.00    -0.266 OA
ATOM      4  H   UNL     1       5.638   4.013  -0.162  0.00  0.00    +0.156 HD
ENDROOT
BRANCH   1  12
ATOM      5  C   UNL     1      -1.397  -0.538   0.318  0.00  0.00    +0.008 C 
ATOM      6  C   UNL     1       0.002  -0.004   0.002  0.00  0.00    -0.009 C 
ATOM      7  C   UNL     1       0.992  -0.490   1.064  0.00  0.00    +0.008 C 
ATOM      8  C   UNL     1       2.423  -0.174   0.625  0.00  0.00    +0.037 C 
ATOM      9  C   UNL     1       2.510   1.304   0.265  0.00  0.00    -0.018 A 
ATOM     10  C   UNL     1       1.396   2.022  -0.000  0.00  0.00    -0.004 A 
ATOM     11  S   UNL     1       1.984   3.653  -0.358  0.00  0.00    -0.077 S 
ATOM     12  C   UNL     1       3.685   3.387  -0.160  0.00  0.00    +0.090 A 
ATOM     13  C   UNL     1       3.757   2.043   0.178  0.00  0.00    +0.084 A 
ATOM     14  C   UNL     1      -0.019   1.531   0.011  0.00  0.00    +0.046 C 
BRANCH  13  15
ATOM     15  C   UNL     1       5.015   1.409   0.433  0.00  0.00    +0.102 C 
ATOM     16  N   UNL     1       6.014   0.905   0.634  0.00  0.00    -0.191 NA
ENDBRANCH  13  15
ENDBRANCH   1  12
BRANCH   2  17
ATOM     17  C   UNL     1       5.551   6.534  -0.793  0.00  0.00    +0.190 A 
ATOM     18  C   UNL     1       5.420   7.862  -1.137  0.00  0.00    +0.055 A 
ATOM     19  C   UNL     1       6.711   8.400  -1.164  0.00  0.00    +0.050 A 
ATOM     20  C   UNL     1       7.574   7.391  -0.847  0.00  0.00    +0.136 A 
ATOM     21  O   UNL     1       6.864   6.271  -0.626  0.00  0.00    -0.450 OA
BRANCH  20  22
ATOM     22  C   UNL     1       9.043   7.509  -0.761  0.00  0.00    +0.017 A 
ATOM     23  C   UNL     1       9.664   8.733  -1.021  0.00  0.00    +0.012 A 
ATOM     24  C   UNL     1      11.037   8.838  -0.934  0.00  0.00    +0.016 A 
ATOM     25  C   UNL     1      11.799   7.732  -0.601  0.00  0.00    +0.018 A 
ATOM     26  C   UNL     1      11.190   6.514  -0.348  0.00  0.00    +0.016 A 
ATOM     27  C   UNL     1       9.818   6.397  -0.426  0.00  0.00    +0.012 A 
ATOM     28 BR   UNL     1      13.681   7.884  -0.491  0.00  0.00    -0.050 Br
ENDBRANCH  20  22
ENDBRANCH   2  17
TORSDOF 4
