REMARK  Name = ZINC01156039
REMARK  15 active torsions:
REMARK  status: ('A' for Active; 'I' for Inactive)
REMARK    1  A    between atoms: C_1  and  C_2
REMARK    2  A    between atoms: C_2  and  N_62
REMARK    3  A    between atoms: C_3  and  C_4
REMARK    4  A    between atoms: C_3  and  N_62
REMARK    5  A    between atoms: C_5  and  C_6
REMARK    6  A    between atoms: C_5  and  N_62
REMARK    7  A    between atoms: C_7  and  O_29
REMARK    8  A    between atoms: C_8  and  C_24
REMARK    9  A    between atoms: C_11  and  O_12
REMARK   10  A    between atoms: C_16  and  C_18
REMARK   11  A    between atoms: C_24  and  N_64
REMARK   12  A    between atoms: C_25  and  C_26
REMARK   13  A    between atoms: C_25  and  N_64
REMARK   14  A    between atoms: C_27  and  C_28
REMARK   15  A    between atoms: C_27  and  N_64
REMARK                            x       y       z     vdW  Elec       q    Type
REMARK                         _______ _______ _______ _____ _____    ______ ____
ROOT
ATOM      1  C   UNL     1       1.802  -1.942  -0.798  0.00  0.00    +0.020 A 
ATOM      2  C   UNL     1       2.667  -2.413   0.183  0.00  0.00    +0.127 A 
ATOM      3  C   UNL     1       2.861  -3.774   0.360  0.00  0.00    +0.021 A 
ATOM      4  C   UNL     1       2.198  -4.681  -0.453  0.00  0.00    +0.148 A 
ATOM      5  C   UNL     1       1.327  -4.207  -1.449  0.00  0.00    +0.106 A 
ATOM      6  C   UNL     1       1.131  -2.830  -1.618  0.00  0.00    +0.136 A 
ATOM      7  C   UNL     1       0.633  -5.188  -2.300  0.00  0.00    +0.197 A 
ATOM      8  O   UNL     1      -0.135  -4.834  -3.180  0.00  0.00    -0.287 OA
ATOM      9  C   UNL     1       0.892  -6.559  -2.057  0.00  0.00    +0.098 A 
ATOM     10  C   UNL     1       1.754  -6.913  -1.068  0.00  0.00    +0.139 A 
ATOM     11  O   UNL     1       2.380  -6.009  -0.299  0.00  0.00    -0.454 OA
ENDROOT
BRANCH  10  12
ATOM     12  C   UNL     1       2.010  -8.348  -0.830  0.00  0.00    +0.017 A 
ATOM     13  C   UNL     1       1.370  -9.314  -1.610  0.00  0.00    +0.011 A 
ATOM     14  C   UNL     1       1.619 -10.652  -1.385  0.00  0.00    +0.001 A 
ATOM     15  C   UNL     1       2.492 -11.039  -0.384  0.00  0.00    +0.000 A 
ATOM     16  C   UNL     1       3.126 -10.087   0.396  0.00  0.00    +0.001 A 
ATOM     17  C   UNL     1       2.890  -8.745   0.179  0.00  0.00    +0.011 A 
ENDBRANCH  10  12
BRANCH   6  18
ATOM     18  O   UNL     1       0.289  -2.372  -2.579  0.00  0.00    -0.506 OA
ATOM     19  H   UNL     1       0.716  -2.215  -3.433  0.00  0.00    +0.292 HD
ENDBRANCH   6  18
BRANCH   2  20
ATOM     20  O   UNL     1       3.325  -1.532   0.979  0.00  0.00    -0.506 OA
ATOM     21  H   UNL     1       2.897  -1.378   1.833  0.00  0.00    +0.292 HD
ENDBRANCH   2  20
BRANCH   1  22
ATOM     22  C   UNL     1       1.599  -0.459  -0.972  0.00  0.00    -0.036 C 
BRANCH  22  23
ATOM     23  N   UNL     1       0.349  -0.067  -0.286  0.00  0.00    +0.382 N 
ATOM     24  H   UNL     1      -0.379  -0.759  -0.499  0.00  0.00    -0.081 HD
BRANCH  23  26
ATOM     25  C   UNL     1      -0.796   0.019   1.872  0.00  0.00    -0.017 C 
ATOM     26  C   UNL     1       0.565  -0.032   1.175  0.00  0.00    -0.082 C 
ENDBRANCH  23  26
BRANCH  23  27
ATOM     27  C   UNL     1      -0.095   1.259  -0.764  0.00  0.00    -0.082 C 
ATOM     28  C   UNL     1      -0.661   1.108  -2.178  0.00  0.00    -0.017 C 
ENDBRANCH  23  27
ENDBRANCH  22  23
ENDBRANCH   1  22
BRANCH   3  29
ATOM     29  C   UNL     1       3.798  -4.269   1.431  0.00  0.00    -0.036 C 
BRANCH  29  30
ATOM     30  N   UNL     1       5.160  -4.366   0.866  0.00  0.00    +0.382 N 
ATOM     31  H   UNL     1       5.400  -3.474   0.419  0.00  0.00    -0.081 HD
BRANCH  30  32
ATOM     32  C   UNL     1       6.135  -4.640   1.943  0.00  0.00    -0.082 C 
ATOM     33  C   UNL     1       6.280  -3.386   2.808  0.00  0.00    -0.017 C 
ENDBRANCH  30  32
BRANCH  30  34
ATOM     34  C   UNL     1       5.211  -5.441  -0.147  0.00  0.00    -0.082 C 
ATOM     35  C   UNL     1       6.571  -5.396  -0.847  0.00  0.00    -0.017 C 
ENDBRANCH  30  34
ENDBRANCH  29  30
ENDBRANCH   3  29
TORSDOF 11
