REMARK  Name = ZINC56769075
REMARK  7 active torsions:
REMARK  status: ('A' for Active; 'I' for Inactive)
REMARK    1  A    between atoms: C_1  and  C_2
REMARK    2  A    between atoms: C_2  and  C_3
REMARK    3  A    between atoms: N_15  and  C_16
REMARK    4  A    between atoms: C_16  and  C_18
REMARK    5  A    between atoms: C_16  and  C_19
REMARK    6  A    between atoms: C_19  and  C_20
REMARK    7  A    between atoms: C_23  and  O_26
REMARK                            x       y       z     vdW  Elec       q    Type
REMARK                         _______ _______ _______ _____ _____    ______ ____
ROOT
ATOM      1  C   UNL     1       0.717  -0.495  -1.255  0.00  0.00    +0.108 C 
ATOM      2  C   UNL     1       0.650  -2.020  -1.323  0.00  0.00    -0.017 A 
ATOM      3  C   UNL     1      -0.513  -2.719  -1.640  0.00  0.00    +0.013 A 
ATOM      4  C   UNL     1      -0.501  -4.071  -1.678  0.00  0.00    +0.046 A 
ATOM      5  S   UNL     1       1.197  -4.435  -1.256  0.00  0.00    -0.101 S 
ATOM      6  C   UNL     1       1.759  -2.764  -1.066  0.00  0.00    -0.004 A 
ATOM      7  C   UNL     1       3.128  -2.281  -0.712  0.00  0.00    +0.062 C 
ATOM      8  C   UNL     1       3.033  -0.810  -0.277  0.00  0.00    +0.115 C 
ATOM      9  N   UNL     1       2.134  -0.109  -1.207  0.00  0.00    -0.278 N 
ATOM     10  C   UNL     1       2.603   0.871  -2.004  0.00  0.00    +0.303 C 
ATOM     11  O   UNL     1       1.875   1.379  -2.835  0.00  0.00    -0.253 OA
ATOM     12  N   UNL     1       3.878   1.288  -1.881  0.00  0.00    -0.296 N 
ATOM     13  H   UNL     1       4.480   0.834  -1.271  0.00  0.00    +0.151 HD
ENDROOT
BRANCH   1  15
ATOM     14  C   UNL     1      -0.017   1.530   0.012  0.00  0.00    +0.006 C 
ATOM     15  C   UNL     1       0.003  -0.000   0.004  0.00  0.00    +0.024 C 
ENDBRANCH   1  15
BRANCH  12  16
ATOM     16  C   UNL     1       4.356   2.427  -2.669  0.00  0.00    +0.076 C 
ATOM     17  C   UNL     1       4.015   3.729  -1.942  0.00  0.00    +0.028 C 
BRANCH  16  18
ATOM     18  C   UNL     1       5.872   2.324  -2.846  0.00  0.00    +0.057 C 
BRANCH  18  19
ATOM     19  C   UNL     1       6.200   1.105  -3.669  0.00  0.00    -0.045 A 
ATOM     20  C   UNL     1       6.418  -0.110  -3.045  0.00  0.00    +0.007 A 
ATOM     21  C   UNL     1       6.719  -1.229  -3.797  0.00  0.00    +0.045 A 
ATOM     22  C   UNL     1       6.803  -1.134  -5.178  0.00  0.00    +0.117 A 
ATOM     23  C   UNL     1       6.584   0.086  -5.801  0.00  0.00    +0.045 A 
ATOM     24  C   UNL     1       6.278   1.201  -5.046  0.00  0.00    +0.007 A 
BRANCH  22  25
ATOM     25  O   UNL     1       7.100  -2.233  -5.920  0.00  0.00    -0.507 OA
ATOM     26  H   UNL     1       6.325  -2.740  -6.200  0.00  0.00    +0.292 HD
ENDBRANCH  22  25
ENDBRANCH  18  19
ENDBRANCH  16  18
ENDBRANCH  12  16
TORSDOF 5
