REMARK  Name = ZINC15942655
REMARK  7 active torsions:
REMARK  status: ('A' for Active; 'I' for Inactive)
REMARK    1  A    between atoms: C_5  and  C_7
REMARK    2  A    between atoms: C_7  and  N_8
REMARK    3  A    between atoms: C_11  and  C_14
REMARK    4  A    between atoms: C_14  and  N_15
REMARK    5  A    between atoms: N_15  and  S_16
REMARK    6  A    between atoms: S_16  and  C_19
REMARK    7  A    between atoms: C_22  and  C_24
REMARK                            x       y       z     vdW  Elec       q    Type
REMARK                         _______ _______ _______ _____ _____    ______ ____
ROOT
ATOM      1  N   UNL     1       1.305  -6.167   5.152  0.00  0.00    -0.189 NA
ATOM      2  H   UNL     1       0.912  -6.697   4.441  0.00  0.00    +0.148 HD
ENDROOT
BRANCH   1   3
ATOM      3  S   UNL     1       2.045  -6.915   6.431  0.00  0.00    +0.065 S 
ATOM      4  O   UNL     1       1.917  -8.313   6.213  0.00  0.00    -0.153 OA
ATOM      5  O   UNL     1       3.306  -6.283   6.598  0.00  0.00    -0.153 OA
BRANCH   3   6
ATOM      6  C   UNL     1       1.100  -6.542   7.871  0.00  0.00    +0.143 A 
ATOM      7  C   UNL     1       0.057  -7.224   8.408  0.00  0.00    +0.037 A 
ATOM      8  C   UNL     1      -0.541  -6.745   9.553  0.00  0.00    +0.020 A 
ATOM      9  C   UNL     1      -0.061  -5.591  10.112  0.00  0.00    +0.041 A 
ATOM     10  S   UNL     1       1.274  -5.172   9.003  0.00  0.00    -0.067 S 
BRANCH   9  11
ATOM     11  C   UNL     1      -0.523  -4.881  11.323  0.00  0.00    +0.098 A 
ATOM     12  C   UNL     1       0.119  -3.684  11.728  0.00  0.00    +0.036 A 
ATOM     13  C   UNL     1      -0.335  -3.057  12.850  0.00  0.00    +0.073 A 
ATOM     14  C   UNL     1      -1.420  -3.641  13.541  0.00  0.00    +0.265 A 
ATOM     15  O   UNL     1      -1.860  -3.114  14.550  0.00  0.00    -0.266 OA
ATOM     16  N   UNL     1      -1.966  -4.781  13.079  0.00  0.00    -0.243 N 
ATOM     17  H   UNL     1      -2.711  -5.176  13.559  0.00  0.00    +0.192 HD
ATOM     18  N   UNL     1      -1.531  -5.358  12.018  0.00  0.00    -0.170 NA
ENDBRANCH   9  11
ENDBRANCH   3   6
ENDBRANCH   1   3
BRANCH   1  19
ATOM     19  C   UNL     1       1.245  -4.704   5.095  0.00  0.00    +0.109 C 
BRANCH  19  23
ATOM     20  N   UNL     1       1.488  -2.680   1.337  0.00  0.00    +0.382 N 
ATOM     21  C   UNL     1       0.374  -2.304   2.215  0.00  0.00    -0.078 C 
ATOM     22  C   UNL     1       0.677  -2.745   3.648  0.00  0.00    -0.014 C 
ATOM     23  C   UNL     1       0.863  -4.265   3.680  0.00  0.00    +0.001 C 
ATOM     24  C   UNL     1       1.978  -4.654   2.705  0.00  0.00    -0.014 C 
ATOM     25  C   UNL     1       1.627  -4.141   1.306  0.00  0.00    -0.078 C 
ATOM     26  H   UNL     1       2.342  -2.270   1.685  0.00  0.00    -0.081 HD
BRANCH  20  27
ATOM     27  C   UNL     1       1.228  -2.186  -0.022  0.00  0.00    -0.040 C 
BRANCH  27  32
ATOM     28  C   UNL     1      -0.017   1.378   0.010  0.00  0.00    +0.000 A 
ATOM     29  C   UNL     1       1.171   2.087   0.002  0.00  0.00    +0.003 A 
ATOM     30  C   UNL     1       2.377   1.414  -0.013  0.00  0.00    +0.038 A 
ATOM     31  C   UNL     1       2.397   0.029  -0.021  0.00  0.00    +0.125 A 
ATOM     32  C   UNL     1       1.208  -0.679  -0.013  0.00  0.00    -0.029 A 
ATOM     33  C   UNL     1       0.002  -0.004   0.002  0.00  0.00    +0.004 A 
ATOM     34  F   UNL     1       3.577  -0.630  -0.036  0.00  0.00    -0.205 F 
ENDBRANCH  27  32
ENDBRANCH  20  27
ENDBRANCH  19  23
ENDBRANCH   1  19
TORSDOF 7
