REMARK  Name = ZINC03021718
REMARK  9 active torsions:
REMARK  status: ('A' for Active; 'I' for Inactive)
REMARK    1  A    between atoms: C_1  and  C_2
REMARK    2  A    between atoms: C_2  and  N_3
REMARK    3  A    between atoms: N_3  and  C_4
REMARK    4  A    between atoms: N_3  and  S_6
REMARK    5  A    between atoms: C_4  and  C_5
REMARK    6  A    between atoms: S_6  and  C_9
REMARK    7  A    between atoms: C_20  and  S_23
REMARK    8  A    between atoms: S_23  and  C_24
REMARK    9  A    between atoms: C_24  and  C_25
REMARK                            x       y       z     vdW  Elec       q    Type
REMARK                         _______ _______ _______ _____ _____    ______ ____
ROOT
ATOM      1  C   UNL     1       5.617   3.227  -0.037  0.00  0.00    +0.106 A 
ATOM      2  C   UNL     1       6.406   2.087  -0.051  0.00  0.00    +0.030 A 
ATOM      3  C   UNL     1       5.828   0.835  -0.052  0.00  0.00    +0.028 A 
ATOM      4  C   UNL     1       4.443   0.707  -0.038  0.00  0.00    +0.050 A 
ATOM      5  C   UNL     1       3.647   1.862  -0.024  0.00  0.00    +0.031 A 
ATOM      6  C   UNL     1       4.243   3.120  -0.023  0.00  0.00    +0.040 A 
ATOM      7  C   UNL     1       2.247   1.401  -0.012  0.00  0.00    +0.137 A 
ATOM      8  C   UNL     1       2.294  -0.008  -0.020  0.00  0.00    +0.162 A 
ATOM      9  N   UNL     1       3.610  -0.400  -0.036  0.00  0.00    -0.338 N 
ATOM     10  H   UNL     1       3.913  -1.321  -0.045  0.00  0.00    +0.167 HD
ATOM     11  N   UNL     1       1.145  -0.677  -0.013  0.00  0.00    -0.201 NA
ATOM     12  C   UNL     1       0.002  -0.004   0.002  0.00  0.00    +0.212 A 
ATOM     13  N   UNL     1      -0.016   1.325   0.009  0.00  0.00    -0.122 NA
ATOM     14  N   UNL     1       1.073   2.014   0.003  0.00  0.00    -0.143 NA
ENDROOT
BRANCH   1  15
ATOM     15  S   UNL     1       6.374   4.818  -0.036  0.00  0.00    +0.061 S 
ATOM     16  O   UNL     1       7.667   4.653  -0.602  0.00  0.00    -0.153 OA
ATOM     17  O   UNL     1       5.418   5.723  -0.572  0.00  0.00    -0.153 OA
BRANCH  15  18
ATOM     18  N   UNL     1       6.601   5.252   1.546  0.00  0.00    -0.177 NA
BRANCH  18  20
ATOM     19  C   UNL     1       8.825   6.073   2.149  0.00  0.00    +0.022 C 
ATOM     20  C   UNL     1       7.847   4.898   2.230  0.00  0.00    +0.106 C 
ENDBRANCH  18  20
BRANCH  18  21
ATOM     21  C   UNL     1       5.556   5.989   2.260  0.00  0.00    +0.106 C 
ATOM     22  C   UNL     1       4.679   5.005   3.037  0.00  0.00    +0.022 C 
ENDBRANCH  18  21
ENDBRANCH  15  18
ENDBRANCH   1  15
BRANCH  12  23
ATOM     23  S   UNL     1      -1.522  -0.889   0.012  0.00  0.00    -0.080 S 
BRANCH  23  24
ATOM     24  C   UNL     1      -2.688   0.495   0.030  0.00  0.00    +0.115 C 
BRANCH  24  25
ATOM     25  C   UNL     1      -4.098  -0.037   0.041  0.00  0.00    -0.002 A 
ATOM     26  C   UNL     1      -4.759  -0.269  -1.151  0.00  0.00    +0.007 A 
ATOM     27  C   UNL     1      -6.050  -0.763  -1.142  0.00  0.00    +0.000 A 
ATOM     28  C   UNL     1      -6.686  -1.014   0.060  0.00  0.00    +0.003 A 
ATOM     29  C   UNL     1      -6.030  -0.777   1.253  0.00  0.00    +0.038 A 
ATOM     30  C   UNL     1      -4.735  -0.288   1.244  0.00  0.00    +0.127 A 
ATOM     31  F   UNL     1      -4.093  -0.056   2.410  0.00  0.00    -0.205 F 
ENDBRANCH  24  25
ENDBRANCH  23  24
ENDBRANCH  12  23
TORSDOF 7
