REMARK  Name = ZINC02425959
REMARK  17 active torsions:
REMARK  status: ('A' for Active; 'I' for Inactive)
REMARK    1  A    between atoms: C_1  and  C_2
REMARK    2  A    between atoms: C_2  and  C_3
REMARK    3  A    between atoms: C_2  and  C_4
REMARK    4  A    between atoms: C_4  and  N_5
REMARK    5  A    between atoms: N_5  and  C_6
REMARK    6  A    between atoms: N_5  and  C_34
REMARK    7  A    between atoms: C_6  and  C_7
REMARK    8  A    between atoms: C_8  and  O_33
REMARK    9  A    between atoms: C_14  and  C_29
REMARK   10  A    between atoms: C_15  and  O_18
REMARK   11  A    between atoms: O_18  and  C_19
REMARK   12  A    between atoms: C_22  and  C_25
REMARK   13  A    between atoms: C_25  and  O_27
REMARK   14  A    between atoms: O_27  and  C_28
REMARK   15  A    between atoms: C_34  and  C_35
REMARK   16  A    between atoms: C_35  and  C_36
REMARK   17  A    between atoms: C_35  and  C_37
REMARK                            x       y       z     vdW  Elec       q    Type
REMARK                         _______ _______ _______ _____ _____    ______ ____
ROOT
ATOM      1  C   UNL     1      -4.242  -3.196  -1.385  0.00  0.00    +0.020 A 
ATOM      2  C   UNL     1      -4.510  -3.274  -2.742  0.00  0.00    +0.122 A 
ATOM      3  C   UNL     1      -4.985  -4.457  -3.303  0.00  0.00    +0.046 A 
ATOM      4  C   UNL     1      -5.193  -5.558  -2.522  0.00  0.00    +0.019 A 
ATOM      5  C   UNL     1      -4.927  -5.496  -1.154  0.00  0.00    +0.068 A 
ATOM      6  C   UNL     1      -4.441  -4.307  -0.579  0.00  0.00    +0.144 A 
ATOM      7  O   UNL     1      -4.183  -4.260   0.744  0.00  0.00    -0.447 OA
ATOM      8  C   UNL     1      -4.366  -5.315   1.549  0.00  0.00    +0.254 A 
ATOM      9  C   UNL     1      -4.820  -6.503   1.103  0.00  0.00    +0.222 A 
ATOM     10  C   UNL     1      -5.138  -6.660  -0.277  0.00  0.00    +0.235 A 
ATOM     11  O   UNL     1      -5.552  -7.720  -0.716  0.00  0.00    -0.283 OA
ENDROOT
BRANCH   8  12
ATOM     12  C   UNL     1      -4.050  -5.167   3.015  0.00  0.00    +0.454 C 
ATOM     13  F   UNL     1      -4.175  -6.409   3.646  0.00  0.00    -0.163 F 
ATOM     14  F   UNL     1      -2.740  -4.698   3.165  0.00  0.00    -0.163 F 
ATOM     15  F   UNL     1      -4.941  -4.257   3.595  0.00  0.00    -0.163 F 
ENDBRANCH   8  12
BRANCH   2  16
ATOM     16  O   UNL     1      -4.309  -2.188  -3.531  0.00  0.00    -0.506 OA
ATOM     17  H   UNL     1      -3.421  -2.135  -3.909  0.00  0.00    +0.292 HD
ENDBRANCH   2  16
BRANCH   1  18
ATOM     18  C   UNL     1      -3.729  -1.911  -0.788  0.00  0.00    -0.036 C 
BRANCH  18  19
ATOM     19  N   UNL     1      -2.260  -1.901  -0.834  0.00  0.00    +0.383 N 
ATOM     20  H   UNL     1      -1.904  -2.728  -0.379  0.00  0.00    -0.081 HD
BRANCH  19  21
ATOM     21  C   UNL     1      -1.757  -0.706  -0.144  0.00  0.00    -0.075 C 
BRANCH  21  23
ATOM     22  C   UNL     1      -0.972   0.193   2.051  0.00  0.00    +0.005 C 
ATOM     23  C   UNL     1      -1.642  -0.993   1.354  0.00  0.00    -0.034 C 
ATOM     24  C   UNL     1      -3.039  -1.207   1.941  0.00  0.00    +0.005 C 
ENDBRANCH  21  23
ENDBRANCH  19  21
BRANCH  19  25
ATOM     25  C   UNL     1      -1.815  -1.883  -2.234  0.00  0.00    -0.075 C 
BRANCH  25  26
ATOM     26  C   UNL     1      -0.290  -1.998  -2.285  0.00  0.00    -0.034 C 
ATOM     27  C   UNL     1       0.141  -3.337  -1.683  0.00  0.00    +0.005 C 
ATOM     28  C   UNL     1       0.179  -1.917  -3.739  0.00  0.00    +0.005 C 
ENDBRANCH  25  26
ENDBRANCH  19  25
ENDBRANCH  18  19
ENDBRANCH   1  18
BRANCH   9  29
ATOM     29  O   UNL     1      -4.986  -7.541   1.967  0.00  0.00    -0.448 OA
BRANCH  29  30
ATOM     30  C   UNL     1      -4.184  -8.625   1.821  0.00  0.00    +0.129 A 
ATOM     31  C   UNL     1      -3.158  -8.608   0.882  0.00  0.00    +0.047 A 
ATOM     32  C   UNL     1      -2.341  -9.706   0.732  0.00  0.00    +0.018 A 
ATOM     33  C   UNL     1      -2.544 -10.839   1.524  0.00  0.00    +0.059 A 
ATOM     34  C   UNL     1      -3.577 -10.853   2.467  0.00  0.00    +0.018 A 
ATOM     35  C   UNL     1      -4.385  -9.749   2.615  0.00  0.00    +0.047 A 
BRANCH  33  36
ATOM     36  C   UNL     1      -1.672 -12.018   1.365  0.00  0.00    +0.339 C 
ATOM     37  O   UNL     1      -0.776 -12.004   0.545  0.00  0.00    -0.245 OA
BRANCH  36  38
ATOM     38  O   UNL     1      -1.870 -13.110   2.130  0.00  0.00    -0.464 OA
ATOM     39  C   UNL     1      -0.988 -14.215   1.923  0.00  0.00    +0.280 C 
ENDBRANCH  36  38
ENDBRANCH  33  36
ENDBRANCH  29  30
ENDBRANCH   9  29
TORSDOF 12
