REMARK  Name = ZINC44857616
REMARK  6 active torsions:
REMARK  status: ('A' for Active; 'I' for Inactive)
REMARK    1  A    between atoms: C_1  and  C_2
REMARK    2  A    between atoms: C_2  and  C_3
REMARK    3  A    between atoms: C_2  and  C_4
REMARK    4  A    between atoms: C_2  and  O_5
REMARK    5  A    between atoms: O_5  and  C_6
REMARK    6  A    between atoms: C_15  and  C_17
REMARK                            x       y       z     vdW  Elec       q    Type
REMARK                         _______ _______ _______ _____ _____    ______ ____
ROOT
ATOM      1  C   UNL     1       1.952  -0.085  -1.337  0.00  0.00    +0.404 C 
ATOM      2  O   UNL     1       2.488   0.619  -0.503  0.00  0.00    -0.226 OA
ATOM      3  N   UNL     1       2.641  -0.485  -2.424  0.00  0.00    -0.255 N 
ATOM      4  C   UNL     1       2.162  -1.331  -3.542  0.00  0.00    +0.115 C 
ATOM      5  C   UNL     1       2.784  -0.697  -4.805  0.00  0.00    +0.012 C 
ATOM      6  C   UNL     1       2.801   0.829  -4.912  0.00  0.00    +0.011 C 
ATOM      7  C   UNL     1       4.027   0.063  -4.297  0.00  0.00    +0.023 C 
ATOM      8  C   UNL     1       4.046  -0.173  -2.776  0.00  0.00    +0.168 C 
ENDROOT
BRANCH   8   9
ATOM      9  C   UNL     1       4.943  -1.336  -2.438  0.00  0.00    +0.231 C 
ATOM     10  O   UNL     1       4.468  -2.440  -2.273  0.00  0.00    -0.274 OA
ATOM     11  N   UNL     1       6.272  -1.149  -2.321  0.00  0.00    -0.328 N 
ATOM     12  H   UNL     1       6.652  -0.267  -2.453  0.00  0.00    +0.145 HD
ATOM     13  H   UNL     1       6.849  -1.898  -2.103  0.00  0.00    +0.145 HD
ENDBRANCH   8   9
BRANCH   1  14
ATOM     14  O   UNL     1       0.671  -0.465  -1.174  0.00  0.00    -0.445 OA
BRANCH  14  16
ATOM     15  C   UNL     1      -0.019   1.526   0.010  0.00  0.00    +0.055 C 
ATOM     16  C   UNL     1       0.002  -0.004   0.002  0.00  0.00    +0.107 C 
ATOM     17  C   UNL     1       0.742  -0.511   1.242  0.00  0.00    +0.055 C 
ATOM     18  C   UNL     1      -1.433  -0.534   0.013  0.00  0.00    +0.055 C 
ENDBRANCH  14  16
ENDBRANCH   1  14
TORSDOF 3
