REMARK  Name = ZINC67140475
REMARK  4 active torsions:
REMARK  status: ('A' for Active; 'I' for Inactive)
REMARK    1  A    between atoms: C_3  and  C_21
REMARK    2  A    between atoms: C_5  and  N_7
REMARK    3  A    between atoms: C_21  and  O_23
REMARK    4  A    between atoms: O_23  and  C_24
REMARK                            x       y       z     vdW  Elec       q    Type
REMARK                         _______ _______ _______ _____ _____    ______ ____
ROOT
ATOM      1  C   UNL     1       0.419   1.366   0.382  0.00  0.00    +0.003 A 
ATOM      2  C   UNL     1       1.491   2.089  -0.098  0.00  0.00    +0.015 A 
ATOM      3  C   UNL     1       2.625   1.426  -0.572  0.00  0.00    +0.061 A 
ATOM      4  C   UNL     1       2.667   0.031  -0.558  0.00  0.00    +0.040 A 
ATOM      5  C   UNL     1       1.585  -0.686  -0.074  0.00  0.00    +0.057 A 
ATOM      6  C   UNL     1       0.461  -0.016   0.396  0.00  0.00    +0.025 A 
ENDROOT
BRANCH   5   7
ATOM      7  N   UNL     1       1.622  -2.085  -0.059  0.00  0.00    -0.188 N 
ATOM      8  C   UNL     1       0.586  -2.792  -0.556  0.00  0.00    +0.240 C 
ATOM      9  O   UNL     1      -0.354  -2.220  -1.065  0.00  0.00    -0.273 OA
ATOM     10  C   UNL     1       0.605  -4.295  -0.478  0.00  0.00    +0.093 C 
ATOM     11  C   UNL     1      -0.822  -4.845  -0.479  0.00  0.00    +0.040 C 
ATOM     12  C   UNL     1      -0.798  -6.310  -0.145  0.00  0.00    -0.030 C 
ATOM     13  C   UNL     1       0.205  -6.912   0.410  0.00  0.00    -0.030 C 
ATOM     14  C   UNL     1       1.489  -6.232   0.793  0.00  0.00    +0.040 C 
ATOM     15  C   UNL     1       1.290  -4.718   0.830  0.00  0.00    +0.092 C 
ATOM     16  C   UNL     1       2.613  -4.008   0.942  0.00  0.00    +0.234 C 
ATOM     17  O   UNL     1       3.562  -4.565   1.451  0.00  0.00    -0.274 OA
ATOM     18  N   UNL     1       2.738  -2.749   0.469  0.00  0.00    -0.227 N 
ATOM     19  H   UNL     1       3.599  -2.303   0.496  0.00  0.00    +0.173 HD
ENDBRANCH   5   7
BRANCH   3  20
ATOM     20  C   UNL     1       3.774   2.197  -1.087  0.00  0.00    +0.344 C 
ATOM     21  O   UNL     1       4.759   1.618  -1.499  0.00  0.00    -0.245 OA
BRANCH  20  22
ATOM     22  O   UNL     1       3.731   3.544  -1.099  0.00  0.00    -0.422 OA
BRANCH  22  23
ATOM     23  C   UNL     1       4.763   4.210  -1.680  0.00  0.00    +0.132 A 
ATOM     24  C   UNL     1       5.729   4.819  -0.890  0.00  0.00    +0.048 A 
ATOM     25  C   UNL     1       6.777   5.496  -1.482  0.00  0.00    +0.023 A 
ATOM     26  C   UNL     1       6.865   5.567  -2.861  0.00  0.00    +0.041 A 
ATOM     27  C   UNL     1       5.903   4.962  -3.650  0.00  0.00    +0.023 A 
ATOM     28  C   UNL     1       4.857   4.279  -3.062  0.00  0.00    +0.048 A 
ATOM     29 CL   UNL     1       8.184   6.419  -3.602  0.00  0.00    -0.084 Cl
ENDBRANCH  22  23
ENDBRANCH  20  22
ENDBRANCH   3  20
TORSDOF 4
