REMARK  Name = ZINC20206901
REMARK  8 active torsions:
REMARK  status: ('A' for Active; 'I' for Inactive)
REMARK    1  A    between atoms: C_1  and  C_2
REMARK    2  A    between atoms: C_2  and  S_3
REMARK    3  A    between atoms: S_3  and  C_6
REMARK    4  A    between atoms: C_14  and  C_15
REMARK    5  A    between atoms: C_17  and  C_31
REMARK    6  A    between atoms: N_18  and  C_21
REMARK    7  A    between atoms: C_19  and  C_20
REMARK    8  A    between atoms: C_25  and  C_27
REMARK                            x       y       z     vdW  Elec       q    Type
REMARK                         _______ _______ _______ _____ _____    ______ ____
ROOT
ATOM      1  C   UNL     1       2.165  -2.988  -2.279  0.00  0.00    +0.257 C 
ATOM      2  N   UNL     1       2.015  -3.818  -3.264  0.00  0.00    -0.174 NA
ATOM      3  S   UNL     1       3.288  -4.895  -3.094  0.00  0.00    +0.049 S 
ATOM      4  C   UNL     1       3.976  -4.283  -1.704  0.00  0.00    +0.183 C 
ATOM      5  N   UNL     1       4.999  -4.716  -1.002  0.00  0.00    -0.152 NA
ATOM      6  C   UNL     1       5.335  -4.084   0.138  0.00  0.00    +0.273 C 
ATOM      7  O   UNL     1       6.356  -4.379   0.739  0.00  0.00    -0.268 OA
ATOM      8  C   UNL     1       4.436  -3.020   0.646  0.00  0.00    +0.079 C 
ATOM      9  C   UNL     1       4.386  -2.686   1.983  0.00  0.00    +0.026 C 
ATOM     10  C   UNL     1       3.591  -2.331  -0.369  0.00  0.00    +0.138 C 
ATOM     11  N   UNL     1       3.239  -1.076  -0.280  0.00  0.00    -0.284 NA
ATOM     12  N   UNL     1       3.212  -3.165  -1.440  0.00  0.00    -0.201 N 
ATOM     13  H   UNL     1       3.531  -0.543   0.477  0.00  0.00    +0.188 HD
ENDROOT
BRANCH   9  14
ATOM     14  C   UNL     1       5.096  -3.501   2.967  0.00  0.00    -0.003 A 
ATOM     15  C   UNL     1       5.282  -4.958   2.941  0.00  0.00    +0.031 A 
ATOM     16  C   UNL     1       5.992  -5.271   4.038  0.00  0.00    +0.022 A 
ATOM     17  N   UNL     1       6.261  -4.129   4.740  0.00  0.00    -0.317 N 
ATOM     18  C   UNL     1       5.737  -3.057   4.112  0.00  0.00    +0.028 A 
ATOM     19  C   UNL     1       5.830  -1.626   4.576  0.00  0.00    +0.064 C 
ATOM     20  C   UNL     1       6.423  -6.660   4.432  0.00  0.00    +0.064 C 
BRANCH  17  21
ATOM     21  C   UNL     1       6.982  -4.079   5.940  0.00  0.00    +0.047 A 
ATOM     22  C   UNL     1       6.354  -3.683   7.114  0.00  0.00    +0.026 A 
ATOM     23  C   UNL     1       7.068  -3.636   8.295  0.00  0.00    +0.003 A 
ATOM     24  C   UNL     1       8.407  -3.981   8.310  0.00  0.00    +0.012 A 
ATOM     25  C   UNL     1       9.036  -4.374   7.143  0.00  0.00    +0.057 A 
ATOM     26  C   UNL     1       8.325  -4.430   5.959  0.00  0.00    +0.038 A 
BRANCH  25  27
ATOM     27  C   UNL     1      10.495  -4.748   7.163  0.00  0.00    +0.417 C 
ATOM     28  F   UNL     1      10.992  -4.619   8.464  0.00  0.00    -0.166 F 
ATOM     29  F   UNL     1      10.643  -6.072   6.736  0.00  0.00    -0.166 F 
ATOM     30  F   UNL     1      11.206  -3.900   6.307  0.00  0.00    -0.166 F 
ENDBRANCH  25  27
ENDBRANCH  17  21
ENDBRANCH   9  14
BRANCH   1  31
ATOM     31  S   UNL     1       1.035  -1.656  -2.042  0.00  0.00    +0.029 S 
ATOM     32  O   UNL     1       0.970  -1.483  -0.634  0.00  0.00    -0.167 OA
ATOM     33  O   UNL     1      -0.121  -2.026  -2.781  0.00  0.00    -0.167 OA
BRANCH  31  35
ATOM     34  C   UNL     1       0.936   1.005  -2.665  0.00  0.00    +0.028 C 
ATOM     35  C   UNL     1       1.837  -0.223  -2.812  0.00  0.00    +0.172 C 
ENDBRANCH  31  35
ENDBRANCH   1  31
TORSDOF 5
