REMARK  Name = ZINC35594630
REMARK  11 active torsions:
REMARK  status: ('A' for Active; 'I' for Inactive)
REMARK    1  A    between atoms: C_1  and  C_2
REMARK    2  A    between atoms: C_2  and  C_3
REMARK    3  A    between atoms: C_3  and  N_4
REMARK    4  A    between atoms: C_5  and  C_7
REMARK    5  A    between atoms: C_7  and  N_8
REMARK    6  A    between atoms: C_11  and  C_15
REMARK    7  A    between atoms: N_13  and  C_14
REMARK    8  A    between atoms: C_15  and  C_16
REMARK    9  A    between atoms: C_15  and  C_17
REMARK   10  A    between atoms: C_15  and  C_18
REMARK   11  A    between atoms: C_19  and  C_25
REMARK                            x       y       z     vdW  Elec       q    Type
REMARK                         _______ _______ _______ _____ _____    ______ ____
ROOT
ATOM      1  N   UNL     1      -2.568  -4.131   2.842  0.00  0.00    -0.246 N 
ATOM      2  C   UNL     1      -3.811  -4.741   3.068  0.00  0.00    +0.131 A 
ATOM      3  C   UNL     1      -4.996  -4.094   2.973  0.00  0.00    +0.033 A 
ATOM      4  C   UNL     1      -6.008  -5.012   3.254  0.00  0.00    +0.075 A 
ATOM      5  N   UNL     1      -5.448  -6.169   3.512  0.00  0.00    -0.174 NA
ATOM      6  N   UNL     1      -4.057  -6.021   3.402  0.00  0.00    -0.253 N 
ATOM      7  C   UNL     1      -3.055  -7.069   3.613  0.00  0.00    +0.174 C 
ATOM      8  C   UNL     1      -5.155  -2.636   2.628  0.00  0.00    +0.112 C 
ATOM      9  S   UNL     1      -4.811  -2.417   0.845  0.00  0.00    -0.138 S 
ATOM     10  C   UNL     1      -3.378  -3.519   0.601  0.00  0.00    +0.166 C 
ATOM     11  C   UNL     1      -2.412  -3.388   1.742  0.00  0.00    +0.231 C 
ATOM     12  O   UNL     1      -1.486  -2.608   1.665  0.00  0.00    -0.274 OA
ENDROOT
BRANCH   8  13
ATOM     13  C   UNL     1      -6.563  -2.194   2.933  0.00  0.00    -0.026 A 
ATOM     14  C   UNL     1      -6.882  -1.728   4.195  0.00  0.00    +0.009 A 
ATOM     15  C   UNL     1      -8.172  -1.322   4.480  0.00  0.00    +0.050 A 
ATOM     16  C   UNL     1      -9.150  -1.381   3.500  0.00  0.00    +0.166 A 
ATOM     17  C   UNL     1      -8.829  -1.850   2.228  0.00  0.00    +0.167 A 
ATOM     18  C   UNL     1      -7.532  -2.251   1.949  0.00  0.00    +0.054 A 
ATOM     19  O   UNL     1      -9.951  -1.811   1.452  0.00  0.00    -0.453 OA
ATOM     20  C   UNL     1     -11.052  -1.700   2.374  0.00  0.00    +0.466 C 
ATOM     21  O   UNL     1     -10.473  -1.048   3.520  0.00  0.00    -0.453 OA
ENDBRANCH   8  13
BRANCH   4  22
ATOM     22  C   UNL     1      -7.487  -4.723   3.261  0.00  0.00    +0.007 C 
ATOM     23  C   UNL     1      -7.931  -4.304   1.858  0.00  0.00    +0.017 C 
ATOM     24  C   UNL     1      -8.250  -5.981   3.683  0.00  0.00    +0.017 C 
ATOM     25  C   UNL     1      -7.782  -3.592   4.249  0.00  0.00    +0.017 C 
ENDBRANCH   4  22
BRANCH   1  26
ATOM     26  C   UNL     1      -1.467  -4.298   3.794  0.00  0.00    +0.210 C 
BRANCH  26  28
ATOM     27  N   UNL     1      -0.612  -3.162   5.818  0.00  0.00    -0.314 N 
ATOM     28  C   UNL     1      -1.531  -3.209   4.833  0.00  0.00    +0.231 C 
ATOM     29  O   UNL     1      -2.409  -2.374   4.783  0.00  0.00    -0.274 OA
ATOM     30  H   UNL     1       0.091  -3.829   5.858  0.00  0.00    +0.149 HD
BRANCH  27  31
ATOM     31  C   UNL     1      -0.673  -2.102   6.828  0.00  0.00    +0.104 C 
BRANCH  31  33
ATOM     32  C   UNL     1       0.411  -1.171   8.877  0.00  0.00    +0.005 C 
ATOM     33  C   UNL     1       0.476  -2.278   7.822  0.00  0.00    +0.015 C 
ENDBRANCH  31  33
ENDBRANCH  27  31
ENDBRANCH  26  28
ENDBRANCH   1  26
TORSDOF 6
