REMARK  Name = ZINC09613099
REMARK  8 active torsions:
REMARK  status: ('A' for Active; 'I' for Inactive)
REMARK    1  A    between atoms: C_1  and  C_2
REMARK    2  A    between atoms: C_2  and  C_3
REMARK    3  A    between atoms: C_2  and  C_4
REMARK    4  A    between atoms: C_4  and  C_5
REMARK    5  A    between atoms: N_7  and  C_8
REMARK    6  A    between atoms: C_11  and  C_14
REMARK    7  A    between atoms: C_14  and  C_16
REMARK    8  A    between atoms: C_16  and  N_17
REMARK                            x       y       z     vdW  Elec       q    Type
REMARK                         _______ _______ _______ _____ _____    ______ ____
ROOT
ATOM      1  C   UNL     1      -0.458  -0.134  -4.505  0.00  0.00    +0.197 C 
ENDROOT
BRANCH   1   2
ATOM      2  N   UNL     1      -0.817   0.418  -3.196  0.00  0.00    -0.216 N 
ATOM      3  C   UNL     1      -0.013   1.218  -2.466  0.00  0.00    +0.251 C 
ATOM      4  O   UNL     1       1.099   1.603  -2.756  0.00  0.00    -0.272 OA
ATOM      5  C   UNL     1      -0.792   1.534  -1.208  0.00  0.00    +0.138 C 
ATOM      6  C   UNL     1      -0.053   1.013   0.018  0.00  0.00    +0.040 C 
ATOM      7  C   UNL     1      -0.784   1.508   1.272  0.00  0.00    +0.008 C 
ATOM      8  C   UNL     1      -0.596   3.019   1.378  0.00  0.00    +0.035 C 
ATOM      9  C   UNL     1      -0.962   3.696   0.083  0.00  0.00    -0.042 A 
ATOM     10  C   UNL     1      -1.044   3.013  -1.111  0.00  0.00    -0.012 A 
ATOM     11  C   UNL     1      -1.368   3.698  -2.274  0.00  0.00    +0.006 A 
ATOM     12  C   UNL     1      -1.615   5.055  -2.242  0.00  0.00    +0.000 A 
ATOM     13  C   UNL     1      -1.539   5.739  -1.044  0.00  0.00    +0.000 A 
ATOM     14  C   UNL     1      -1.214   5.061   0.113  0.00  0.00    +0.004 A 
ATOM     15  N   UNL     1      -2.060   0.813  -1.386  0.00  0.00    -0.281 N 
ATOM     16  C   UNL     1      -1.981   0.190  -2.577  0.00  0.00    +0.310 C 
ATOM     17  O   UNL     1      -2.868  -0.502  -3.038  0.00  0.00    -0.252 OA
ATOM     18  H   UNL     1      -2.807   0.790  -0.767  0.00  0.00    +0.152 HD
ENDBRANCH   1   2
BRANCH   1  19
ATOM     19  C   UNL     1      -0.897   0.818  -5.588  0.00  0.00    +0.181 C 
ATOM     20  O   UNL     1      -1.454   1.855  -5.295  0.00  0.00    -0.290 OA
BRANCH  19  24
ATOM     21  C   UNL     1      -0.185  -0.129  -9.655  0.00  0.00    +0.033 A 
ATOM     22  C   UNL     1      -0.824   1.062  -9.321  0.00  0.00    +0.024 A 
ATOM     23  C   UNL     1      -1.057   1.373  -8.007  0.00  0.00    +0.013 A 
ATOM     24  C   UNL     1      -0.650   0.490  -6.998  0.00  0.00    +0.019 A 
ATOM     25  C   UNL     1      -0.002  -0.704  -7.338  0.00  0.00    +0.013 A 
ATOM     26  C   UNL     1       0.221  -1.009  -8.656  0.00  0.00    +0.024 A 
BRANCH  21  29
ATOM     27  C   UNL     1       1.170  -1.100 -11.345  0.00  0.00    +0.217 C 
ATOM     28  O   UNL     1       1.935  -1.495 -10.491  0.00  0.00    -0.275 OA
ATOM     29  N   UNL     1       0.048  -0.440 -10.993  0.00  0.00    -0.285 N 
ATOM     30  H   UNL     1      -0.596  -0.183 -11.670  0.00  0.00    +0.155 HD
BRANCH  27  31
ATOM     31  C   UNL     1       1.473  -1.346 -12.800  0.00  0.00    +0.099 C 
BRANCH  31  33
ATOM     32  C   UNL     1       3.040  -2.467 -14.391  0.00  0.00    +0.008 C 
ATOM     33  C   UNL     1       2.794  -2.108 -12.924  0.00  0.00    -0.008 C 
ATOM     34  C   UNL     1       3.939  -1.230 -12.415  0.00  0.00    +0.008 C 
ENDBRANCH  31  33
ENDBRANCH  27  31
ENDBRANCH  21  29
ENDBRANCH  19  24
ENDBRANCH   1  19
TORSDOF 6
