REMARK  Name = ZINC13042051
REMARK  15 active torsions:
REMARK  status: ('A' for Active; 'I' for Inactive)
REMARK    1  A    between atoms: C_1  and  C_2
REMARK    2  A    between atoms: C_2  and  N_68
REMARK    3  A    between atoms: C_3  and  C_4
REMARK    4  A    between atoms: C_3  and  N_68
REMARK    5  A    between atoms: C_5  and  C_7
REMARK    6  A    between atoms: C_5  and  C_30
REMARK    7  A    between atoms: C_5  and  N_68
REMARK    8  A    between atoms: C_7  and  N_8
REMARK    9  A    between atoms: C_9  and  C_11
REMARK   10  A    between atoms: C_14  and  S_17
REMARK   11  A    between atoms: S_17  and  N_20
REMARK   12  A    between atoms: N_20  and  C_21
REMARK   13  A    between atoms: N_20  and  C_22
REMARK   14  A    between atoms: C_27  and  O_28
REMARK   15  A    between atoms: O_28  and  C_29
REMARK                            x       y       z     vdW  Elec       q    Type
REMARK                         _______ _______ _______ _____ _____    ______ ____
ROOT
ATOM      1  C   UNL     1      -6.812  -3.921  -2.584  0.00  0.00    +0.037 A 
ATOM      2  C   UNL     1      -7.576  -3.441  -1.520  0.00  0.00    +0.015 A 
ATOM      3  C   UNL     1      -7.206  -2.277  -0.878  0.00  0.00    +0.029 A 
ATOM      4  C   UNL     1      -6.080  -1.585  -1.289  0.00  0.00    +0.109 A 
ATOM      5  C   UNL     1      -5.321  -2.053  -2.347  0.00  0.00    +0.029 A 
ATOM      6  C   UNL     1      -5.678  -3.219  -2.993  0.00  0.00    +0.015 A 
ENDROOT
BRANCH   1   8
ATOM      7  N   UNL     1      -6.528  -5.572  -4.370  0.00  0.00    -0.313 N 
ATOM      8  C   UNL     1      -7.204  -5.168  -3.276  0.00  0.00    +0.244 C 
ATOM      9  O   UNL     1      -8.134  -5.828  -2.857  0.00  0.00    -0.270 OA
ATOM     10  H   UNL     1      -5.742  -5.085  -4.662  0.00  0.00    +0.149 HD
BRANCH   7  11
ATOM     11  C   UNL     1      -6.982  -6.746  -5.119  0.00  0.00    +0.094 C 
BRANCH  11  12
ATOM     12  C   UNL     1      -5.979  -7.061  -6.231  0.00  0.00    -0.020 C 
BRANCH  12  13
ATOM     13  C   UNL     1      -6.357  -8.361  -6.894  0.00  0.00    -0.059 A 
ATOM     14  C   UNL     1      -6.703  -9.455  -6.124  0.00  0.00    +0.002 A 
ATOM     15  C   UNL     1      -7.053 -10.646  -6.732  0.00  0.00    +0.000 A 
ATOM     16  C   UNL     1      -7.049 -10.745  -8.111  0.00  0.00    +0.000 A 
ATOM     17  C   UNL     1      -6.697  -9.652  -8.881  0.00  0.00    +0.000 A 
ATOM     18  C   UNL     1      -6.351  -8.460  -8.273  0.00  0.00    +0.002 A 
ENDBRANCH  12  13
BRANCH  12  19
ATOM     19  N   UNL     1      -4.631  -7.160  -5.634  0.00  0.00    +0.385 N 
ATOM     20  H   UNL     1      -4.579  -6.534  -4.821  0.00  0.00    -0.081 HD
BRANCH  19  22
ATOM     21  C   UNL     1      -4.966  -8.726  -3.788  0.00  0.00    -0.017 C 
ATOM     22  C   UNL     1      -4.376  -8.546  -5.189  0.00  0.00    -0.081 C 
ENDBRANCH  19  22
BRANCH  19  23
ATOM     23  C   UNL     1      -3.610  -6.750  -6.621  0.00  0.00    -0.081 C 
ATOM     24  C   UNL     1      -3.631  -5.226  -6.745  0.00  0.00    -0.017 C 
ENDBRANCH  19  23
ENDBRANCH  12  19
ENDBRANCH  11  12
ENDBRANCH   7  11
ENDBRANCH   1   8
BRANCH   4  25
ATOM     25  S   UNL     1      -5.614  -0.099  -0.465  0.00  0.00    +0.075 S 
ATOM     26  O   UNL     1      -6.793   0.420   0.133  0.00  0.00    -0.150 OA
ATOM     27  O   UNL     1      -4.834   0.649  -1.387  0.00  0.00    -0.150 OA
BRANCH  25  28
ATOM     28  N   UNL     1      -4.602  -0.524   0.775  0.00  0.00    -0.203 N 
ATOM     29  C   UNL     1      -5.152  -0.828   2.099  0.00  0.00    +0.158 C 
BRANCH  28  30
ATOM     30  C   UNL     1      -3.220  -0.592   0.560  0.00  0.00    +0.092 A 
ATOM     31  C   UNL     1      -2.625  -1.804   0.243  0.00  0.00    +0.028 A 
ATOM     32  C   UNL     1      -1.261  -1.869   0.030  0.00  0.00    +0.002 A 
ATOM     33  C   UNL     1      -0.487  -0.728   0.131  0.00  0.00    +0.004 A 
ATOM     34  C   UNL     1      -1.075   0.485   0.441  0.00  0.00    +0.047 A 
ATOM     35  C   UNL     1      -2.440   0.558   0.661  0.00  0.00    +0.143 A 
BRANCH  35  36
ATOM     36  O   UNL     1      -3.019   1.749   0.971  0.00  0.00    -0.493 OA
ATOM     37  C   UNL     1      -2.157   2.885   1.058  0.00  0.00    +0.277 C 
ENDBRANCH  35  36
ENDBRANCH  28  30
ENDBRANCH  25  28
ENDBRANCH   4  25
TORSDOF 11
