REMARK  Name = ZINC40117780
REMARK  12 active torsions:
REMARK  status: ('A' for Active; 'I' for Inactive)
REMARK    1  A    between atoms: C_1  and  C_2
REMARK    2  A    between atoms: C_5  and  S_8
REMARK    3  A    between atoms: S_8  and  N_11
REMARK    4  A    between atoms: N_11  and  C_12
REMARK    5  A    between atoms: C_12  and  C_14
REMARK    6  A    between atoms: C_12  and  C_18
REMARK    7  A    between atoms: C_14  and  C_15
REMARK    8  A    between atoms: C_15  and  C_16
REMARK    9  A    between atoms: C_15  and  C_17
REMARK   10  A    between atoms: N_20  and  C_21
REMARK   11  A    between atoms: C_25  and  C_27
REMARK   12  A    between atoms: C_27  and  C_34
REMARK                            x       y       z     vdW  Elec       q    Type
REMARK                         _______ _______ _______ _____ _____    ______ ____
ROOT
ATOM      1  C   UNL     1       3.934  -3.973   0.851  0.00  0.00    +0.236 C 
ATOM      2  O   UNL     1       4.314  -3.874  -0.296  0.00  0.00    -0.274 OA
ATOM      3  N   UNL     1       4.764  -3.658   1.865  0.00  0.00    -0.284 N 
ATOM      4  H   UNL     1       4.487  -3.807   2.783  0.00  0.00    +0.155 HD
ENDROOT
BRANCH   3   5
ATOM      5  C   UNL     1       6.026  -3.117   1.595  0.00  0.00    +0.034 A 
ATOM      6  C   UNL     1       6.574  -2.168   2.449  0.00  0.00    +0.023 A 
ATOM      7  C   UNL     1       7.819  -1.636   2.179  0.00  0.00    +0.002 A 
ATOM      8  C   UNL     1       8.520  -2.046   1.059  0.00  0.00    +0.006 A 
ATOM      9  C   UNL     1       7.977  -2.989   0.207  0.00  0.00    -0.014 A 
ATOM     10  C   UNL     1       6.735  -3.531   0.475  0.00  0.00    +0.029 A 
BRANCH   9  11
ATOM     11  C   UNL     1       8.744  -3.433  -1.012  0.00  0.00    +0.135 C 
ATOM     12  C   UNL     1       9.136  -4.892  -0.894  0.00  0.00    +0.248 C 
ATOM     13  O   UNL     1       8.392  -5.845  -0.801  0.00  0.00    -0.273 OA
ATOM     14  N   UNL     1      10.483  -4.911  -0.915  0.00  0.00    -0.238 N 
ATOM     15  C   UNL     1      10.992  -3.679  -1.029  0.00  0.00    +0.307 C 
ATOM     16  O   UNL     1      12.183  -3.441  -1.069  0.00  0.00    -0.252 OA
ATOM     17  N   UNL     1      10.038  -2.732  -1.093  0.00  0.00    -0.282 N 
ATOM     18  C   UNL     1       7.922  -3.193  -2.280  0.00  0.00    +0.047 C 
ATOM     19  H   UNL     1      11.018  -5.718  -0.855  0.00  0.00    +0.159 HD
ATOM     20  H   UNL     1      10.175  -1.776  -1.177  0.00  0.00    +0.152 HD
ENDBRANCH   9  11
ENDBRANCH   3   5
BRANCH   1  21
ATOM     21  C   UNL     1       2.534  -4.448   1.143  0.00  0.00    +0.163 C 
BRANCH  21  22
ATOM     22  N   UNL     1       1.701  -4.274  -0.049  0.00  0.00    -0.178 NA
ATOM     23  H   UNL     1       2.079  -4.419  -0.931  0.00  0.00    +0.149 HD
BRANCH  22  24
ATOM     24  S   UNL     1       0.113  -3.830   0.108  0.00  0.00    +0.059 S 
ATOM     25  O   UNL     1      -0.464  -4.716   1.057  0.00  0.00    -0.153 OA
ATOM     26  O   UNL     1      -0.400  -3.685  -1.209  0.00  0.00    -0.153 OA
BRANCH  24  31
ATOM     27  C   UNL     1       0.032   1.663   2.604  0.00  0.00    +0.044 C 
ATOM     28  C   UNL     1       0.052   0.291   1.981  0.00  0.00    -0.050 A 
ATOM     29  C   UNL     1       0.093   0.157   0.606  0.00  0.00    +0.005 A 
ATOM     30  C   UNL     1       0.112  -1.101   0.034  0.00  0.00    +0.029 A 
ATOM     31  C   UNL     1       0.091  -2.226   0.837  0.00  0.00    +0.105 A 
ATOM     32  C   UNL     1       0.051  -2.092   2.212  0.00  0.00    +0.029 A 
ATOM     33  C   UNL     1       0.036  -0.834   2.784  0.00  0.00    +0.005 A 
ENDBRANCH  24  31
ENDBRANCH  22  24
ENDBRANCH  21  22
BRANCH  21  34
ATOM     34  C   UNL     1       2.568  -5.928   1.530  0.00  0.00    +0.032 C 
BRANCH  34  35
ATOM     35  C   UNL     1       3.340  -6.095   2.840  0.00  0.00    -0.015 C 
ATOM     36  C   UNL     1       2.561  -5.435   3.979  0.00  0.00    +0.007 C 
ATOM     37  C   UNL     1       3.518  -7.585   3.141  0.00  0.00    +0.007 C 
ENDBRANCH  34  35
ENDBRANCH  21  34
ENDBRANCH   1  21
TORSDOF 8
