REMARK  Name = ZINC45632293
REMARK  8 active torsions:
REMARK  status: ('A' for Active; 'I' for Inactive)
REMARK    1  A    between atoms: C_1  and  C_2
REMARK    2  A    between atoms: C_4  and  C_14
REMARK    3  A    between atoms: N_16  and  C_17
REMARK    4  A    between atoms: N_16  and  C_24
REMARK    5  A    between atoms: C_17  and  C_18
REMARK    6  A    between atoms: C_25  and  N_40
REMARK    7  A    between atoms: N_26  and  C_33
REMARK    8  A    between atoms: C_33  and  C_34
REMARK                            x       y       z     vdW  Elec       q    Type
REMARK                         _______ _______ _______ _____ _____    ______ ____
ROOT
ATOM      1  C   UNL     1       0.213  -0.071  -2.432  0.00  0.00    +0.265 C 
ATOM      2  O   UNL     1       0.907  -0.513  -1.540  0.00  0.00    -0.271 OA
ATOM      3  N   UNL     1       0.112   1.263  -2.610  0.00  0.00    -0.257 N 
ENDROOT
BRANCH   1   6
ATOM      4  C   UNL     1       0.822  -0.247  -5.303  0.00  0.00    +0.056 C 
ATOM      5  C   UNL     1       0.379  -1.463  -4.486  0.00  0.00    +0.220 C 
ATOM      6  C   UNL     1      -0.537  -1.011  -3.340  0.00  0.00    +0.299 C 
ATOM      7  O   UNL     1      -0.943  -2.171  -2.607  0.00  0.00    -0.472 OA
ATOM      8  C   UNL     1      -1.366  -3.239  -3.337  0.00  0.00    +0.163 A 
ATOM      9  C   UNL     1      -2.102  -4.239  -2.717  0.00  0.00    +0.049 A 
ATOM     10  C   UNL     1      -2.536  -5.331  -3.445  0.00  0.00    +0.004 A 
ATOM     11  C   UNL     1      -2.238  -5.430  -4.791  0.00  0.00    +0.004 A 
ATOM     12  C   UNL     1      -1.507  -4.437  -5.415  0.00  0.00    +0.049 A 
ATOM     13  C   UNL     1      -1.070  -3.337  -4.691  0.00  0.00    +0.163 A 
ATOM     14  O   UNL     1      -0.357  -2.363  -5.321  0.00  0.00    -0.481 OA
ENDBRANCH   1   6
BRANCH   3  15
ATOM     15  C   UNL     1      -0.785   1.781  -3.567  0.00  0.00    +0.140 A 
ATOM     16  C   UNL     1      -2.147   1.611  -3.418  0.00  0.00    +0.128 A 
ATOM     17  N   UNL     1      -2.996   2.128  -4.368  0.00  0.00    -0.276 N 
ATOM     18  C   UNL     1      -2.506   2.792  -5.431  0.00  0.00    +0.331 A 
ATOM     19  O   UNL     1      -3.273   3.241  -6.260  0.00  0.00    -0.246 OA
ATOM     20  N   UNL     1      -1.182   2.967  -5.593  0.00  0.00    -0.273 N 
ATOM     21  H   UNL     1      -0.854   3.450  -6.367  0.00  0.00    +0.173 HD
ATOM     22  C   UNL     1      -0.308   2.485  -4.689  0.00  0.00    +0.277 A 
ATOM     23  O   UNL     1       0.890   2.654  -4.843  0.00  0.00    -0.266 OA
BRANCH  16  24
ATOM     24  N   UNL     1      -2.648   0.933  -2.332  0.00  0.00    -0.343 N 
ATOM     25  H   UNL     1      -2.050   0.635  -1.629  0.00  0.00    +0.144 HD
ATOM     26  H   UNL     1      -3.599   0.753  -2.270  0.00  0.00    +0.144 HD
ENDBRANCH  16  24
BRANCH  17  27
ATOM     27  C   UNL     1      -4.444   1.955  -4.222  0.00  0.00    +0.163 C 
BRANCH  27  28
ATOM     28  C   UNL     1      -5.012   3.114  -3.444  0.00  0.00    -0.028 A 
ATOM     29  C   UNL     1      -5.093   3.048  -2.066  0.00  0.00    +0.005 A 
ATOM     30  C   UNL     1      -5.615   4.111  -1.353  0.00  0.00    +0.000 A 
ATOM     31  C   UNL     1      -6.055   5.240  -2.018  0.00  0.00    +0.000 A 
ATOM     32  C   UNL     1      -5.973   5.306  -3.396  0.00  0.00    +0.000 A 
ATOM     33  C   UNL     1      -5.448   4.245  -4.109  0.00  0.00    +0.005 A 
ENDBRANCH  27  28
ENDBRANCH  17  27
ENDBRANCH   3  15
BRANCH   3  34
ATOM     34  C   UNL     1       0.934   2.173  -1.808  0.00  0.00    +0.149 C 
BRANCH  34  35
ATOM     35  C   UNL     1       0.148   2.636  -0.609  0.00  0.00    -0.030 A 
ATOM     36  C   UNL     1      -0.711   3.713  -0.719  0.00  0.00    +0.005 A 
ATOM     37  C   UNL     1      -1.432   4.138   0.381  0.00  0.00    +0.000 A 
ATOM     38  C   UNL     1      -1.295   3.485   1.592  0.00  0.00    +0.000 A 
ATOM     39  C   UNL     1      -0.437   2.406   1.702  0.00  0.00    +0.000 A 
ATOM     40  C   UNL     1       0.281   1.979   0.601  0.00  0.00    +0.005 A 
ENDBRANCH  34  35
ENDBRANCH   3  34
TORSDOF 7
