REMARK  Name = ZINC05673290
REMARK  8 active torsions:
REMARK  status: ('A' for Active; 'I' for Inactive)
REMARK    1  A    between atoms: C_1  and  C_2
REMARK    2  A    between atoms: C_2  and  O_3
REMARK    3  A    between atoms: O_3  and  C_4
REMARK    4  A    between atoms: C_9  and  C_10
REMARK    5  A    between atoms: C_13  and  O_31
REMARK    6  A    between atoms: N_15  and  C_22
REMARK    7  A    between atoms: C_27  and  C_29
REMARK    8  A    between atoms: C_27  and  C_30
REMARK                            x       y       z     vdW  Elec       q    Type
REMARK                         _______ _______ _______ _____ _____    ______ ____
ROOT
ATOM      1  C   UNL     1       1.990  -1.397  -3.491  0.00  0.00    +0.119 C 
ATOM      2  C   UNL     1       0.896  -0.980  -4.424  0.00  0.00    +0.072 A 
ATOM      3  C   UNL     1      -0.463  -0.980  -4.032  0.00  0.00    +0.238 A 
ATOM      4  N   UNL     1      -1.188  -0.577  -5.040  0.00  0.00    -0.131 NA
ATOM      5  N   UNL     1      -0.334  -0.305  -6.108  0.00  0.00    -0.243 N 
ATOM      6  C   UNL     1       0.956  -0.558  -5.705  0.00  0.00    +0.132 A 
ATOM      7  N   UNL     1       2.016  -0.368  -6.559  0.00  0.00    -0.270 N 
ATOM      8  C   UNL     1       3.299  -0.559  -6.487  0.00  0.00    +0.228 C 
ATOM      9  O   UNL     1       3.903  -0.360  -7.520  0.00  0.00    -0.275 OA
ATOM     10  C   UNL     1       4.139  -0.982  -5.347  0.00  0.00    +0.166 C 
ATOM     11  S   UNL     1       3.348  -2.228  -4.320  0.00  0.00    -0.138 S 
ATOM     12  H   UNL     1       1.742  -0.005  -7.417  0.00  0.00    +0.156 HD
ENDROOT
BRANCH   5  13
ATOM     13  C   UNL     1      -0.741   0.170  -7.433  0.00  0.00    +0.114 C 
ATOM     14  C   UNL     1      -1.466   1.512  -7.295  0.00  0.00    +0.055 C 
ATOM     15  C   UNL     1      -1.957   1.962  -8.673  0.00  0.00    +0.162 C 
ATOM     16  O   UNL     1      -2.811   0.958  -9.225  0.00  0.00    -0.374 OA
ATOM     17  C   UNL     1      -2.173  -0.306  -9.421  0.00  0.00    +0.066 C 
ATOM     18  C   UNL     1      -1.689  -0.848  -8.073  0.00  0.00    +0.061 C 
ATOM     19  C   UNL     1      -0.977  -0.134 -10.359  0.00  0.00    +0.041 C 
ATOM     20  C   UNL     1      -3.169  -1.290 -10.038  0.00  0.00    +0.041 C 
ENDBRANCH   5  13
BRANCH   1  26
ATOM     21  C   UNL     1       0.777  -1.810  -1.336  0.00  0.00    +0.125 A 
ATOM     22  C   UNL     1       0.243  -2.669  -0.386  0.00  0.00    +0.046 A 
ATOM     23  C   UNL     1       0.351  -4.036  -0.554  0.00  0.00    +0.004 A 
ATOM     24  C   UNL     1       0.991  -4.548  -1.667  0.00  0.00    +0.001 A 
ATOM     25  C   UNL     1       1.525  -3.695  -2.615  0.00  0.00    +0.008 A 
ATOM     26  C   UNL     1       1.414  -2.327  -2.455  0.00  0.00    +0.012 A 
BRANCH  21  27
ATOM     27  O   UNL     1       0.671  -0.465  -1.174  0.00  0.00    -0.492 OA
BRANCH  27  29
ATOM     28  C   UNL     1      -0.019   1.526   0.010  0.00  0.00    +0.048 C 
ATOM     29  C   UNL     1       0.002  -0.004   0.002  0.00  0.00    +0.225 C 
ENDBRANCH  27  29
ENDBRANCH  21  27
ENDBRANCH   1  26
BRANCH   3  30
ATOM     30  O   UNL     1      -0.936  -1.341  -2.809  0.00  0.00    -0.491 OA
ATOM     31  H   UNL     1      -0.993  -0.610  -2.179  0.00  0.00    +0.294 HD
ENDBRANCH   3  30
TORSDOF 5
