REMARK  Name = ZINC09307275
REMARK  3 active torsions:
REMARK  status: ('A' for Active; 'I' for Inactive)
REMARK    1  A    between atoms: C_1  and  C_2
REMARK    2  A    between atoms: C_4  and  C_36
REMARK    3  A    between atoms: N_20  and  C_23
REMARK                            x       y       z     vdW  Elec       q    Type
REMARK                         _______ _______ _______ _____ _____    ______ ____
ROOT
ATOM      1  C   UNL     1       2.492   1.042  -0.017  0.00  0.00    +0.044 C 
ATOM      2  C   UNL     1       1.178   1.780   0.000  0.00  0.00    -0.050 A 
ATOM      3  C   UNL     1      -0.013   1.076   0.008  0.00  0.00    +0.008 A 
ATOM      4  C   UNL     1      -1.219   1.745   0.017  0.00  0.00    -0.029 A 
ATOM      5  C   UNL     1      -1.247   3.138   0.028  0.00  0.00    +0.039 A 
ATOM      6  C   UNL     1      -0.043   3.835   0.020  0.00  0.00    -0.027 A 
ATOM      7  C   UNL     1       1.159   3.163   0.008  0.00  0.00    +0.008 A 
ATOM      8  C   UNL     1      -0.411   5.293   0.029  0.00  0.00    +0.053 C 
ATOM      9  C   UNL     1       0.148   6.016  -1.201  0.00  0.00    +0.089 C 
ATOM     10  C   UNL     1       0.521   7.424  -0.688  0.00  0.00    +0.074 C 
ATOM     11  C   UNL     1       0.183   7.422   0.814  0.00  0.00    -0.054 C 
ATOM     12  C   UNL     1       1.571   5.604   1.379  0.00  0.00    -0.076 C 
ATOM     13  C   UNL     1       2.243   6.839   2.010  0.00  0.00    -0.020 C 
ATOM     14  C   UNL     1       1.343   8.029   1.623  0.00  0.00    -0.016 C 
ATOM     15  C   UNL     1       2.023   7.435  -0.865  0.00  0.00    +0.228 C 
ATOM     16  O   UNL     1       2.756   8.358  -0.579  0.00  0.00    -0.275 OA
ATOM     17  N   UNL     1       2.418   6.267  -1.385  0.00  0.00    -0.209 N 
ATOM     18  C   UNL     1       1.426   5.398  -1.615  0.00  0.00    +0.229 C 
ATOM     19  O   UNL     1       1.561   4.288  -2.083  0.00  0.00    -0.275 OA
ATOM     20  C   UNL     1      -1.915   5.314   0.042  0.00  0.00    +0.212 C 
ATOM     21  O   UNL     1      -2.625   6.298   0.051  0.00  0.00    -0.277 OA
ATOM     22  N   UNL     1      -2.321   4.030   0.040  0.00  0.00    -0.286 N 
ATOM     23  C   UNL     1      -2.510   0.968   0.021  0.00  0.00    +0.045 C 
ATOM     24  H   UNL     1      -3.252   3.756   0.046  0.00  0.00    +0.155 HD
ATOM     25  N   UNL     1       0.170   6.019   1.162  0.00  0.00    +0.395 N 
ATOM     26  H   UNL     1      -0.384   5.857   2.011  0.00  0.00    -0.079 HD
ENDROOT
BRANCH  17  27
ATOM     27  C   UNL     1       3.758   5.977  -1.665  0.00  0.00    +0.052 A 
ATOM     28  C   UNL     1       4.559   5.396  -0.707  0.00  0.00    +0.024 A 
ATOM     29  C   UNL     1       5.891   5.100  -0.977  0.00  0.00    +0.002 A 
ATOM     30  C   UNL     1       6.443   5.383  -2.189  0.00  0.00    +0.008 A 
ATOM     31  C   UNL     1       5.661   5.981  -3.192  0.00  0.00    -0.016 A 
ATOM     32  C   UNL     1       4.302   6.283  -2.930  0.00  0.00    +0.004 A 
ATOM     33  C   UNL     1       3.523   6.881  -3.933  0.00  0.00    +0.010 A 
ATOM     34  C   UNL     1       4.082   7.163  -5.143  0.00  0.00    +0.001 A 
ATOM     35  C   UNL     1       5.418   6.866  -5.401  0.00  0.00    +0.001 A 
ATOM     36  C   UNL     1       6.204   6.286  -4.453  0.00  0.00    +0.008 A 
ENDBRANCH  17  27
TORSDOF 1
