REMARK  Name = ZINC02246396
REMARK  4 active torsions:
REMARK  status: ('A' for Active; 'I' for Inactive)
REMARK    1  A    between atoms: C_1  and  O_2
REMARK    2  A    between atoms: O_2  and  C_3
REMARK    3  A    between atoms: C_6  and  C_9
REMARK    4  A    between atoms: C_20  and  C_22
REMARK                            x       y       z     vdW  Elec       q    Type
REMARK                         _______ _______ _______ _____ _____    ______ ____
ROOT
ATOM      1  C   UNL     1       2.505  -2.503  -4.381  0.00  0.00    +0.163 C 
ATOM      2  C   UNL     1       3.918  -2.860  -3.978  0.00  0.00    +0.028 C 
ATOM      3  C   UNL     1       4.287  -4.156  -4.042  0.00  0.00    +0.083 C 
ATOM      4  C   UNL     1       5.673  -4.495  -3.634  0.00  0.00    +0.042 A 
ATOM      5  C   UNL     1       6.247  -5.717  -3.958  0.00  0.00    +0.013 A 
ATOM      6  C   UNL     1       7.542  -5.990  -3.560  0.00  0.00    +0.001 A 
ATOM      7  C   UNL     1       8.262  -5.052  -2.842  0.00  0.00    +0.004 A 
ATOM      8  C   UNL     1       7.698  -3.833  -2.515  0.00  0.00    +0.046 A 
ATOM      9  C   UNL     1       6.402  -3.546  -2.906  0.00  0.00    +0.131 A 
ATOM     10  O   UNL     1       5.821  -2.361  -2.591  0.00  0.00    -0.479 OA
ATOM     11  C   UNL     1       4.890  -1.810  -3.526  0.00  0.00    +0.241 C 
ATOM     12  N   UNL     1       3.425  -5.114  -4.463  0.00  0.00    -0.216 NA
ATOM     13  C   UNL     1       2.184  -4.880  -4.830  0.00  0.00    +0.209 C 
ATOM     14  N   UNL     1       1.658  -3.625  -4.814  0.00  0.00    -0.182 N 
ATOM     15  N   UNL     1       0.335  -3.717  -5.250  0.00  0.00    -0.169 NA
ATOM     16  C   UNL     1       0.077  -4.957  -5.514  0.00  0.00    +0.208 C 
ATOM     17  N   UNL     1       1.189  -5.711  -5.274  0.00  0.00    -0.275 N 
ATOM     18  H   UNL     1       1.260  -6.671  -5.394  0.00  0.00    +0.156 HD
ENDROOT
BRANCH   1  22
ATOM     19  C   UNL     1       0.606  -0.607  -1.056  0.00  0.00    +0.120 A 
ATOM     20  C   UNL     1       1.173   0.161  -2.062  0.00  0.00    +0.046 A 
ATOM     21  C   UNL     1       1.786  -0.455  -3.136  0.00  0.00    +0.009 A 
ATOM     22  C   UNL     1       1.835  -1.835  -3.209  0.00  0.00    -0.021 A 
ATOM     23  C   UNL     1       1.270  -2.602  -2.207  0.00  0.00    +0.009 A 
ATOM     24  C   UNL     1       0.661  -1.992  -1.128  0.00  0.00    +0.046 A 
BRANCH  19  26
ATOM     25  C   UNL     1      -0.017   1.425   0.010  0.00  0.00    +0.277 C 
ATOM     26  O   UNL     1       0.002  -0.004   0.002  0.00  0.00    -0.495 OA
ENDBRANCH  19  26
ENDBRANCH   1  22
BRANCH  11  27
ATOM     27  C   UNL     1       5.639  -1.278  -4.720  0.00  0.00    +0.034 A 
ATOM     28  C   UNL     1       5.435  -0.132  -5.415  0.00  0.00    +0.015 A 
ATOM     29  C   UNL     1       6.256   0.156  -6.489  0.00  0.00    +0.008 A 
ATOM     30  C   UNL     1       7.241  -0.716  -6.816  0.00  0.00    +0.045 A 
ATOM     31  S   UNL     1       7.031  -1.989  -5.582  0.00  0.00    -0.098 S 
ENDBRANCH  11  27
TORSDOF 3
