REMARK  Name = ZINC01701394
REMARK  1 active torsions:
REMARK  status: ('A' for Active; 'I' for Inactive)
REMARK    1  A    between atoms: C_6  and  N_7
REMARK                            x       y       z     vdW  Elec       q    Type
REMARK                         _______ _______ _______ _____ _____    ______ ____
ROOT
ATOM      1  C   UNL     1       2.409   0.036   0.012  0.00  0.00    +0.034 A 
ATOM      2  C   UNL     1       1.227  -0.671   0.012  0.00  0.00    +0.017 A 
ATOM      3  C   UNL     1       0.002  -0.004   0.002  0.00  0.00    +0.019 A 
ATOM      4  C   UNL     1      -0.017   1.399   0.010  0.00  0.00    +0.034 A 
ATOM      5  C   UNL     1       1.200   2.103   0.002  0.00  0.00    +0.045 A 
ATOM      6  C   UNL     1       2.394   1.423   0.003  0.00  0.00    +0.127 A 
ATOM      7  C   UNL     1      -1.260   2.193   0.041  0.00  0.00    +0.179 C 
ATOM      8  O   UNL     1      -1.263   3.373  -0.244  0.00  0.00    -0.291 OA
ATOM      9  C   UNL     1      -2.522   1.485   0.440  0.00  0.00    +0.139 C 
ATOM     10  C   UNL     1      -2.633   0.286  -0.558  0.00  0.00    +0.095 C 
ATOM     11  S   UNL     1      -1.476  -0.975  -0.032  0.00  0.00    -0.115 S 
ATOM     12  C   UNL     1      -4.048  -0.096  -0.733  0.00  0.00    -0.004 C 
ATOM     13  C   UNL     1      -4.964   0.870  -0.589  0.00  0.00    +0.038 C 
ATOM     14  S   UNL     1      -4.039   2.342  -0.147  0.00  0.00    -0.120 S 
ENDROOT
BRANCH   6  15
ATOM     15  N   UNL     1       3.670   2.174  -0.006  0.00  0.00    +0.056 N 
ATOM     16  O   UNL     1       4.730   1.573  -0.005  0.00  0.00    -0.126 OA
ATOM     17  O   UNL     1       3.660   3.392  -0.014  0.00  0.00    -0.126 OA
ENDBRANCH   6  15
TORSDOF 1
