REMARK  Name = ZINC20693973
REMARK  6 active torsions:
REMARK  status: ('A' for Active; 'I' for Inactive)
REMARK    1  A    between atoms: C_1  and  O_2
REMARK    2  A    between atoms: O_2  and  C_3
REMARK    3  A    between atoms: C_7  and  C_10
REMARK    4  A    between atoms: C_8  and  O_9
REMARK    5  A    between atoms: C_20  and  N_27
REMARK    6  A    between atoms: C_23  and  O_26
REMARK                            x       y       z     vdW  Elec       q    Type
REMARK                         _______ _______ _______ _____ _____    ______ ____
ROOT
ATOM      1  C   UNL     1       2.587   4.191   0.198  0.00  0.00    +0.109 C 
ATOM      2  C   UNL     1       3.123   4.202  -1.219  0.00  0.00    +0.029 C 
ATOM      3  C   UNL     1       3.596   2.873  -1.819  0.00  0.00    +0.033 C 
ATOM      4  C   UNL     1       4.678   3.347  -2.793  0.00  0.00    -0.030 C 
ATOM      5  C   UNL     1       5.183   4.505  -2.380  0.00  0.00    -0.023 C 
ATOM      6  C   UNL     1       4.525   4.878  -1.104  0.00  0.00    +0.051 C 
ATOM      7  C   UNL     1       4.287   6.285  -0.711  0.00  0.00    +0.014 A 
ATOM      8  C   UNL     1       5.111   7.306  -1.139  0.00  0.00    +0.132 A 
ATOM      9  C   UNL     1       4.877   8.610  -0.746  0.00  0.00    +0.037 A 
ATOM     10  C   UNL     1       3.807   8.893   0.084  0.00  0.00    +0.049 A 
ATOM     11  C   UNL     1       2.973   7.879   0.512  0.00  0.00    +0.138 A 
ATOM     12  C   UNL     1       3.196   6.554   0.116  0.00  0.00    +0.076 A 
ATOM     13  N   UNL     1       2.291   5.587   0.558  0.00  0.00    -0.333 N 
ATOM     14  H   UNL     1       1.394   5.824   1.148  0.00  0.00    +0.147 HD
ENDROOT
BRANCH   1  19
ATOM     15  C   UNL     1      -0.309   2.160   1.546  0.00  0.00    +0.162 A 
ATOM     16  C   UNL     1      -0.986   1.845   0.379  0.00  0.00    +0.049 A 
ATOM     17  C   UNL     1      -0.512   2.297  -0.838  0.00  0.00    +0.004 A 
ATOM     18  C   UNL     1       0.644   3.053  -0.896  0.00  0.00    +0.009 A 
ATOM     19  C   UNL     1       1.328   3.366   0.264  0.00  0.00    +0.018 A 
ATOM     20  C   UNL     1       0.855   2.921   1.488  0.00  0.00    +0.163 A 
BRANCH  15  22
ATOM     21  C   UNL     1      -1.976   0.944   2.729  0.00  0.00    +0.277 C 
ATOM     22  O   UNL     1      -0.777   1.721   2.745  0.00  0.00    -0.491 OA
ENDBRANCH  15  22
BRANCH  20  23
ATOM     23  O   UNL     1       1.526   3.228   2.631  0.00  0.00    -0.503 OA
ATOM     24  H   UNL     1       2.446   3.830   2.583  0.00  0.00    +0.292 HD
ENDBRANCH  20  23
ENDBRANCH   1  19
BRANCH   8  25
ATOM     25  N   UNL     1       6.257   7.002  -2.025  0.00  0.00    +0.057 N 
ATOM     26  O   UNL     1       7.045   6.124  -1.723  0.00  0.00    -0.126 OA
ATOM     27  O   UNL     1       6.411   7.630  -3.058  0.00  0.00    -0.126 OA
ENDBRANCH   8  25
BRANCH  11  28
ATOM     28  O   UNL     1       1.925   8.169   1.328  0.00  0.00    -0.505 OA
ATOM     29  H   UNL     1       1.257   7.366   1.673  0.00  0.00    +0.292 HD
ENDBRANCH  11  28
TORSDOF 5
