REMARK  Name = ZINC66850728
REMARK  3 active torsions:
REMARK  status: ('A' for Active; 'I' for Inactive)
REMARK    1  A    between atoms: C_12  and  C_14
REMARK    2  A    between atoms: C_14  and  N_15
REMARK    3  A    between atoms: C_19  and  C_22
REMARK                            x       y       z     vdW  Elec       q    Type
REMARK                         _______ _______ _______ _____ _____    ______ ____
ROOT
ATOM      1  C   UNL     1       6.018  -0.905  -0.587  0.00  0.00    +0.181 C 
ENDROOT
BRANCH   1  13
ATOM      2  C   UNL     1      -0.017   1.378   0.010  0.00  0.00    +0.002 A 
ATOM      3  C   UNL     1       1.167   2.094   0.002  0.00  0.00    +0.002 A 
ATOM      4  C   UNL     1       2.381   1.430  -0.011  0.00  0.00    +0.025 A 
ATOM      5  C   UNL     1       2.406   0.047  -0.018  0.00  0.00    +0.058 A 
ATOM      6  C   UNL     1       1.213  -0.677  -0.014  0.00  0.00    +0.055 A 
ATOM      7  C   UNL     1       0.002  -0.004   0.002  0.00  0.00    +0.025 A 
ATOM      8  N   UNL     1       1.254  -2.076  -0.032  0.00  0.00    -0.283 N 
ATOM      9  C   UNL     1       2.399  -2.734   0.232  0.00  0.00    +0.235 C 
ATOM     10  O   UNL     1       2.422  -3.945   0.168  0.00  0.00    -0.274 OA
ATOM     11  C   UNL     1       3.652  -1.984   0.605  0.00  0.00    +0.209 C 
ATOM     12  N   UNL     1       3.622  -0.656  -0.025  0.00  0.00    -0.260 N 
ATOM     13  C   UNL     1       4.725  -0.130  -0.593  0.00  0.00    +0.234 C 
ATOM     14  O   UNL     1       4.678   0.967  -1.108  0.00  0.00    -0.274 OA
ATOM     15  H   UNL     1       0.450  -2.577  -0.237  0.00  0.00    +0.155 HD
ENDBRANCH   1  13
BRANCH   1  16
ATOM     16  N   UNL     1       7.061  -0.122  -1.262  0.00  0.00    -0.289 NA
ATOM     17  C   UNL     1       7.386   1.091  -0.498  0.00  0.00    +0.113 C 
ATOM     18  C   UNL     1       8.432   1.905  -1.265  0.00  0.00    +0.176 C 
ATOM     19  O   UNL     1       9.583   1.091  -1.501  0.00  0.00    -0.369 OA
ATOM     20  C   UNL     1       9.303  -0.100  -2.243  0.00  0.00    +0.162 C 
ATOM     21  C   UNL     1       8.266  -0.934  -1.487  0.00  0.00    +0.121 C 
BRANCH  20  22
ATOM     22  C   UNL     1      10.570  -0.899  -2.409  0.00  0.00    -0.015 A 
ATOM     23  C   UNL     1      11.461  -1.006  -1.357  0.00  0.00    +0.009 A 
ATOM     24  C   UNL     1      12.624  -1.738  -1.506  0.00  0.00    +0.041 A 
ATOM     25  C   UNL     1      12.897  -2.366  -2.709  0.00  0.00    +0.158 A 
ATOM     26  C   UNL     1      12.003  -2.259  -3.764  0.00  0.00    +0.159 A 
ATOM     27  C   UNL     1      10.837  -1.529  -3.610  0.00  0.00    +0.047 A 
ATOM     28  F   UNL     1      12.267  -2.871  -4.939  0.00  0.00    -0.202 F 
ATOM     29  F   UNL     1      14.033  -3.082  -2.856  0.00  0.00    -0.202 F 
ENDBRANCH  20  22
ENDBRANCH   1  16
TORSDOF 3
