REMARK  Name = ZINC12534004
REMARK  7 active torsions:
REMARK  status: ('A' for Active; 'I' for Inactive)
REMARK    1  A    between atoms: C_1  and  C_2
REMARK    2  A    between atoms: C_5  and  N_8
REMARK    3  A    between atoms: C_9  and  C_25
REMARK    4  A    between atoms: C_11  and  C_14
REMARK    5  A    between atoms: C_12  and  C_13
REMARK    6  A    between atoms: N_15  and  N_16
REMARK    7  A    between atoms: C_19  and  C_24
REMARK                            x       y       z     vdW  Elec       q    Type
REMARK                         _______ _______ _______ _____ _____    ______ ____
ROOT
ATOM      1  N   UNL     1       0.058  -4.172  -0.021  0.00  0.00    -0.317 N 
ATOM      2  C   UNL     1      -0.945  -4.966  -0.498  0.00  0.00    +0.022 A 
ATOM      3  C   UNL     1      -0.589  -6.255  -0.347  0.00  0.00    +0.032 A 
ATOM      4  C   UNL     1       0.739  -6.253   0.273  0.00  0.00    +0.016 A 
ATOM      5  C   UNL     1       1.081  -4.942   0.441  0.00  0.00    +0.030 A 
ATOM      6  C   UNL     1       2.368  -4.434   1.039  0.00  0.00    +0.064 C 
ATOM      7  C   UNL     1      -2.240  -4.478  -1.096  0.00  0.00    +0.064 C 
ENDROOT
BRANCH   1  12
ATOM      8  C   UNL     1      -0.018   1.503   0.010  0.00  0.00    +0.044 C 
ATOM      9  C   UNL     1       0.002  -0.004   0.002  0.00  0.00    -0.050 A 
ATOM     10  C   UNL     1       0.006  -0.688  -1.200  0.00  0.00    +0.005 A 
ATOM     11  C   UNL     1       0.024  -2.068  -1.211  0.00  0.00    +0.026 A 
ATOM     12  C   UNL     1       0.040  -2.771  -0.013  0.00  0.00    +0.047 A 
ATOM     13  C   UNL     1       0.036  -2.082   1.192  0.00  0.00    +0.026 A 
ATOM     14  C   UNL     1       0.023  -0.700   1.196  0.00  0.00    +0.005 A 
ENDBRANCH   1  12
BRANCH   4  15
ATOM     15  C   UNL     1       1.547  -7.431   0.636  0.00  0.00    +0.140 C 
ATOM     16  N   UNL     1       2.714  -7.275   1.183  0.00  0.00    -0.188 NA
BRANCH  16  17
ATOM     17  N   UNL     1       3.482  -8.394   1.528  0.00  0.00    -0.207 N 
ATOM     18  C   UNL     1       4.712  -8.229   2.105  0.00  0.00    +0.216 A 
ATOM     19  N   UNL     1       5.162  -7.011   2.335  0.00  0.00    -0.220 NA
ATOM     20  C   UNL     1       6.352  -6.806   2.894  0.00  0.00    +0.047 A 
ATOM     21  C   UNL     1       7.137  -7.867   3.241  0.00  0.00    +0.093 A 
ATOM     22  C   UNL     1       6.666  -9.170   3.000  0.00  0.00    +0.253 A 
ATOM     23  N   UNL     1       5.449  -9.326   2.436  0.00  0.00    -0.294 N 
ATOM     24  O   UNL     1       7.342 -10.141   3.298  0.00  0.00    -0.268 OA
ATOM     25  C   UNL     1       6.834  -5.400   3.143  0.00  0.00    +0.066 C 
ATOM     26  H   UNL     1       3.142  -9.287   1.359  0.00  0.00    +0.177 HD
ATOM     27  H   UNL     1       5.103 -10.215   2.264  0.00  0.00    +0.172 HD
ENDBRANCH  16  17
ENDBRANCH   4  15
TORSDOF 3
