REMARK  Name = ZINC33821716
REMARK  9 active torsions:
REMARK  status: ('A' for Active; 'I' for Inactive)
REMARK    1  A    between atoms: C_1  and  C_2
REMARK    2  A    between atoms: C_3  and  C_28
REMARK    3  A    between atoms: C_5  and  S_8
REMARK    4  A    between atoms: S_8  and  C_9
REMARK    5  A    between atoms: C_9  and  C_10
REMARK    6  A    between atoms: N_15  and  C_18
REMARK    7  A    between atoms: C_28  and  C_29
REMARK    8  A    between atoms: C_29  and  C_30
REMARK    9  A    between atoms: C_29  and  C_31
REMARK                            x       y       z     vdW  Elec       q    Type
REMARK                         _______ _______ _______ _____ _____    ______ ____
ROOT
ATOM      1  C   UNL     1      -1.095   0.734  -2.164  0.00  0.00    +0.226 C 
ATOM      2  O   UNL     1      -0.829  -0.447  -2.082  0.00  0.00    -0.275 OA
ATOM      3  N   UNL     1      -0.732   1.577  -1.178  0.00  0.00    -0.304 N 
ATOM      4  C   UNL     1      -0.013   1.086   0.008  0.00  0.00    +0.089 C 
ATOM      5  C   UNL     1      -0.738   1.584   1.263  0.00  0.00    -0.059 C 
ATOM      6  N   UNL     1      -0.895   3.043   1.186  0.00  0.00    +0.385 N 
ATOM      7  C   UNL     1      -1.732   3.434   0.044  0.00  0.00    -0.059 C 
ATOM      8  C   UNL     1      -1.043   3.012  -1.258  0.00  0.00    +0.089 C 
ATOM      9  H   UNL     1       0.104   3.478   1.030  0.00  0.00    -0.081 HD
ENDROOT
BRANCH   6  10
ATOM     10  C   UNL     1      -1.434   3.580   2.443  0.00  0.00    -0.065 C 
ATOM     11  C   UNL     1      -1.478   5.108   2.367  0.00  0.00    -0.009 C 
ATOM     12  C   UNL     1      -2.040   5.667   3.676  0.00  0.00    -0.012 C 
ATOM     13  C   UNL     1      -1.143   5.240   4.840  0.00  0.00    +0.007 C 
ATOM     14  C   UNL     1      -1.099   3.712   4.915  0.00  0.00    -0.012 C 
ATOM     15  C   UNL     1      -0.538   3.153   3.607  0.00  0.00    -0.009 C 
ATOM     16  C   UNL     1      -2.514   3.172   5.136  0.00  0.00    +0.007 C 
ATOM     17  C   UNL     1      -3.410   3.599   3.972  0.00  0.00    -0.012 C 
ATOM     18  C   UNL     1      -3.454   5.127   3.896  0.00  0.00    +0.007 C 
ATOM     19  C   UNL     1      -2.848   3.040   2.663  0.00  0.00    -0.009 C 
ENDBRANCH   6  10
BRANCH   1  20
ATOM     20  C   UNL     1      -1.831   1.258  -3.371  0.00  0.00    +0.173 C 
BRANCH  20  21
ATOM     21  S   UNL     1      -2.175  -0.107  -4.508  0.00  0.00    -0.079 S 
BRANCH  21  26
ATOM     22  C   UNL     1      -4.772   1.124  -8.987  0.00  0.00    +0.065 C 
ATOM     23  C   UNL     1      -4.088   1.242  -7.649  0.00  0.00    +0.036 A 
ATOM     24  C   UNL     1      -3.921   2.367  -6.933  0.00  0.00    +0.063 A 
ATOM     25  N   UNL     1      -3.265   2.054  -5.803  0.00  0.00    -0.227 NA
ATOM     26  C   UNL     1      -3.015   0.765  -5.787  0.00  0.00    +0.167 A 
ATOM     27  N   UNL     1      -3.511   0.219  -6.931  0.00  0.00    -0.337 N 
ATOM     28  H   UNL     1      -3.521  -0.806  -7.330  0.00  0.00    +0.168 HD
BRANCH  24  29
ATOM     29  C   UNL     1      -4.388   3.743  -7.330  0.00  0.00    +0.060 C 
BRANCH  29  30
ATOM     30  C   UNL     1      -3.287   4.445  -8.129  0.00  0.00    -0.011 C 
ATOM     31  C   UNL     1      -3.059   3.699  -9.445  0.00  0.00    +0.007 C 
ATOM     32  C   UNL     1      -3.711   5.885  -8.425  0.00  0.00    +0.007 C 
ENDBRANCH  29  30
ENDBRANCH  24  29
ENDBRANCH  21  26
ENDBRANCH  20  21
ENDBRANCH   1  20
TORSDOF 6
