REMARK  Name = ZINC08712843
REMARK  9 active torsions:
REMARK  status: ('A' for Active; 'I' for Inactive)
REMARK    1  A    between atoms: C_1  and  C_2
REMARK    2  A    between atoms: C_7  and  C_8
REMARK    3  A    between atoms: C_8  and  N_9
REMARK    4  A    between atoms: N_9  and  C_10
REMARK    5  A    between atoms: C_10  and  C_12
REMARK    6  A    between atoms: C_10  and  C_19
REMARK    7  A    between atoms: N_21  and  C_22
REMARK    8  A    between atoms: C_31  and  C_33
REMARK    9  A    between atoms: C_33  and  N_34
REMARK                            x       y       z     vdW  Elec       q    Type
REMARK                         _______ _______ _______ _____ _____    ______ ____
ROOT
ATOM      1  N   UNL     1       2.297   0.502  -1.629  0.00  0.00    -0.284 N 
ATOM      2  C   UNL     1       2.953  -0.672  -1.712  0.00  0.00    +0.234 C 
ATOM      3  O   UNL     1       2.983  -1.418  -0.756  0.00  0.00    -0.274 OA
ENDROOT
BRANCH   1   4
ATOM      4  C   UNL     1       2.330   1.441  -2.753  0.00  0.00    +0.144 C 
BRANCH   4  11
ATOM      5  C   UNL     1       5.189   1.537  -2.342  0.00  0.00    +0.044 C 
ATOM      6  C   UNL     1       4.353   2.772  -2.120  0.00  0.00    -0.046 A 
ATOM      7  C   UNL     1       4.955   3.950  -1.719  0.00  0.00    +0.003 A 
ATOM      8  C   UNL     1       4.189   5.082  -1.515  0.00  0.00    +0.000 A 
ATOM      9  C   UNL     1       2.821   5.036  -1.712  0.00  0.00    +0.000 A 
ATOM     10  C   UNL     1       2.220   3.859  -2.118  0.00  0.00    +0.005 A 
ATOM     11  C   UNL     1       2.986   2.725  -2.316  0.00  0.00    -0.027 A 
ENDBRANCH   4  11
ENDBRANCH   1   4
BRANCH   1  12
ATOM     12  C   UNL     1       1.551   0.841  -0.414  0.00  0.00    +0.166 C 
BRANCH  12  13
ATOM     13  C   UNL     1       0.239   1.530  -0.797  0.00  0.00    +0.023 C 
ATOM     14  C   UNL     1      -0.554   0.633  -1.755  0.00  0.00    +0.010 C 
ATOM     15  C   UNL     1      -1.770   1.425  -2.257  0.00  0.00    +0.027 C 
ATOM     16  C   UNL     1      -2.497   2.048  -1.102  0.00  0.00    -0.031 C 
ATOM     17  C   UNL     1      -1.987   2.202   0.078  0.00  0.00    -0.031 C 
ATOM     18  C   UNL     1      -0.602   1.768   0.459  0.00  0.00    +0.032 C 
ENDBRANCH  12  13
BRANCH  12  19
ATOM     19  C   UNL     1       2.376   1.769   0.440  0.00  0.00    +0.238 C 
ATOM     20  O   UNL     1       3.424   2.210   0.018  0.00  0.00    -0.273 OA
ATOM     21  N   UNL     1       1.948   2.109   1.672  0.00  0.00    -0.284 N 
ATOM     22  H   UNL     1       1.172   1.671   2.054  0.00  0.00    +0.155 HD
BRANCH  21  23
ATOM     23  C   UNL     1       2.626   3.095   2.401  0.00  0.00    +0.037 A 
ATOM     24  C   UNL     1       3.403   4.036   1.740  0.00  0.00    +0.027 A 
ATOM     25  C   UNL     1       4.069   5.011   2.457  0.00  0.00    +0.051 A 
ATOM     26  C   UNL     1       3.970   5.047   3.839  0.00  0.00    +0.166 A 
ATOM     27  C   UNL     1       3.196   4.101   4.506  0.00  0.00    +0.168 A 
ATOM     28  C   UNL     1       2.525   3.126   3.785  0.00  0.00    +0.072 A 
ATOM     29  O   UNL     1       3.262   4.348   5.846  0.00  0.00    -0.453 OA
ATOM     30  C   UNL     1       4.408   5.202   6.024  0.00  0.00    +0.466 C 
ATOM     31  O   UNL     1       4.522   5.888   4.763  0.00  0.00    -0.453 OA
ENDBRANCH  21  23
ENDBRANCH  12  19
ENDBRANCH   1  12
BRANCH   2  32
ATOM     32  C   UNL     1       3.648  -1.059  -2.992  0.00  0.00    +0.210 C 
BRANCH  32  33
ATOM     33  N   UNL     1       4.112  -2.445  -2.896  0.00  0.00    -0.255 N 
ATOM     34  C   UNL     1       5.364  -2.821  -2.416  0.00  0.00    +0.048 A 
ATOM     35  C   UNL     1       6.424  -2.069  -1.925  0.00  0.00    +0.024 A 
ATOM     36  C   UNL     1       7.579  -2.694  -1.495  0.00  0.00    +0.002 A 
ATOM     37  C   UNL     1       7.697  -4.073  -1.541  0.00  0.00    +0.001 A 
ATOM     38  C   UNL     1       6.654  -4.840  -2.019  0.00  0.00    +0.014 A 
ATOM     39  C   UNL     1       5.484  -4.220  -2.456  0.00  0.00    +0.048 A 
ATOM     40  C   UNL     1       4.217  -4.735  -3.009  0.00  0.00    +0.250 C 
ATOM     41  O   UNL     1       3.915  -5.893  -3.211  0.00  0.00    -0.282 OA
ATOM     42  C   UNL     1       3.386  -3.514  -3.266  0.00  0.00    +0.292 C 
ATOM     43  O   UNL     1       2.263  -3.494  -3.724  0.00  0.00    -0.266 OA
ENDBRANCH  32  33
ENDBRANCH   2  32
TORSDOF 8
