REMARK  Name = ZINC59293659
REMARK  8 active torsions:
REMARK  status: ('A' for Active; 'I' for Inactive)
REMARK    1  A    between atoms: C_1  and  C_2
REMARK    2  A    between atoms: C_2  and  O_3
REMARK    3  A    between atoms: O_3  and  C_4
REMARK    4  A    between atoms: C_4  and  C_6
REMARK    5  A    between atoms: C_7  and  N_30
REMARK    6  A    between atoms: C_19  and  C_28
REMARK    7  A    between atoms: C_20  and  C_22
REMARK    8  A    between atoms: C_23  and  C_27
REMARK                            x       y       z     vdW  Elec       q    Type
REMARK                         _______ _______ _______ _____ _____    ______ ____
ROOT
ATOM      1  C   UNL     1       1.506  -2.318  -2.422  0.00  0.00    +0.085 C 
ATOM      2  C   UNL     1       1.609  -3.667  -2.578  0.00  0.00    +0.106 C 
ATOM      3  N   UNL     1       2.191  -4.196  -3.717  0.00  0.00    -0.216 N 
ATOM      4  C   UNL     1       1.878  -5.444  -4.091  0.00  0.00    +0.258 C 
ATOM      5  O   UNL     1       1.265  -6.130  -3.296  0.00  0.00    -0.269 OA
ATOM      6  C   UNL     1       2.216  -6.046  -5.381  0.00  0.00    +0.051 A 
ATOM      7  C   UNL     1       1.484  -7.139  -5.860  0.00  0.00    +0.014 A 
ATOM      8  C   UNL     1       1.794  -7.694  -7.081  0.00  0.00    +0.001 A 
ATOM      9  C   UNL     1       2.827  -7.181  -7.850  0.00  0.00    +0.001 A 
ATOM     10  C   UNL     1       3.565  -6.107  -7.394  0.00  0.00    +0.016 A 
ATOM     11  C   UNL     1       3.271  -5.544  -6.163  0.00  0.00    +0.026 A 
ATOM     12  S   UNL     1       4.219  -4.193  -5.535  0.00  0.00    -0.072 S 
ATOM     13  C   UNL     1       3.074  -3.414  -4.438  0.00  0.00    +0.095 C 
ATOM     14  C   UNL     1       3.045  -2.059  -4.331  0.00  0.00    +0.070 C 
ATOM     15  C   UNL     1       1.978  -1.385  -3.505  0.00  0.00    +0.109 C 
ENDROOT
BRANCH  15  16
ATOM     16  C   UNL     1       0.815  -1.013  -4.387  0.00  0.00    +0.005 A 
ATOM     17  C   UNL     1       0.298   0.213  -4.647  0.00  0.00    -0.039 A 
ATOM     18  C   UNL     1      -0.785   0.317  -5.500  0.00  0.00    +0.011 A 
ATOM     19  C   UNL     1      -1.298  -0.810  -6.052  0.00  0.00    +0.046 A 
ATOM     20  S   UNL     1      -0.235  -2.072  -5.369  0.00  0.00    -0.100 S 
ATOM     21  C   UNL     1       0.894   1.444  -4.015  0.00  0.00    +0.044 C 
ENDBRANCH  15  16
BRANCH   2  22
ATOM     22  N   UNL     1       1.136  -4.505  -1.602  0.00  0.00    -0.345 N 
ATOM     23  H   UNL     1       0.305  -4.299  -1.147  0.00  0.00    +0.143 HD
ATOM     24  H   UNL     1       1.633  -5.304  -1.366  0.00  0.00    +0.143 HD
ENDBRANCH   2  22
BRANCH   1  25
ATOM     25  C   UNL     1       0.949  -1.795  -1.245  0.00  0.00    +0.339 C 
ATOM     26  O   UNL     1       0.665  -2.538  -0.322  0.00  0.00    -0.245 OA
BRANCH  25  27
ATOM     27  O   UNL     1       0.727  -0.467  -1.136  0.00  0.00    -0.462 OA
BRANCH  27  29
ATOM     28  C   UNL     1      -0.019   1.516   0.028  0.00  0.00    +0.048 C 
ATOM     29  C   UNL     1       0.158  -0.003   0.090  0.00  0.00    +0.229 C 
ENDBRANCH  27  29
ENDBRANCH  25  27
ENDBRANCH   1  25
BRANCH  14  30
ATOM     30  C   UNL     1       4.028  -1.269  -5.010  0.00  0.00    +0.098 C 
ATOM     31  N   UNL     1       4.808  -0.643  -5.548  0.00  0.00    -0.191 NA
ENDBRANCH  14  30
TORSDOF 6
