REMARK  Name = ZINC35768268
REMARK  7 active torsions:
REMARK  status: ('A' for Active; 'I' for Inactive)
REMARK    1  A    between atoms: C_1  and  C_2
REMARK    2  A    between atoms: C_5  and  N_9
REMARK    3  A    between atoms: C_6  and  C_8
REMARK    4  A    between atoms: C_19  and  C_23
REMARK    5  A    between atoms: N_25  and  C_26
REMARK    6  A    between atoms: C_26  and  C_27
REMARK    7  A    between atoms: C_27  and  C_28
REMARK                            x       y       z     vdW  Elec       q    Type
REMARK                         _______ _______ _______ _____ _____    ______ ____
ROOT
ATOM      1  N   UNL     1       0.047  -4.169  -0.021  0.00  0.00    -0.269 N 
ATOM      2  C   UNL     1      -0.041  -4.839  -1.187  0.00  0.00    +0.306 C 
ATOM      3  O   UNL     1      -0.044  -4.229  -2.239  0.00  0.00    -0.252 OA
ATOM      4  N   UNL     1      -0.124  -6.184  -1.187  0.00  0.00    -0.285 N 
ATOM      5  C   UNL     1      -0.225  -6.927   0.076  0.00  0.00    +0.109 C 
ATOM      6  C   UNL     1      -1.463  -7.830   0.018  0.00  0.00    +0.017 C 
ATOM      7  C   UNL     1      -1.405  -8.690  -1.236  0.00  0.00    -0.016 C 
ATOM      8  C   UNL     1      -1.354  -7.836  -2.495  0.00  0.00    +0.017 C 
ATOM      9  C   UNL     1      -0.122  -6.933  -2.451  0.00  0.00    +0.109 C 
ATOM     10  N   UNL     1      -0.273  -9.629  -1.185  0.00  0.00    +0.397 N 
ATOM     11  C   UNL     1      -0.616 -11.048  -1.330  0.00  0.00    +0.028 C 
ATOM     12  C   UNL     1      -2.030 -11.338  -0.746  0.00  0.00    +0.061 C 
ATOM     13  S   UNL     1      -2.878  -9.789  -1.297  0.00  0.00    -0.174 S 
ATOM     14  H   UNL     1       0.090  -4.657   0.817  0.00  0.00    +0.156 HD
ATOM     15  H   UNL     1       0.374  -9.384  -1.919  0.00  0.00    -0.083 HD
ATOM     16  H   UNL     1       0.197  -9.508  -0.300  0.00  0.00    -0.083 HD
ENDROOT
BRANCH   1  21
ATOM     17  C   UNL     1       0.167   1.503  -0.008  0.00  0.00    +0.044 C 
ATOM     18  C   UNL     1       0.135  -0.004  -0.011  0.00  0.00    -0.050 A 
ATOM     19  C   UNL     1       0.542  -0.700  -1.135  0.00  0.00    +0.005 A 
ATOM     20  C   UNL     1       0.514  -2.081  -1.141  0.00  0.00    +0.024 A 
ATOM     21  C   UNL     1       0.077  -2.770  -0.017  0.00  0.00    +0.038 A 
ATOM     22  C   UNL     1      -0.331  -2.068   1.109  0.00  0.00    -0.029 A 
ATOM     23  C   UNL     1      -0.295  -0.687   1.111  0.00  0.00    +0.008 A 
ATOM     24  C   UNL     1      -0.806  -2.812   2.330  0.00  0.00    +0.045 C 
ENDBRANCH   1  21
BRANCH  11  25
ATOM     25  C   UNL     1       0.403 -11.882  -0.598  0.00  0.00    +0.200 C 
ATOM     26  O   UNL     1       1.320 -11.345  -0.014  0.00  0.00    -0.278 OA
ATOM     27  N   UNL     1       0.294 -13.226  -0.591  0.00  0.00    -0.316 N 
ATOM     28  H   UNL     1      -0.440 -13.655  -1.057  0.00  0.00    +0.149 HD
BRANCH  27  29
ATOM     29  C   UNL     1       1.284 -14.037   0.122  0.00  0.00    +0.109 C 
BRANCH  29  30
ATOM     30  C   UNL     1       0.932 -15.518  -0.027  0.00  0.00    +0.055 C 
BRANCH  30  31
ATOM     31  C   UNL     1       1.951 -16.353   0.706  0.00  0.00    -0.027 A 
ATOM     32  C   UNL     1       3.034 -16.876   0.025  0.00  0.00    +0.006 A 
ATOM     33  C   UNL     1       3.969 -17.641   0.697  0.00  0.00    +0.020 A 
ATOM     34  C   UNL     1       3.821 -17.884   2.051  0.00  0.00    +0.042 A 
ATOM     35  C   UNL     1       2.738 -17.360   2.733  0.00  0.00    +0.040 A 
ATOM     36  C   UNL     1       1.805 -16.590   2.061  0.00  0.00    +0.046 A 
ATOM     37 CL   UNL     1       0.448 -15.927   2.917  0.00  0.00    -0.083 Cl
ATOM     38 CL   UNL     1       4.995 -18.846   2.894  0.00  0.00    -0.083 Cl
ENDBRANCH  30  31
ENDBRANCH  29  30
ENDBRANCH  27  29
ENDBRANCH  11  25
TORSDOF 5
