REMARK  Name = ZINC22260909
REMARK  5 active torsions:
REMARK  status: ('A' for Active; 'I' for Inactive)
REMARK    1  A    between atoms: C_1  and  C_2
REMARK    2  A    between atoms: C_3  and  C_34
REMARK    3  A    between atoms: C_10  and  C_12
REMARK    4  A    between atoms: C_12  and  N_13
REMARK    5  A    between atoms: C_29  and  C_33
REMARK                            x       y       z     vdW  Elec       q    Type
REMARK                         _______ _______ _______ _____ _____    ______ ____
ROOT
ATOM      1  N   UNL     1       0.097  -2.582   5.872  0.00  0.00    +0.386 N 
ATOM      2  C   UNL     1      -1.169  -1.846   5.973  0.00  0.00    -0.059 C 
ATOM      3  C   UNL     1      -1.130  -0.931   7.202  0.00  0.00    +0.088 C 
ATOM      4  N   UNL     1      -0.807  -1.748   8.381  0.00  0.00    -0.318 N 
ATOM      5  C   UNL     1       0.358  -2.643   8.307  0.00  0.00    +0.088 C 
ATOM      6  C   UNL     1       0.249  -3.477   7.026  0.00  0.00    -0.059 C 
ATOM      7  C   UNL     1      -1.577  -1.677   9.528  0.00  0.00    +0.133 A 
ATOM      8  C   UNL     1      -1.194  -0.827  10.603  0.00  0.00    +0.051 A 
ATOM      9  C   UNL     1      -0.028   0.053  10.704  0.00  0.00    -0.025 A 
ATOM     10  C   UNL     1       0.105   0.762  11.843  0.00  0.00    -0.004 A 
ATOM     11  S   UNL     1      -1.292   0.309  12.837  0.00  0.00    -0.073 S 
ATOM     12  C   UNL     1      -2.055  -0.836  11.718  0.00  0.00    +0.114 A 
ATOM     13  N   UNL     1      -3.137  -1.589  11.748  0.00  0.00    -0.228 NA
ATOM     14  C   UNL     1      -3.440  -2.359  10.721  0.00  0.00    +0.224 A 
ATOM     15  N   UNL     1      -2.683  -2.395   9.639  0.00  0.00    -0.220 NA
ATOM     16  C   UNL     1       1.201   1.724  12.191  0.00  0.00    +0.046 C 
ATOM     17  C   UNL     1       2.362   1.511  11.209  0.00  0.00    -0.009 C 
ATOM     18  C   UNL     1       1.799   1.466   9.786  0.00  0.00    +0.008 C 
ATOM     19  C   UNL     1       1.001   0.177   9.584  0.00  0.00    +0.037 C 
ATOM     20  C   UNL     1       3.358   2.665  11.334  0.00  0.00    +0.008 C 
ATOM     21  H   UNL     1       0.864  -1.927   5.853  0.00  0.00    -0.081 HD
ENDROOT
BRANCH   1  22
ATOM     22  C   UNL     1       0.102  -3.376   4.636  0.00  0.00    -0.003 C 
BRANCH  22  32
ATOM     23  C   UNL     1      -0.051   1.460  -0.009  0.00  0.00    +0.045 C 
ATOM     24  C   UNL     1      -0.018  -0.046  -0.009  0.00  0.00    -0.026 A 
ATOM     25  C   UNL     1      -0.009  -0.726  -1.166  0.00  0.00    -0.008 A 
ATOM     26  S   UNL     1       0.032  -2.430  -0.640  0.00  0.00    -0.075 S 
ATOM     27  C   UNL     1       0.036  -2.174   1.114  0.00  0.00    +0.092 A 
ATOM     28  C   UNL     1       0.012  -0.780   1.243  0.00  0.00    +0.075 A 
ATOM     29  C   UNL     1       0.014  -0.279   2.636  0.00  0.00    +0.282 A 
ATOM     30  O   UNL     1      -0.011   0.920   2.863  0.00  0.00    -0.265 OA
ATOM     31  N   UNL     1       0.044  -1.163   3.645  0.00  0.00    -0.197 NA
ATOM     32  C   UNL     1       0.070  -2.451   3.446  0.00  0.00    +0.095 A 
ATOM     33  N   UNL     1       0.059  -2.981   2.205  0.00  0.00    -0.339 N 
ATOM     34  C   UNL     1      -0.028  -0.181  -2.571  0.00  0.00    +0.052 C 
ATOM     35  H   UNL     1       0.080  -3.944   2.092  0.00  0.00    +0.167 HD
ENDBRANCH  22  32
ENDBRANCH   1  22
TORSDOF 2
