REMARK  Name = ZINC19643117
REMARK  8 active torsions:
REMARK  status: ('A' for Active; 'I' for Inactive)
REMARK    1  A    between atoms: C_1  and  C_2
REMARK    2  A    between atoms: C_2  and  O_3
REMARK    3  A    between atoms: O_3  and  C_4
REMARK    4  A    between atoms: C_6  and  C_12
REMARK    5  A    between atoms: C_9  and  O_10
REMARK    6  A    between atoms: C_14  and  C_17
REMARK    7  A    between atoms: C_17  and  S_18
REMARK    8  A    between atoms: S_18  and  C_19
REMARK                            x       y       z     vdW  Elec       q    Type
REMARK                         _______ _______ _______ _____ _____    ______ ____
ROOT
ATOM      1  C   UNL     1       1.043  -1.976   0.563  0.00  0.00    +0.109 A 
ATOM      2  N   UNL     1       1.003  -0.651   0.552  0.00  0.00    -0.243 NA
ATOM      3  C   UNL     1       0.002  -0.004   0.002  0.00  0.00    +0.059 A 
ATOM      4  C   UNL     1      -1.013  -0.695  -0.580  0.00  0.00    +0.071 A 
ATOM      5  S   UNL     1      -0.472  -2.377  -0.298  0.00  0.00    -0.075 S 
ENDROOT
BRANCH   1   8
ATOM      6  C   UNL     1       2.876  -5.104   1.554  0.00  0.00    +0.163 A 
ATOM      7  C   UNL     1       1.915  -4.263   1.023  0.00  0.00    +0.060 A 
ATOM      8  C   UNL     1       2.067  -2.879   1.128  0.00  0.00    +0.012 A 
ATOM      9  C   UNL     1       3.192  -2.350   1.763  0.00  0.00    +0.029 A 
ATOM     10  C   UNL     1       4.145  -3.195   2.296  0.00  0.00    +0.064 A 
ATOM     11  C   UNL     1       3.993  -4.571   2.191  0.00  0.00    +0.173 A 
ATOM     12 BR   UNL     1       5.664  -2.477   3.163  0.00  0.00    -0.046 Br
BRANCH  11  13
ATOM     13  O   UNL     1       4.937  -5.399   2.712  0.00  0.00    -0.503 OA
ATOM     14  H   UNL     1       5.820  -4.979   3.215  0.00  0.00    +0.292 HD
ENDBRANCH  11  13
BRANCH   6  15
ATOM     15  O   UNL     1       2.729  -6.452   1.453  0.00  0.00    -0.489 OA
BRANCH  15  17
ATOM     16  C   UNL     1       1.569  -8.460   0.771  0.00  0.00    +0.048 C 
ATOM     17  C   UNL     1       1.559  -6.930   0.786  0.00  0.00    +0.226 C 
ENDBRANCH  15  17
ENDBRANCH   6  15
ENDBRANCH   1   8
BRANCH   3  18
ATOM     18  C   UNL     1      -0.018   1.503   0.010  0.00  0.00    +0.132 C 
BRANCH  18  19
ATOM     19  S   UNL     1      -0.867   2.088   1.503  0.00  0.00    -0.091 S 
BRANCH  19  20
ATOM     20  C   UNL     1      -0.809   3.844   1.366  0.00  0.00    +0.160 A 
ATOM     21  N   UNL     1      -0.280   4.591   0.416  0.00  0.00    -0.133 NA
ATOM     22  N   UNL     1      -0.347   5.962   0.507  0.00  0.00    -0.125 NA
ATOM     23  C   UNL     1      -0.939   6.523   1.544  0.00  0.00    +0.180 A 
ATOM     24  S   UNL     1      -1.455   5.087   2.473  0.00  0.00    -0.025 S 
ATOM     25  N   UNL     1      -1.117   7.870   1.833  0.00  0.00    -0.336 N 
ATOM     26  H   UNL     1      -1.640   8.171   2.753  0.00  0.00    +0.144 HD
ATOM     27  H   UNL     1      -0.735   8.637   1.143  0.00  0.00    +0.144 HD
ENDBRANCH  19  20
ENDBRANCH  18  19
ENDBRANCH   3  18
TORSDOF 7
