REMARK  Name = ZINC38686974
REMARK  10 active torsions:
REMARK  status: ('A' for Active; 'I' for Inactive)
REMARK    1  A    between atoms: C_1  and  C_2
REMARK    2  A    between atoms: C_5  and  C_8
REMARK    3  A    between atoms: C_13  and  O_22
REMARK    4  A    between atoms: C_17  and  N_21
REMARK    5  A    between atoms: C_18  and  C_19
REMARK    6  A    between atoms: O_22  and  C_23
REMARK    7  A    between atoms: C_23  and  C_25
REMARK    8  A    between atoms: C_26  and  C_36
REMARK    9  A    between atoms: C_29  and  C_35
REMARK   10  A    between atoms: C_30  and  C_34
REMARK                            x       y       z     vdW  Elec       q    Type
REMARK                         _______ _______ _______ _____ _____    ______ ____
ROOT
ATOM      1  C   UNL     1       0.096  -4.312   0.017  0.00  0.00    +0.098 C 
ATOM      2  C   UNL     1      -1.137  -4.822   0.714  0.00  0.00    +0.008 A 
ATOM      3  C   UNL     1      -2.369  -4.697   0.096  0.00  0.00    +0.012 A 
ATOM      4  C   UNL     1      -3.511  -5.160   0.720  0.00  0.00    +0.047 A 
ATOM      5  C   UNL     1      -3.425  -5.752   1.972  0.00  0.00    +0.136 A 
ATOM      6  C   UNL     1      -2.194  -5.877   2.594  0.00  0.00    +0.093 A 
ATOM      7  C   UNL     1      -1.046  -5.412   1.965  0.00  0.00    +0.138 A 
ATOM      8  O   UNL     1       0.151  -5.543   2.587  0.00  0.00    -0.441 OA
ATOM      9  C   UNL     1       1.288  -5.469   1.874  0.00  0.00    +0.199 C 
ATOM     10  C   UNL     1       1.327  -4.897   0.650  0.00  0.00    +0.098 C 
ENDROOT
BRANCH   1  15
ATOM     11  C   UNL     1       0.282   1.449   0.429  0.00  0.00    +0.044 C 
ATOM     12  C   UNL     1       0.234  -0.053   0.322  0.00  0.00    -0.050 A 
ATOM     13  C   UNL     1       0.185  -0.656  -0.922  0.00  0.00    +0.003 A 
ATOM     14  C   UNL     1       0.141  -2.034  -1.020  0.00  0.00    +0.005 A 
ATOM     15  C   UNL     1       0.145  -2.810   0.124  0.00  0.00    -0.035 A 
ATOM     16  C   UNL     1       0.195  -2.207   1.367  0.00  0.00    +0.005 A 
ATOM     17  C   UNL     1       0.243  -0.829   1.466  0.00  0.00    +0.003 A 
ENDBRANCH   1  15
BRANCH   9  18
ATOM     18  N   UNL     1       2.442  -5.988   2.405  0.00  0.00    -0.328 N 
ATOM     19  H   UNL     1       2.429  -6.400   3.283  0.00  0.00    +0.145 HD
ATOM     20  H   UNL     1       3.271  -5.942   1.903  0.00  0.00    +0.145 HD
ENDBRANCH   9  18
BRANCH  10  21
ATOM     21  C   UNL     1       2.571  -4.849  -0.057  0.00  0.00    +0.101 C 
ATOM     22  N   UNL     1       3.558  -4.811  -0.619  0.00  0.00    -0.191 NA
ENDBRANCH  10  21
BRANCH   5  23
ATOM     23  O   UNL     1      -4.548  -6.207   2.588  0.00  0.00    -0.420 OA
BRANCH  23  24
ATOM     24  C   UNL     1      -4.981  -5.549   3.683  0.00  0.00    +0.380 C 
ATOM     25  O   UNL     1      -4.433  -4.521   4.031  0.00  0.00    -0.241 OA
BRANCH  24  26
ATOM     26  C   UNL     1      -6.113  -6.075   4.455  0.00  0.00    +0.216 A 
ATOM     27  C   UNL     1      -6.637  -5.497   5.568  0.00  0.00    +0.010 A 
ATOM     28  C   UNL     1      -7.737  -6.361   5.994  0.00  0.00    +0.024 A 
ATOM     29  C   UNL     1      -8.654  -6.322   7.047  0.00  0.00    +0.015 A 
ATOM     30  C   UNL     1      -9.586  -7.313   7.170  0.00  0.00    -0.047 A 
ATOM     31  C   UNL     1      -9.628  -8.357   6.256  0.00  0.00    -0.044 A 
ATOM     32  C   UNL     1      -8.732  -8.414   5.210  0.00  0.00    +0.050 A 
ATOM     33  C   UNL     1      -7.774  -7.417   5.064  0.00  0.00    +0.137 A 
ATOM     34  O   UNL     1      -6.795  -7.203   4.164  0.00  0.00    -0.448 OA
ATOM     35  C   UNL     1     -10.663  -9.441   6.409  0.00  0.00    +0.044 C 
ATOM     36  C   UNL     1     -10.575  -7.274   8.306  0.00  0.00    +0.044 C 
ATOM     37  C   UNL     1      -6.176  -4.224   6.230  0.00  0.00    +0.048 C 
ENDBRANCH  24  26
ENDBRANCH  23  24
ENDBRANCH   5  23
TORSDOF 6
