REMARK  Name = ZINC59424248
REMARK  10 active torsions:
REMARK  status: ('A' for Active; 'I' for Inactive)
REMARK    1  A    between atoms: C_1  and  C_2
REMARK    2  A    between atoms: C_5  and  C_8
REMARK    3  A    between atoms: C_8  and  C_10
REMARK    4  A    between atoms: N_13  and  C_16
REMARK    5  A    between atoms: C_16  and  C_17
REMARK    6  A    between atoms: N_19  and  C_20
REMARK    7  A    between atoms: C_20  and  C_22
REMARK    8  A    between atoms: C_20  and  C_33
REMARK    9  A    between atoms: C_33  and  C_34
REMARK   10  A    between atoms: C_33  and  C_35
REMARK                            x       y       z     vdW  Elec       q    Type
REMARK                         _______ _______ _______ _____ _____    ______ ____
ROOT
ATOM      1  C   UNL     1       0.615  -9.547   3.668  0.00  0.00    +0.197 C 
ATOM      2  O   UNL     1       0.251  -9.828   2.545  0.00  0.00    -0.278 OA
ATOM      3  N   UNL     1       0.612 -10.488   4.632  0.00  0.00    -0.310 N 
ATOM      4  H   UNL     1       0.903 -10.263   5.530  0.00  0.00    +0.149 HD
ENDROOT
BRANCH   1   5
ATOM      5  C   UNL     1       1.070  -8.145   3.983  0.00  0.00    +0.019 C 
BRANCH   5   9
ATOM      6  C   UNL     1       0.075  -5.006   1.280  0.00  0.00    +0.057 C 
ATOM      7  C   UNL     1       1.518  -5.146   1.773  0.00  0.00    -0.007 C 
ATOM      8  C   UNL     1       1.535  -5.987   3.051  0.00  0.00    -0.077 C 
ATOM      9  N   UNL     1       0.980  -7.317   2.774  0.00  0.00    +0.385 N 
ATOM     10  C   UNL     1      -0.426  -7.196   2.369  0.00  0.00    -0.077 C 
ATOM     11  C   UNL     1      -0.518  -6.401   1.065  0.00  0.00    -0.007 C 
ATOM     12  H   UNL     1       1.506  -7.751   2.031  0.00  0.00    -0.081 HD
BRANCH   6  13
ATOM     13  C   UNL     1       0.058  -4.245  -0.021  0.00  0.00    +0.166 C 
ATOM     14  O   UNL     1       0.060  -4.846  -1.075  0.00  0.00    -0.292 OA
BRANCH  13  19
ATOM     15  C   UNL     1      -0.018   1.503   0.010  0.00  0.00    +0.044 C 
ATOM     16  C   UNL     1       0.002  -0.004   0.002  0.00  0.00    -0.050 A 
ATOM     17  C   UNL     1       0.006  -0.686  -1.202  0.00  0.00    +0.004 A 
ATOM     18  C   UNL     1       0.024  -2.064  -1.218  0.00  0.00    +0.011 A 
ATOM     19  C   UNL     1       0.039  -2.774  -0.013  0.00  0.00    +0.018 A 
ATOM     20  C   UNL     1       0.036  -2.078   1.200  0.00  0.00    +0.011 A 
ATOM     21  C   UNL     1       0.023  -0.699   1.199  0.00  0.00    +0.004 A 
ENDBRANCH  13  19
ENDBRANCH   6  13
ENDBRANCH   5   9
ENDBRANCH   1   5
BRANCH   3  22
ATOM     22  C   UNL     1       0.170 -11.850   4.325  0.00  0.00    +0.106 C 
BRANCH  22  23
ATOM     23  C   UNL     1       0.802 -12.815   5.295  0.00  0.00    -0.023 A 
ATOM     24  C   UNL     1       0.918 -12.473   6.630  0.00  0.00    +0.009 A 
ATOM     25  C   UNL     1       1.497 -13.353   7.526  0.00  0.00    +0.050 A 
ATOM     26  C   UNL     1       1.961 -14.580   7.081  0.00  0.00    +0.162 A 
ATOM     27  C   UNL     1       1.845 -14.923   5.742  0.00  0.00    +0.162 A 
ATOM     28  C   UNL     1       1.260 -14.041   4.848  0.00  0.00    +0.055 A 
ATOM     29  O   UNL     1       2.304 -16.134   5.314  0.00  0.00    -0.488 OA
ATOM     30  C   UNL     1       3.721 -16.312   5.345  0.00  0.00    +0.232 C 
ATOM     31  C   UNL     1       4.180 -16.751   6.726  0.00  0.00    +0.082 C 
ATOM     32  C   UNL     1       3.933 -15.687   7.784  0.00  0.00    +0.232 C 
ATOM     33  O   UNL     1       2.533 -15.458   7.955  0.00  0.00    -0.488 OA
ENDBRANCH  22  23
BRANCH  22  34
ATOM     34  C   UNL     1      -1.353 -11.931   4.446  0.00  0.00    +0.008 C 
ATOM     35  C   UNL     1      -1.996 -10.952   3.461  0.00  0.00    +0.009 C 
ATOM     36  C   UNL     1      -1.816 -13.354   4.125  0.00  0.00    +0.009 C 
ENDBRANCH  22  34
ENDBRANCH   3  22
TORSDOF 7
