REMARK  Name = ZINC02291835
REMARK  10 active torsions:
REMARK  status: ('A' for Active; 'I' for Inactive)
REMARK    1  A    between atoms: C_1  and  C_2
REMARK    2  A    between atoms: C_2  and  C_3
REMARK    3  A    between atoms: C_3  and  C_4
REMARK    4  A    between atoms: C_4  and  O_5
REMARK    5  A    between atoms: O_5  and  C_6
REMARK    6  A    between atoms: C_9  and  N_12
REMARK    7  A    between atoms: C_13  and  N_38
REMARK    8  A    between atoms: C_14  and  C_25
REMARK    9  A    between atoms: N_27  and  C_28
REMARK   10  A    between atoms: C_28  and  C_29
REMARK                            x       y       z     vdW  Elec       q    Type
REMARK                         _______ _______ _______ _____ _____    ______ ____
ROOT
ATOM      1  N   UNL     1       0.907   3.408   0.012  0.00  0.00    -0.280 N 
ATOM      2  C   UNL     1      -0.446   3.567   0.026  0.00  0.00    +0.117 A 
ATOM      3  C   UNL     1      -1.081   2.330   0.031  0.00  0.00    +0.104 A 
ATOM      4  C   UNL     1      -0.016   1.314   0.009  0.00  0.00    +0.123 A 
ATOM      5  C   UNL     1       1.241   2.068   0.001  0.00  0.00    +0.166 A 
ATOM      6  N   UNL     1       2.385   1.418  -0.012  0.00  0.00    -0.225 NA
ATOM      7  C   UNL     1       2.392   0.079  -0.020  0.00  0.00    +0.092 A 
ATOM      8  C   UNL     1       3.611  -0.624  -0.035  0.00  0.00    +0.030 A 
ATOM      9  C   UNL     1       3.608  -1.984  -0.043  0.00  0.00    +0.002 A 
ATOM     10  C   UNL     1       2.412  -2.699  -0.035  0.00  0.00    +0.002 A 
ATOM     11  C   UNL     1       1.213  -2.055  -0.021  0.00  0.00    +0.030 A 
ATOM     12  C   UNL     1       1.175  -0.648  -0.013  0.00  0.00    +0.090 A 
ATOM     13  N   UNL     1       0.002  -0.004   0.002  0.00  0.00    -0.241 NA
ENDROOT
BRANCH   1  17
ATOM     14  C   UNL     1       3.663   6.539   0.003  0.00  0.00    +0.121 A 
ATOM     15  C   UNL     1       2.813   6.361  -1.078  0.00  0.00    +0.047 A 
ATOM     16  C   UNL     1       1.901   5.324  -1.076  0.00  0.00    +0.030 A 
ATOM     17  C   UNL     1       1.834   4.461   0.009  0.00  0.00    +0.050 A 
ATOM     18  C   UNL     1       2.681   4.644   1.094  0.00  0.00    +0.030 A 
ATOM     19  C   UNL     1       3.597   5.677   1.088  0.00  0.00    +0.047 A 
BRANCH  14  20
ATOM     20  O   UNL     1       4.561   7.560   0.001  0.00  0.00    -0.492 OA
BRANCH  20  21
ATOM     21  C   UNL     1       5.405   7.685   1.147  0.00  0.00    +0.229 C 
BRANCH  21  22
ATOM     22  C   UNL     1       6.342   8.881   0.964  0.00  0.00    +0.041 C 
BRANCH  22  24
ATOM     23  C   UNL     1       8.181  10.210   2.007  0.00  0.00    +0.004 C 
ATOM     24  C   UNL     1       7.245   9.014   2.191  0.00  0.00    -0.000 C 
ENDBRANCH  22  24
ENDBRANCH  21  22
ENDBRANCH  20  21
ENDBRANCH  14  20
ENDBRANCH   1  17
BRANCH   3  25
ATOM     25  C   UNL     1      -2.521   2.086   0.050  0.00  0.00    +0.250 C 
ATOM     26  O   UNL     1      -3.106   1.978   1.113  0.00  0.00    -0.270 OA
ATOM     27  N   UNL     1      -3.203   1.981  -1.108  0.00  0.00    -0.307 N 
ATOM     28  H   UNL     1      -2.737   2.067  -1.954  0.00  0.00    +0.149 HD
BRANCH  27  29
ATOM     29  C   UNL     1      -4.647   1.736  -1.088  0.00  0.00    +0.140 C 
BRANCH  29  30
ATOM     30  C   UNL     1      -5.163   1.661  -2.502  0.00  0.00    -0.027 A 
ATOM     31  C   UNL     1      -5.604   2.807  -3.137  0.00  0.00    +0.009 A 
ATOM     32  C   UNL     1      -6.073   2.744  -4.436  0.00  0.00    +0.050 A 
ATOM     33  C   UNL     1      -6.113   1.528  -5.100  0.00  0.00    +0.166 A 
ATOM     34  C   UNL     1      -5.674   0.373  -4.458  0.00  0.00    +0.167 A 
ATOM     35  C   UNL     1      -5.199   0.445  -3.159  0.00  0.00    +0.054 A 
ATOM     36  O   UNL     1      -5.813  -0.681  -5.314  0.00  0.00    -0.453 OA
ATOM     37  C   UNL     1      -6.720  -0.229  -6.337  0.00  0.00    +0.466 C 
ATOM     38  O   UNL     1      -6.528   1.198  -6.358  0.00  0.00    -0.453 OA
ENDBRANCH  29  30
ENDBRANCH  27  29
ENDBRANCH   3  25
BRANCH   2  39
ATOM     39  N   UNL     1      -1.091   4.777   0.039  0.00  0.00    -0.343 N 
ATOM     40  H   UNL     1      -0.578   5.600   0.038  0.00  0.00    +0.144 HD
ATOM     41  H   UNL     1      -2.061   4.810   0.049  0.00  0.00    +0.144 HD
ENDBRANCH   2  39
TORSDOF 9
