REMARK  Name = ZINC03295618
REMARK  10 active torsions:
REMARK  status: ('A' for Active; 'I' for Inactive)
REMARK    1  A    between atoms: C_1  and  C_2
REMARK    2  A    between atoms: C_5  and  C_8
REMARK    3  A    between atoms: C_11  and  S_14
REMARK    4  A    between atoms: N_12  and  N_13
REMARK    5  A    between atoms: S_14  and  C_15
REMARK    6  A    between atoms: C_15  and  C_16
REMARK    7  A    between atoms: N_18  and  C_19
REMARK    8  A    between atoms: C_20  and  C_29
REMARK    9  A    between atoms: C_29  and  O_31
REMARK   10  A    between atoms: O_31  and  C_32
REMARK                            x       y       z     vdW  Elec       q    Type
REMARK                         _______ _______ _______ _____ _____    ______ ____
ROOT
ATOM      1  C   UNL     1       6.270  -3.361   1.355  0.00  0.00    +0.228 C 
ATOM      2  O   UNL     1       6.436  -2.541   0.477  0.00  0.00    -0.275 OA
ATOM      3  N   UNL     1       5.022  -3.703   1.732  0.00  0.00    -0.279 N 
ATOM      4  H   UNL     1       4.890  -4.359   2.434  0.00  0.00    +0.155 HD
ENDROOT
BRANCH   3   5
ATOM      5  C   UNL     1       3.928  -3.118   1.115  0.00  0.00    +0.086 A 
ATOM      6  C   UNL     1       2.580  -3.337   1.361  0.00  0.00    +0.091 A 
ATOM      7  C   UNL     1       1.616  -2.585   0.567  0.00  0.00    -0.021 A 
ATOM      8  C   UNL     1       2.158  -1.748  -0.343  0.00  0.00    -0.004 A 
ATOM      9  S   UNL     1       3.909  -1.936  -0.151  0.00  0.00    -0.077 S 
ATOM     10  C   UNL     1       1.440  -0.866  -1.316  0.00  0.00    +0.043 C 
ATOM     11  C   UNL     1       0.352  -0.076  -0.576  0.00  0.00    +0.005 C 
ATOM     12  C   UNL     1      -0.935  -0.895  -0.593  0.00  0.00    +0.001 C 
ATOM     13  C   UNL     1      -0.610  -2.386  -0.544  0.00  0.00    +0.005 C 
ATOM     14  C   UNL     1       0.111  -2.732   0.754  0.00  0.00    +0.037 C 
BRANCH   6  15
ATOM     15  C   UNL     1       2.142  -4.290   2.382  0.00  0.00    +0.342 C 
ATOM     16  O   UNL     1       1.953  -5.455   2.086  0.00  0.00    -0.245 OA
BRANCH  15  17
ATOM     17  O   UNL     1       1.947  -3.877   3.651  0.00  0.00    -0.464 OA
ATOM     18  C   UNL     1       1.512  -4.876   4.610  0.00  0.00    +0.280 C 
ENDBRANCH  15  17
ENDBRANCH   6  15
ENDBRANCH   3   5
BRANCH   1  19
ATOM     19  C   UNL     1       7.460  -3.997   2.026  0.00  0.00    +0.173 C 
BRANCH  19  20
ATOM     20  S   UNL     1       8.984  -3.336   1.306  0.00  0.00    -0.075 S 
BRANCH  20  24
ATOM     21  C   UNL     1      12.050  -5.002   3.063  0.00  0.00    +0.182 A 
ATOM     22  N   UNL     1      11.031  -5.562   3.671  0.00  0.00    -0.127 NA
ATOM     23  N   UNL     1       9.929  -5.102   3.195  0.00  0.00    -0.121 NA
ATOM     24  C   UNL     1      10.178  -4.226   2.247  0.00  0.00    +0.209 A 
ATOM     25  N   UNL     1      11.536  -4.129   2.132  0.00  0.00    -0.224 N 
BRANCH  21  30
ATOM     26  C   UNL     1      17.622  -6.008   4.095  0.00  0.00    +0.044 C 
ATOM     27  C   UNL     1      16.163  -5.745   3.825  0.00  0.00    -0.050 A 
ATOM     28  C   UNL     1      15.785  -4.610   3.129  0.00  0.00    +0.004 A 
ATOM     29  C   UNL     1      14.451  -4.362   2.879  0.00  0.00    +0.012 A 
ATOM     30  C   UNL     1      13.482  -5.261   3.328  0.00  0.00    +0.021 A 
ATOM     31  C   UNL     1      13.869  -6.401   4.034  0.00  0.00    +0.012 A 
ATOM     32  C   UNL     1      15.207  -6.639   4.273  0.00  0.00    +0.004 A 
ENDBRANCH  21  30
BRANCH  25  33
ATOM     33  N   UNL     1      12.236  -3.331   1.273  0.00  0.00    -0.295 N 
ATOM     34  H   UNL     1      12.507  -2.468   1.720  0.00  0.00    +0.163 HD
ATOM     35  H   UNL     1      13.042  -3.816   0.905  0.00  0.00    +0.163 HD
ENDBRANCH  25  33
ENDBRANCH  20  24
ENDBRANCH  19  20
ENDBRANCH   1  19
TORSDOF 8
