REMARK  Name = ZINC35746339
REMARK  12 active torsions:
REMARK  status: ('A' for Active; 'I' for Inactive)
REMARK    1  A    between atoms: C_1  and  C_2
REMARK    2  A    between atoms: C_2  and  C_3
REMARK    3  A    between atoms: C_2  and  O_4
REMARK    4  A    between atoms: O_4  and  C_5
REMARK    5  A    between atoms: C_5  and  C_6
REMARK    6  A    between atoms: C_6  and  C_8
REMARK    7  A    between atoms: C_6  and  O_32
REMARK    8  A    between atoms: C_8  and  N_9
REMARK    9  A    between atoms: N_9  and  C_10
REMARK   10  A    between atoms: N_9  and  C_29
REMARK   11  A    between atoms: C_10  and  C_11
REMARK   12  A    between atoms: C_17  and  C_22
REMARK                            x       y       z     vdW  Elec       q    Type
REMARK                         _______ _______ _______ _____ _____    ______ ____
ROOT
ATOM      1  C   UNL     1      -7.331  -2.156  -3.641  0.00  0.00    +0.094 A 
ATOM      2  N   UNL     1      -7.999  -2.328  -4.811  0.00  0.00    -0.312 N 
ATOM      3  H   UNL     1      -7.525  -2.213  -5.649  0.00  0.00    +0.170 HD
ATOM      4  C   UNL     1      -9.305  -2.654  -4.829  0.00  0.00    +0.260 A 
ATOM      5  O   UNL     1      -9.890  -2.804  -5.888  0.00  0.00    -0.267 OA
ATOM      6  C   UNL     1      -9.996  -2.821  -3.587  0.00  0.00    +0.080 A 
ATOM      7  C   UNL     1     -11.391  -3.169  -3.347  0.00  0.00    +0.004 A 
ATOM      8  C   UNL     1     -11.826  -3.273  -2.068  0.00  0.00    +0.056 A 
ATOM      9  S   UNL     1     -10.371  -2.906  -1.106  0.00  0.00    -0.076 S 
ATOM     10  C   UNL     1      -9.224  -2.624  -2.430  0.00  0.00    +0.116 A 
ATOM     11  N   UNL     1      -7.933  -2.308  -2.491  0.00  0.00    -0.229 NA
ENDROOT
BRANCH   7  12
ATOM     12  C   UNL     1     -12.316  -3.404  -4.481  0.00  0.00    -0.015 A 
ATOM     13  C   UNL     1     -12.397  -2.479  -5.521  0.00  0.00    +0.008 A 
ATOM     14  C   UNL     1     -13.261  -2.703  -6.574  0.00  0.00    +0.002 A 
ATOM     15  C   UNL     1     -14.046  -3.841  -6.600  0.00  0.00    +0.020 A 
ATOM     16  C   UNL     1     -13.970  -4.763  -5.570  0.00  0.00    +0.042 A 
ATOM     17  C   UNL     1     -13.105  -4.553  -4.514  0.00  0.00    +0.028 A 
ATOM     18 CL   UNL     1     -14.959  -6.189  -5.609  0.00  0.00    -0.084 Cl
ENDBRANCH   7  12
BRANCH   1  19
ATOM     19  C   UNL     1      -5.869  -1.792  -3.669  0.00  0.00    -0.003 C 
BRANCH  19  20
ATOM     20  N   UNL     1      -5.369  -1.668  -2.293  0.00  0.00    +0.388 N 
ATOM     21  H   UNL     1      -5.939  -1.008  -1.786  0.00  0.00    -0.081 HD
BRANCH  20  22
ATOM     22  C   UNL     1      -5.430  -2.978  -1.631  0.00  0.00    -0.068 C 
ATOM     23  C   UNL     1      -6.350  -3.112  -0.415  0.00  0.00    -0.017 C 
ATOM     24  C   UNL     1      -4.831  -3.088  -0.227  0.00  0.00    -0.017 C 
ENDBRANCH  20  22
BRANCH  20  25
ATOM     25  C   UNL     1      -3.978  -1.197  -2.319  0.00  0.00    -0.044 C 
BRANCH  25  26
ATOM     26  C   UNL     1      -3.933   0.229  -2.873  0.00  0.00    +0.124 C 
BRANCH  26  27
ATOM     27  O   UNL     1      -4.702   1.091  -2.033  0.00  0.00    -0.391 OA
ATOM     28  H   UNL     1      -4.391   1.130  -1.118  0.00  0.00    +0.210 HD
ENDBRANCH  26  27
BRANCH  26  29
ATOM     29  C   UNL     1      -2.482   0.715  -2.911  0.00  0.00    +0.189 C 
BRANCH  29  30
ATOM     30  O   UNL     1      -2.427   2.000  -3.535  0.00  0.00    -0.375 OA
BRANCH  30  32
ATOM     31  C   UNL     1      -0.462   2.111  -4.937  0.00  0.00    +0.037 C 
ATOM     32  C   UNL     1      -1.110   2.547  -3.622  0.00  0.00    +0.112 C 
ATOM     33  C   UNL     1      -1.189   4.074  -3.575  0.00  0.00    +0.037 C 
ENDBRANCH  30  32
ENDBRANCH  29  30
ENDBRANCH  26  29
ENDBRANCH  25  26
ENDBRANCH  20  25
ENDBRANCH  19  20
ENDBRANCH   1  19
TORSDOF 10
