REMARK  Name = ZINC20727096
REMARK  15 active torsions:
REMARK  status: ('A' for Active; 'I' for Inactive)
REMARK    1  A    between atoms: C_1  and  C_2
REMARK    2  A    between atoms: C_2  and  C_3
REMARK    3  A    between atoms: C_2  and  C_4
REMARK    4  A    between atoms: C_4  and  N_5
REMARK    5  A    between atoms: N_5  and  C_6
REMARK    6  A    between atoms: N_5  and  C_32
REMARK    7  A    between atoms: C_6  and  C_7
REMARK    8  A    between atoms: C_7  and  C_8
REMARK    9  A    between atoms: C_8  and  N_9
REMARK   10  A    between atoms: C_10  and  C_12
REMARK   11  A    between atoms: C_12  and  N_13
REMARK   12  A    between atoms: C_22  and  C_23
REMARK   13  A    between atoms: C_32  and  C_33
REMARK   14  A    between atoms: C_33  and  C_34
REMARK   15  A    between atoms: C_33  and  C_35
REMARK                            x       y       z     vdW  Elec       q    Type
REMARK                         _______ _______ _______ _____ _____    ______ ____
ROOT
ATOM      1  N   UNL     1      -0.197   2.329   5.022  0.00  0.00    -0.257 N 
ATOM      2  C   UNL     1      -0.642   1.055   5.349  0.00  0.00    +0.051 A 
ATOM      3  C   UNL     1      -1.361   0.337   4.392  0.00  0.00    +0.024 A 
ATOM      4  C   UNL     1      -1.818  -0.934   4.670  0.00  0.00    +0.002 A 
ATOM      5  C   UNL     1      -1.566  -1.518   5.899  0.00  0.00    +0.001 A 
ATOM      6  C   UNL     1      -0.853  -0.823   6.856  0.00  0.00    +0.017 A 
ATOM      7  C   UNL     1      -0.392   0.455   6.583  0.00  0.00    +0.034 A 
ATOM      8  S   UNL     1       0.519   1.345   7.809  0.00  0.00    -0.082 S 
ATOM      9  C   UNL     1       1.477   2.448   6.802  0.00  0.00    +0.076 C 
ATOM     10  C   UNL     1       2.760   2.763   7.104  0.00  0.00    +0.028 C 
ATOM     11  C   UNL     1       0.793   3.004   5.614  0.00  0.00    +0.258 C 
ATOM     12  O   UNL     1       1.135   4.084   5.171  0.00  0.00    -0.269 OA
ENDROOT
BRANCH  10  13
ATOM     13  C   UNL     1       3.351   2.304   8.370  0.00  0.00    -0.022 A 
ATOM     14  C   UNL     1       4.710   1.978   8.435  0.00  0.00    +0.008 A 
ATOM     15  C   UNL     1       5.257   1.550   9.625  0.00  0.00    +0.002 A 
ATOM     16  C   UNL     1       4.466   1.441  10.755  0.00  0.00    +0.020 A 
ATOM     17  C   UNL     1       3.120   1.762  10.701  0.00  0.00    +0.042 A 
ATOM     18  C   UNL     1       2.558   2.197   9.518  0.00  0.00    +0.028 A 
ATOM     19 CL   UNL     1       2.138   1.621  12.126  0.00  0.00    -0.084 Cl
ENDBRANCH  10  13
BRANCH   1  20
ATOM     20  C   UNL     1      -0.887   3.004   3.920  0.00  0.00    +0.209 C 
BRANCH  20  22
ATOM     21  N   UNL     1      -0.658   3.196   1.465  0.00  0.00    -0.314 N 
ATOM     22  C   UNL     1      -0.195   2.681   2.621  0.00  0.00    +0.231 C 
ATOM     23  O   UNL     1       0.779   1.958   2.616  0.00  0.00    -0.274 OA
ATOM     24  H   UNL     1      -1.541   3.852   1.469  0.00  0.00    +0.149 HD
BRANCH  21  25
ATOM     25  C   UNL     1       0.015   2.882   0.202  0.00  0.00    +0.102 C 
BRANCH  25  26
ATOM     26  C   UNL     1      -0.706   3.587  -0.949  0.00  0.00    +0.000 C 
BRANCH  26  27
ATOM     27  C   UNL     1      -0.003   3.259  -2.268  0.00  0.00    -0.077 C 
BRANCH  27  28
ATOM     28  N   UNL     1      -0.695   3.936  -3.373  0.00  0.00    +0.380 N 
ATOM     29  H   UNL     1      -1.764   3.686  -3.306  0.00  0.00    -0.082 HD
BRANCH  28  30
ATOM     30  C   UNL     1      -0.564   5.395  -3.261  0.00  0.00    -0.076 C 
BRANCH  30  32
ATOM     31  C   UNL     1      -3.009   5.687  -3.688  0.00  0.00    +0.005 C 
ATOM     32  C   UNL     1      -1.604   6.070  -4.157  0.00  0.00    -0.034 C 
ATOM     33  C   UNL     1      -1.436   7.589  -4.078  0.00  0.00    +0.005 C 
ENDBRANCH  30  32
ENDBRANCH  28  30
BRANCH  28  34
ATOM     34  C   UNL     1      -0.201   3.462  -4.673  0.00  0.00    -0.076 C 
BRANCH  34  35
ATOM     35  C   UNL     1      -0.774   2.072  -4.960  0.00  0.00    -0.034 C 
ATOM     36  C   UNL     1      -2.293   2.170  -5.119  0.00  0.00    +0.005 C 
ATOM     37  C   UNL     1      -0.161   1.524  -6.250  0.00  0.00    +0.005 C 
ENDBRANCH  34  35
ENDBRANCH  28  34
ENDBRANCH  27  28
ENDBRANCH  26  27
ENDBRANCH  25  26
ENDBRANCH  21  25
ENDBRANCH  20  22
ENDBRANCH   1  20
TORSDOF 11
