REMARK  Name = ZINC55913868
REMARK  5 active torsions:
REMARK  status: ('A' for Active; 'I' for Inactive)
REMARK    1  A    between atoms: C_9  and  N_26
REMARK    2  A    between atoms: C_11  and  C_13
REMARK    3  A    between atoms: C_13  and  N_14
REMARK    4  A    between atoms: C_17  and  C_20
REMARK    5  A    between atoms: N_22  and  C_23
REMARK                            x       y       z     vdW  Elec       q    Type
REMARK                         _______ _______ _______ _____ _____    ______ ____
ROOT
ATOM      1  C   UNL     1      -0.384   1.215  -0.607  0.00  0.00    +0.001 C 
ATOM      2  C   UNL     1       1.010   1.805  -0.402  0.00  0.00    +0.005 C 
ATOM      3  C   UNL     1       1.909   1.473  -1.587  0.00  0.00    +0.037 C 
ATOM      4  C   UNL     1       2.627   0.149  -1.346  0.00  0.00    -0.025 A 
ATOM      5  C   UNL     1       2.117  -0.812  -0.550  0.00  0.00    -0.004 A 
ATOM      6  S   UNL     1       3.294  -2.138  -0.605  0.00  0.00    -0.073 S 
ATOM      7  C   UNL     1       4.483  -1.396  -1.691  0.00  0.00    +0.114 A 
ATOM      8  C   UNL     1       3.919  -0.138  -1.979  0.00  0.00    +0.051 A 
ATOM      9  C   UNL     1       4.681   0.689  -2.850  0.00  0.00    +0.128 A 
ATOM     10  N   UNL     1       5.834   0.239  -3.319  0.00  0.00    -0.219 NA
ATOM     11  C   UNL     1       6.303  -0.956  -3.005  0.00  0.00    +0.116 A 
ATOM     12  N   UNL     1       5.641  -1.766  -2.202  0.00  0.00    -0.227 NA
ATOM     13  C   UNL     1       0.840  -0.773   0.232  0.00  0.00    +0.043 C 
ATOM     14  C   UNL     1      -0.300  -0.306  -0.682  0.00  0.00    +0.005 C 
ENDROOT
BRANCH   9  15
ATOM     15  N   UNL     1       4.224   1.946  -3.203  0.00  0.00    -0.343 N 
ATOM     16  H   UNL     1       4.854   2.640  -3.451  0.00  0.00    +0.144 HD
ATOM     17  H   UNL     1       3.272   2.133  -3.202  0.00  0.00    +0.144 HD
ENDBRANCH   9  15
BRANCH  11  18
ATOM     18  C   UNL     1       7.624  -1.402  -3.577  0.00  0.00    -0.001 C 
BRANCH  18  19
ATOM     19  N   UNL     1       8.710  -1.002  -2.671  0.00  0.00    +0.384 N 
ATOM     20  C   UNL     1       8.568  -1.715  -1.396  0.00  0.00    -0.078 C 
ATOM     21  C   UNL     1       9.649  -1.242  -0.421  0.00  0.00    -0.006 C 
ATOM     22  C   UNL     1      11.029  -1.530  -1.018  0.00  0.00    +0.071 C 
ATOM     23  C   UNL     1      11.138  -0.843  -2.382  0.00  0.00    -0.006 C 
ATOM     24  C   UNL     1      10.002  -1.330  -3.285  0.00  0.00    -0.078 C 
ATOM     25  H   UNL     1       8.660  -0.008  -2.506  0.00  0.00    -0.081 HD
BRANCH  22  26
ATOM     26  C   UNL     1      12.097  -0.997  -0.098  0.00  0.00    +0.216 C 
ATOM     27  O   UNL     1      11.787  -0.441   0.934  0.00  0.00    -0.276 OA
ATOM     28  N   UNL     1      13.398  -1.138  -0.423  0.00  0.00    -0.312 N 
ATOM     29  H   UNL     1      13.646  -1.583  -1.248  0.00  0.00    +0.149 HD
BRANCH  28  30
ATOM     30  C   UNL     1      14.436  -0.620   0.471  0.00  0.00    +0.073 C 
ATOM     31  C   UNL     1      15.606   0.132  -0.167  0.00  0.00    +0.024 C 
ATOM     32  C   UNL     1      15.818  -1.272   0.402  0.00  0.00    +0.024 C 
ENDBRANCH  28  30
ENDBRANCH  22  26
ENDBRANCH  18  19
ENDBRANCH  11  18
TORSDOF 5
