REMARK  Name = ZINC06005267
REMARK  6 active torsions:
REMARK  status: ('A' for Active; 'I' for Inactive)
REMARK    1  A    between atoms: C_1  and  C_2
REMARK    2  A    between atoms: C_2  and  C_3
REMARK    3  A    between atoms: C_3  and  C_5
REMARK    4  A    between atoms: C_3  and  S_6
REMARK    5  A    between atoms: S_6  and  C_7
REMARK    6  A    between atoms: C_14  and  C_24
REMARK                            x       y       z     vdW  Elec       q    Type
REMARK                         _______ _______ _______ _____ _____    ______ ____
ROOT
ATOM      1  C   UNL     1      -3.926  -0.602  -1.300  0.00  0.00    +0.172 A 
ATOM      2  N   UNL     1      -4.838  -0.401  -2.293  0.00  0.00    -0.322 N 
ATOM      3  C   UNL     1      -6.132  -0.821  -2.132  0.00  0.00    +0.111 A 
ATOM      4  C   UNL     1      -6.492  -1.439  -0.976  0.00  0.00    +0.069 A 
ATOM      5  C   UNL     1      -5.519  -1.624   0.030  0.00  0.00    +0.280 A 
ATOM      6  N   UNL     1      -4.263  -1.201  -0.177  0.00  0.00    -0.185 NA
ATOM      7  O   UNL     1      -5.818  -2.170   1.082  0.00  0.00    -0.265 OA
ATOM      8  C   UNL     1      -7.896  -1.924  -0.765  0.00  0.00    +0.092 C 
ATOM      9  C   UNL     1      -8.851  -1.278  -1.737  0.00  0.00    +0.024 C 
ATOM     10  C   UNL     1     -10.226  -1.334  -1.448  0.00  0.00    +0.162 C 
ATOM     11  C   UNL     1     -11.244  -0.736  -2.380  0.00  0.00    +0.080 C 
ATOM     12  C   UNL     1     -10.689  -0.764  -3.808  0.00  0.00    +0.014 C 
ATOM     13  C   UNL     1      -9.354  -0.017  -3.824  0.00  0.00    +0.051 C 
ATOM     14  C   UNL     1      -8.399  -0.666  -2.852  0.00  0.00    +0.017 C 
ATOM     15  N   UNL     1      -7.059  -0.617  -3.127  0.00  0.00    -0.304 N 
ATOM     16  O   UNL     1     -10.599  -1.877  -0.427  0.00  0.00    -0.292 OA
ATOM     17  H   UNL     1      -6.761  -0.436  -4.032  0.00  0.00    +0.153 HD
ATOM     18  H   UNL     1      -4.570   0.041  -3.114  0.00  0.00    +0.169 HD
ENDROOT
BRANCH   8  19
ATOM     19  C   UNL     1      -7.936  -3.419  -0.958  0.00  0.00    -0.035 A 
ATOM     20  C   UNL     1      -7.558  -3.970  -2.168  0.00  0.00    +0.007 A 
ATOM     21  C   UNL     1      -7.593  -5.340  -2.345  0.00  0.00    +0.038 A 
ATOM     22  C   UNL     1      -8.007  -6.161  -1.310  0.00  0.00    +0.123 A 
ATOM     23  C   UNL     1      -8.384  -5.608  -0.098  0.00  0.00    +0.038 A 
ATOM     24  C   UNL     1      -8.343  -4.238   0.079  0.00  0.00    +0.007 A 
ATOM     25  F   UNL     1      -8.042  -7.500  -1.482  0.00  0.00    -0.205 F 
ENDBRANCH   8  19
BRANCH   1  26
ATOM     26  S   UNL     1      -2.265  -0.057  -1.527  0.00  0.00    -0.085 S 
BRANCH  26  27
ATOM     27  C   UNL     1      -1.433  -0.534   0.013  0.00  0.00    +0.051 C 
ATOM     28  C   UNL     1      -1.413  -2.059   0.130  0.00  0.00    +0.019 C 
BRANCH  27  30
ATOM     29  C   UNL     1      -0.019   1.526   0.010  0.00  0.00    +0.005 C 
ATOM     30  C   UNL     1       0.002  -0.004   0.002  0.00  0.00    +0.011 C 
ENDBRANCH  27  30
ENDBRANCH  26  27
ENDBRANCH   1  26
TORSDOF 4
