REMARK  Name = ZINC58846628
REMARK  6 active torsions:
REMARK  status: ('A' for Active; 'I' for Inactive)
REMARK    1  A    between atoms: C_1  and  C_2
REMARK    2  A    between atoms: C_4  and  C_36
REMARK    3  A    between atoms: C_6  and  N_8
REMARK    4  A    between atoms: N_8  and  S_9
REMARK    5  A    between atoms: S_9  and  C_12
REMARK    6  A    between atoms: C_25  and  C_28
REMARK                            x       y       z     vdW  Elec       q    Type
REMARK                         _______ _______ _______ _____ _____    ______ ____
ROOT
ATOM      1  C   UNL     1       0.757  -0.032   3.575  0.00  0.00    +0.109 A 
ATOM      2  C   UNL     1       0.899   1.207   2.976  0.00  0.00    +0.030 A 
ATOM      3  C   UNL     1       0.259   2.305   3.514  0.00  0.00    +0.025 A 
ATOM      4  C   UNL     1      -0.528   2.167   4.653  0.00  0.00    +0.031 A 
ATOM      5  C   UNL     1      -0.681   0.923   5.247  0.00  0.00    -0.018 A 
ATOM      6  C   UNL     1      -0.031  -0.173   4.699  0.00  0.00    +0.034 A 
ATOM      7  C   UNL     1      -1.548   0.728   6.444  0.00  0.00    +0.049 C 
ATOM      8  C   UNL     1      -0.743   0.576   7.709  0.00  0.00    -0.023 C 
ATOM      9  C   UNL     1      -1.363   1.146   8.712  0.00  0.00    -0.030 C 
ATOM     10  C   UNL     1      -2.667   1.765   8.260  0.00  0.00    +0.033 C 
ATOM     11  C   UNL     1      -2.509   1.881   6.726  0.00  0.00    +0.029 C 
ATOM     12  C   UNL     1      -1.932   3.247   6.413  0.00  0.00    +0.106 C 
ATOM     13  N   UNL     1      -1.150   3.285   5.194  0.00  0.00    -0.336 N 
ATOM     14  H   UNL     1      -1.037   4.138   4.746  0.00  0.00    +0.147 HD
ENDROOT
BRANCH  12  15
ATOM     15  C   UNL     1      -1.079   3.684   7.576  0.00  0.00    -0.009 A 
ATOM     16  C   UNL     1       0.239   3.273   7.660  0.00  0.00    +0.008 A 
ATOM     17  C   UNL     1       1.021   3.674   8.726  0.00  0.00    +0.020 A 
ATOM     18  C   UNL     1       0.487   4.487   9.710  0.00  0.00    +0.042 A 
ATOM     19  C   UNL     1      -0.831   4.898   9.627  0.00  0.00    +0.040 A 
ATOM     20  C   UNL     1      -1.613   4.501   8.557  0.00  0.00    +0.047 A 
ATOM     21 CL   UNL     1      -3.265   5.022   8.448  0.00  0.00    -0.083 Cl
ATOM     22 CL   UNL     1       1.470   4.989  11.050  0.00  0.00    -0.083 Cl
ENDBRANCH  12  15
BRANCH   1  23
ATOM     23  S   UNL     1       1.579  -1.435   2.896  0.00  0.00    +0.072 S 
ATOM     24  O   UNL     1       1.613  -2.420   3.919  0.00  0.00    -0.150 OA
ATOM     25  O   UNL     1       2.756  -0.950   2.265  0.00  0.00    -0.150 OA
BRANCH  23  26
ATOM     26  N   UNL     1       0.611  -2.035   1.693  0.00  0.00    -0.216 N 
ATOM     27  H   UNL     1       0.937  -2.068   0.780  0.00  0.00    +0.174 HD
BRANCH  26  33
ATOM     28  C   UNL     1      -2.374  -4.674   4.570  0.00  0.00    +0.044 C 
ATOM     29  C   UNL     1      -2.151  -3.773   3.382  0.00  0.00    -0.048 A 
ATOM     30  C   UNL     1      -3.219  -3.399   2.589  0.00  0.00    +0.006 A 
ATOM     31  C   UNL     1      -3.019  -2.573   1.498  0.00  0.00    -0.048 A 
ATOM     32  C   UNL     1      -1.749  -2.119   1.198  0.00  0.00    +0.028 A 
ATOM     33  C   UNL     1      -0.674  -2.492   1.993  0.00  0.00    +0.049 A 
ATOM     34  C   UNL     1      -0.879  -3.318   3.091  0.00  0.00    +0.028 A 
ATOM     35  C   UNL     1      -4.186  -2.169   0.635  0.00  0.00    +0.044 C 
ENDBRANCH  26  33
ENDBRANCH  23  26
ENDBRANCH   1  23
TORSDOF 4
