REMARK  Name = ZINC39655393
REMARK  9 active torsions:
REMARK  status: ('A' for Active; 'I' for Inactive)
REMARK    1  A    between atoms: C_1  and  C_2
REMARK    2  A    between atoms: C_2  and  C_4
REMARK    3  A    between atoms: C_2  and  O_29
REMARK    4  A    between atoms: C_8  and  C_17
REMARK    5  A    between atoms: N_19  and  C_20
REMARK    6  A    between atoms: C_20  and  C_21
REMARK    7  A    between atoms: C_21  and  N_22
REMARK    8  A    between atoms: N_22  and  C_23
REMARK    9  A    between atoms: O_29  and  C_30
REMARK                            x       y       z     vdW  Elec       q    Type
REMARK                         _______ _______ _______ _____ _____    ______ ____
ROOT
ATOM      1  C   UNL     1       0.720  -0.653   1.099  0.00  0.00    +0.256 C 
ATOM      2  O   UNL     1      -0.068  -1.103   1.904  0.00  0.00    -0.272 OA
ATOM      3  N   UNL     1       2.028  -0.568   1.413  0.00  0.00    -0.297 N 
ATOM      4  C   UNL     1       3.144  -0.125   0.544  0.00  0.00    +0.121 C 
ATOM      5  C   UNL     1       4.055   0.708   1.473  0.00  0.00    +0.100 C 
ATOM      6  C   UNL     1       3.745   0.195   2.889  0.00  0.00    -0.004 C 
ATOM      7  C   UNL     1       2.675  -0.891   2.707  0.00  0.00    +0.115 C 
ATOM      8  C   UNL     1       3.197   1.327   3.753  0.00  0.00    -0.010 C 
ATOM      9  C   UNL     1       2.950   0.806   5.172  0.00  0.00    -0.082 C 
ATOM     10  N   UNL     1       4.208   0.299   5.734  0.00  0.00    +0.379 N 
ATOM     11  C   UNL     1       4.680  -0.849   4.951  0.00  0.00    -0.082 C 
ATOM     12  C   UNL     1       5.000  -0.399   3.523  0.00  0.00    -0.010 C 
ATOM     13  H   UNL     1       4.904   1.029   5.711  0.00  0.00    -0.086 HD
ATOM     14  H   UNL     1       4.056   0.013   6.690  0.00  0.00    -0.086 HD
ENDROOT
BRANCH   5  15
ATOM     15  C   UNL     1       3.723   2.173   1.359  0.00  0.00    +0.218 C 
ATOM     16  O   UNL     1       2.568   2.526   1.249  0.00  0.00    -0.275 OA
ATOM     17  N   UNL     1       4.709   3.091   1.378  0.00  0.00    -0.314 N 
ATOM     18  H   UNL     1       5.633   2.809   1.465  0.00  0.00    +0.149 HD
BRANCH  17  19
ATOM     19  C   UNL     1       4.386   4.516   1.266  0.00  0.00    +0.123 C 
BRANCH  19  20
ATOM     20  C   UNL     1       5.676   5.337   1.315  0.00  0.00    +0.120 C 
BRANCH  20  21
ATOM     21  N   UNL     1       5.353   6.761   1.204  0.00  0.00    -0.342 N 
ATOM     22  H   UNL     1       4.429   7.044   1.116  0.00  0.00    +0.146 HD
BRANCH  21  23
ATOM     23  C   UNL     1       6.375   7.713   1.223  0.00  0.00    +0.027 A 
ATOM     24  C   UNL     1       7.699   7.310   1.343  0.00  0.00    +0.023 A 
ATOM     25  C   UNL     1       8.708   8.254   1.361  0.00  0.00    +0.002 A 
ATOM     26  C   UNL     1       8.401   9.598   1.262  0.00  0.00    +0.000 A 
ATOM     27  C   UNL     1       7.084  10.003   1.143  0.00  0.00    +0.002 A 
ATOM     28  C   UNL     1       6.071   9.064   1.118  0.00  0.00    +0.023 A 
ENDBRANCH  21  23
ENDBRANCH  20  21
ENDBRANCH  19  20
ENDBRANCH  17  19
ENDBRANCH   5  15
BRANCH   1  30
ATOM     29  C   UNL     1       0.344   1.335  -0.334  0.00  0.00    +0.062 C 
ATOM     30  C   UNL     1       0.237  -0.189  -0.250  0.00  0.00    +0.256 C 
BRANCH  30  31
ATOM     31  O   UNL     1      -1.125  -0.581  -0.429  0.00  0.00    -0.480 OA
BRANCH  31  32
ATOM     32  C   UNL     1      -1.561  -0.730  -1.708  0.00  0.00    +0.122 A 
ATOM     33  C   UNL     1      -0.731  -0.399  -2.768  0.00  0.00    +0.045 A 
ATOM     34  C   UNL     1      -1.176  -0.552  -4.067  0.00  0.00    +0.004 A 
ATOM     35  C   UNL     1      -2.449  -1.034  -4.310  0.00  0.00    +0.000 A 
ATOM     36  C   UNL     1      -3.279  -1.363  -3.255  0.00  0.00    +0.004 A 
ATOM     37  C   UNL     1      -2.836  -1.218  -1.955  0.00  0.00    +0.045 A 
ENDBRANCH  31  32
ENDBRANCH  30  31
ENDBRANCH   1  30
TORSDOF 8
