REMARK  Name = ZINC39895366
REMARK  9 active torsions:
REMARK  status: ('A' for Active; 'I' for Inactive)
REMARK    1  A    between atoms: C_1  and  C_2
REMARK    2  A    between atoms: C_5  and  N_8
REMARK    3  A    between atoms: N_8  and  C_9
REMARK    4  A    between atoms: C_10  and  C_27
REMARK    5  A    between atoms: C_14  and  C_21
REMARK    6  A    between atoms: C_15  and  C_19
REMARK    7  A    between atoms: C_16  and  N_18
REMARK    8  A    between atoms: C_31  and  C_38
REMARK    9  A    between atoms: C_34  and  C_37
REMARK                            x       y       z     vdW  Elec       q    Type
REMARK                         _______ _______ _______ _____ _____    ______ ____
ROOT
ATOM      1  C   UNL     1       0.178  -4.861   1.161  0.00  0.00    +0.085 A 
ATOM      2  C   UNL     1       0.315  -6.231   1.348  0.00  0.00    +0.091 A 
ATOM      3  C   UNL     1       0.425  -6.731   2.718  0.00  0.00    +0.095 A 
ATOM      4  C   UNL     1       0.378  -5.739   3.716  0.00  0.00    +0.049 A 
ATOM      5  S   UNL     1       0.201  -4.217   2.823  0.00  0.00    -0.071 S 
ATOM      6  C   UNL     1       0.470  -6.051   5.063  0.00  0.00    +0.019 A 
ATOM      7  C   UNL     1       0.614  -7.412   5.419  0.00  0.00    +0.100 A 
ATOM      8  C   UNL     1       0.655  -8.363   4.382  0.00  0.00    +0.135 A 
ATOM      9  N   UNL     1       0.564  -8.013   3.119  0.00  0.00    -0.230 NA
ENDROOT
BRANCH   2  10
ATOM     10  C   UNL     1       0.348  -7.146   0.208  0.00  0.00    +0.251 C 
ATOM     11  O   UNL     1       1.410  -7.429  -0.315  0.00  0.00    -0.270 OA
ATOM     12  N   UNL     1      -0.798  -7.677  -0.263  0.00  0.00    -0.292 N 
ATOM     13  C   UNL     1      -2.095  -7.345   0.348  0.00  0.00    +0.139 C 
ATOM     14  C   UNL     1      -3.059  -6.918  -0.764  0.00  0.00    +0.133 C 
ATOM     15  O   UNL     1      -3.076  -7.921  -1.783  0.00  0.00    -0.371 OA
ATOM     16  C   UNL     1      -1.818  -8.116  -2.433  0.00  0.00    +0.133 C 
ATOM     17  C   UNL     1      -0.790  -8.600  -1.409  0.00  0.00    +0.139 C 
ATOM     18  C   UNL     1      -1.346  -6.794  -3.041  0.00  0.00    +0.039 C 
ATOM     19  C   UNL     1      -4.465  -6.752  -0.185  0.00  0.00    +0.039 C 
ENDBRANCH   2  10
BRANCH   6  20
ATOM     20  C   UNL     1       0.419  -4.993   6.098  0.00  0.00    -0.015 A 
ATOM     21  C   UNL     1       1.429  -4.034   6.169  0.00  0.00    +0.008 A 
ATOM     22  C   UNL     1       1.376  -3.050   7.135  0.00  0.00    +0.001 A 
ATOM     23  C   UNL     1       0.323  -3.013   8.032  0.00  0.00    +0.000 A 
ATOM     24  C   UNL     1      -0.682  -3.962   7.966  0.00  0.00    +0.001 A 
ATOM     25  C   UNL     1      -0.643  -4.947   7.001  0.00  0.00    +0.008 A 
ENDBRANCH   6  20
BRANCH   8  26
ATOM     26  N   UNL     1       0.796  -9.704   4.701  0.00  0.00    -0.342 N 
ATOM     27  H   UNL     1       0.864  -9.977   5.630  0.00  0.00    +0.144 HD
ATOM     28  H   UNL     1       0.826 -10.370   3.997  0.00  0.00    +0.144 HD
ENDBRANCH   8  26
BRANCH   1  29
ATOM     29  N   UNL     1       0.059  -4.168  -0.021  0.00  0.00    -0.308 N 
ATOM     30  H   UNL     1       0.154  -4.633  -0.867  0.00  0.00    +0.153 HD
BRANCH  29  35
ATOM     31  C   UNL     1      -0.996   1.404   0.050  0.00  0.00    +0.044 C 
ATOM     32  C   UNL     1      -0.716  -0.076   0.031  0.00  0.00    -0.050 A 
ATOM     33  C   UNL     1       0.075  -0.616  -0.967  0.00  0.00    +0.005 A 
ATOM     34  C   UNL     1       0.334  -1.973  -0.987  0.00  0.00    +0.023 A 
ATOM     35  C   UNL     1      -0.201  -2.795  -0.003  0.00  0.00    +0.032 A 
ATOM     36  C   UNL     1      -0.994  -2.249   0.998  0.00  0.00    +0.023 A 
ATOM     37  C   UNL     1      -1.245  -0.891   1.015  0.00  0.00    +0.005 A 
ENDBRANCH  29  35
ENDBRANCH   1  29
BRANCH   7  38
ATOM     38  C   UNL     1       0.715  -7.811   6.790  0.00  0.00    +0.103 C 
ATOM     39  N   UNL     1       0.795  -8.127   7.878  0.00  0.00    -0.191 NA
ENDBRANCH   7  38
TORSDOF 6
