REMARK  Name = ZINC33725965
REMARK  13 active torsions:
REMARK  status: ('A' for Active; 'I' for Inactive)
REMARK    1  A    between atoms: C_1  and  C_2
REMARK    2  A    between atoms: C_2  and  C_3
REMARK    3  A    between atoms: C_3  and  C_5
REMARK    4  A    between atoms: C_3  and  C_6
REMARK    5  A    between atoms: C_6  and  C_8
REMARK    6  A    between atoms: C_6  and  N_25
REMARK    7  A    between atoms: C_14  and  C_16
REMARK    8  A    between atoms: C_19  and  N_22
REMARK    9  A    between atoms: N_22  and  C_23
REMARK   10  A    between atoms: N_22  and  C_24
REMARK   11  A    between atoms: N_28  and  C_29
REMARK   12  A    between atoms: C_32  and  S_35
REMARK   13  A    between atoms: S_35  and  C_36
REMARK                            x       y       z     vdW  Elec       q    Type
REMARK                         _______ _______ _______ _____ _____    ______ ____
ROOT
ATOM      1  C   UNL     1      -0.614   2.234   1.492  0.00  0.00    +0.163 C 
ENDROOT
BRANCH   1   2
ATOM      2  C   UNL     1      -2.017   1.794   1.823  0.00  0.00    +0.239 C 
ATOM      3  O   UNL     1      -2.201   0.914   2.637  0.00  0.00    -0.273 OA
ATOM      4  N   UNL     1      -3.067   2.380   1.215  0.00  0.00    -0.262 N 
ATOM      5  C   UNL     1      -4.356   1.913   1.450  0.00  0.00    +0.188 A 
ATOM      6  N   UNL     1      -4.774   0.917   2.219  0.00  0.00    -0.125 NA
ATOM      7  N   UNL     1      -5.996   0.624   2.326  0.00  0.00    -0.140 NA
ATOM      8  C   UNL     1      -6.936   1.289   1.665  0.00  0.00    +0.134 A 
ATOM      9  S   UNL     1      -5.922   2.482   0.796  0.00  0.00    -0.030 S 
ATOM     10  H   UNL     1      -2.906   3.228   0.533  0.00  0.00    +0.157 HD
BRANCH   8  11
ATOM     11  C   UNL     1      -8.402   1.098   1.651  0.00  0.00    +0.009 A 
ATOM     12  C   UNL     1      -9.208   1.932   0.873  0.00  0.00    +0.012 A 
ATOM     13  C   UNL     1     -10.573   1.748   0.857  0.00  0.00    +0.024 A 
ATOM     14  C   UNL     1     -11.149   0.741   1.623  0.00  0.00    +0.029 A 
ATOM     15  C   UNL     1     -10.350  -0.087   2.403  0.00  0.00    +0.024 A 
ATOM     16  C   UNL     1      -8.983   0.088   2.419  0.00  0.00    +0.012 A 
BRANCH  14  17
ATOM     17  N   UNL     1     -12.533   0.561   1.610  0.00  0.00    -0.336 N 
ATOM     18  C   UNL     1     -13.142  -0.499   2.417  0.00  0.00    +0.129 C 
ATOM     19  C   UNL     1     -13.377   1.433   0.789  0.00  0.00    +0.129 C 
ENDBRANCH  14  17
ENDBRANCH   8  11
ENDBRANCH   1   2
BRANCH   1  20
ATOM     20  N   UNL     1       0.267   1.950   2.628  0.00  0.00    -0.288 N 
ATOM     21  C   UNL     1       1.396   2.666   2.800  0.00  0.00    +0.304 C 
ATOM     22  O   UNL     1       1.683   3.547   2.013  0.00  0.00    -0.252 OA
ATOM     23  N   UNL     1       2.207   2.404   3.845  0.00  0.00    -0.269 N 
ATOM     24  H   UNL     1       0.007   1.153   3.340  0.00  0.00    +0.151 HD
ATOM     25  H   UNL     1       1.989   1.557   4.512  0.00  0.00    +0.156 HD
BRANCH  23  26
ATOM     26  C   UNL     1       3.327   3.213   4.082  0.00  0.00    +0.035 A 
ATOM     27  C   UNL     1       4.478   2.660   4.628  0.00  0.00    +0.024 A 
ATOM     28  C   UNL     1       5.584   3.455   4.857  0.00  0.00    +0.016 A 
ATOM     29  C   UNL     1       5.541   4.809   4.551  0.00  0.00    +0.008 A 
ATOM     30  C   UNL     1       4.387   5.363   4.009  0.00  0.00    +0.016 A 
ATOM     31  C   UNL     1       3.284   4.566   3.775  0.00  0.00    +0.024 A 
BRANCH  29  32
ATOM     32  S   UNL     1       6.950   5.825   4.848  0.00  0.00    -0.129 S 
ATOM     33  C   UNL     1       8.175   4.683   5.543  0.00  0.00    +0.090 C 
ENDBRANCH  29  32
ENDBRANCH  23  26
ENDBRANCH   1  20
BRANCH   1  34
ATOM     34  C   UNL     1      -0.119   1.474   0.260  0.00  0.00    +0.015 C 
ATOM     35  C   UNL     1      -0.972   1.855  -0.951  0.00  0.00    +0.010 C 
BRANCH  34  37
ATOM     36  C   UNL     1       0.379  -0.791  -0.669  0.00  0.00    +0.004 C 
ATOM     37  C   UNL     1      -0.231  -0.032   0.510  0.00  0.00    +0.002 C 
ENDBRANCH  34  37
ENDBRANCH   1  34
TORSDOF 8
