REMARK  Name = ZINC03207602
REMARK  8 active torsions:
REMARK  status: ('A' for Active; 'I' for Inactive)
REMARK    1  A    between atoms: C_1  and  C_2
REMARK    2  A    between atoms: C_2  and  C_3
REMARK    3  A    between atoms: C_2  and  C_4
REMARK    4  A    between atoms: C_2  and  C_5
REMARK    5  A    between atoms: C_15  and  C_17
REMARK    6  A    between atoms: C_17  and  C_30
REMARK    7  A    between atoms: C_18  and  C_19
REMARK    8  A    between atoms: C_22  and  C_24
REMARK                            x       y       z     vdW  Elec       q    Type
REMARK                         _______ _______ _______ _____ _____    ______ ____
ROOT
ATOM      1  C   UNL     1      -6.459  -1.607  -0.349  0.00  0.00    -0.000 C 
ATOM      2  C   UNL     1      -5.478  -2.443   0.477  0.00  0.00    +0.010 C 
ATOM      3  C   UNL     1      -4.044  -2.188   0.008  0.00  0.00    +0.056 C 
ATOM      4  C   UNL     1      -3.787  -0.685   0.015  0.00  0.00    +0.054 A 
ATOM      5  C   UNL     1      -4.827   0.187   0.025  0.00  0.00    +0.015 A 
ATOM      6  S   UNL     1      -4.014   1.762   0.031  0.00  0.00    -0.057 S 
ATOM      7  C   UNL     1      -2.384   1.160   0.020  0.00  0.00    +0.165 A 
ATOM      8  N   UNL     1      -2.571  -0.143   0.008  0.00  0.00    -0.229 NA
ATOM      9  N   UNL     1      -1.191   1.871   0.018  0.00  0.00    -0.260 N 
ATOM     10  C   UNL     1      -0.014   1.213   0.009  0.00  0.00    +0.260 C 
ATOM     11  O   UNL     1       0.002  -0.004   0.002  0.00  0.00    -0.269 OA
ATOM     12  C   UNL     1      -6.285  -0.127   0.028  0.00  0.00    +0.048 C 
ATOM     13  H   UNL     1      -1.204   2.841   0.023  0.00  0.00    +0.157 HD
ENDROOT
BRANCH   1  15
ATOM     14  C   UNL     1      -8.182  -1.850   1.444  0.00  0.00    +0.011 C 
ATOM     15  C   UNL     1      -7.892  -2.049  -0.045  0.00  0.00    -0.035 C 
ATOM     16  C   UNL     1      -8.870  -1.211  -0.872  0.00  0.00    +0.011 C 
ATOM     17  C   UNL     1      -8.056  -3.527  -0.404  0.00  0.00    +0.011 C 
ENDBRANCH   1  15
BRANCH  10  18
ATOM     18  C   UNL     1       1.246   1.964   0.001  0.00  0.00    +0.117 C 
ATOM     19  C   UNL     1       2.458   1.286  -0.015  0.00  0.00    +0.070 C 
BRANCH  19  20
ATOM     20  C   UNL     1       3.664   2.005  -0.022  0.00  0.00    +0.130 A 
ATOM     21  C   UNL     1       4.938   1.456  -0.032  0.00  0.00    +0.050 A 
ATOM     22  C   UNL     1       5.836   2.522  -0.040  0.00  0.00    +0.050 A 
ATOM     23  C   UNL     1       5.088   3.681  -0.026  0.00  0.00    +0.136 A 
ATOM     24  O   UNL     1       3.785   3.350  -0.016  0.00  0.00    -0.455 OA
BRANCH  23  25
ATOM     25  C   UNL     1       5.627   5.054  -0.024  0.00  0.00    +0.017 A 
ATOM     26  C   UNL     1       7.008   5.266  -0.031  0.00  0.00    +0.011 A 
ATOM     27  C   UNL     1       7.505   6.552  -0.034  0.00  0.00    +0.001 A 
ATOM     28  C   UNL     1       6.639   7.632  -0.019  0.00  0.00    +0.000 A 
ATOM     29  C   UNL     1       5.270   7.430  -0.007  0.00  0.00    +0.001 A 
ATOM     30  C   UNL     1       4.759   6.149  -0.009  0.00  0.00    +0.011 A 
ENDBRANCH  23  25
ENDBRANCH  19  20
BRANCH  18  31
ATOM     31  C   UNL     1       1.227   3.396   0.009  0.00  0.00    +0.104 C 
ATOM     32  N   UNL     1       1.211   4.532   0.015  0.00  0.00    -0.191 NA
ENDBRANCH  18  31
ENDBRANCH  10  18
TORSDOF 5
