REMARK  Name = ZINC35684416
REMARK  7 active torsions:
REMARK  status: ('A' for Active; 'I' for Inactive)
REMARK    1  A    between atoms: C_1  and  C_2
REMARK    2  A    between atoms: C_5  and  C_8
REMARK    3  A    between atoms: C_9  and  C_30
REMARK    4  A    between atoms: C_13  and  C_19
REMARK    5  A    between atoms: N_21  and  C_22
REMARK    6  A    between atoms: C_25  and  C_29
REMARK    7  A    between atoms: C_27  and  C_28
REMARK                            x       y       z     vdW  Elec       q    Type
REMARK                         _______ _______ _______ _____ _____    ______ ____
ROOT
ATOM      1  C   UNL     1       0.073  -4.266  -0.012  0.00  0.00    +0.098 A 
ATOM      2  C   UNL     1       0.730  -5.091   0.926  0.00  0.00    +0.017 A 
ATOM      3  C   UNL     1       0.501  -6.371   0.575  0.00  0.00    +0.128 A 
ATOM      4  N   UNL     1      -0.276  -6.366  -0.551  0.00  0.00    -0.237 N 
ATOM      5  N   UNL     1      -0.532  -5.042  -0.891  0.00  0.00    -0.169 NA
ATOM      6  C   UNL     1      -0.714  -7.598  -1.211  0.00  0.00    +0.204 C 
ATOM      7  C   UNL     1       0.336  -8.685  -0.972  0.00  0.00    +0.132 C 
ATOM      8  C   UNL     1       0.793  -8.700   0.460  0.00  0.00    +0.221 C 
ATOM      9  O   UNL     1       1.050  -9.761   0.988  0.00  0.00    -0.275 OA
ATOM     10  N   UNL     1       0.925  -7.559   1.173  0.00  0.00    -0.270 N 
ATOM     11  C   UNL     1       1.542  -4.623   2.107  0.00  0.00    +0.049 C 
ATOM     12  H   UNL     1       1.300  -7.566   2.068  0.00  0.00    +0.156 HD
ENDROOT
BRANCH   1  17
ATOM     13  C   UNL     1       0.020   1.493   0.009  0.00  0.00    +0.044 C 
ATOM     14  C   UNL     1       0.034  -0.014   0.004  0.00  0.00    -0.050 A 
ATOM     15  C   UNL     1       0.043  -0.698  -1.198  0.00  0.00    +0.004 A 
ATOM     16  C   UNL     1       0.056  -2.078  -1.209  0.00  0.00    +0.010 A 
ATOM     17  C   UNL     1       0.060  -2.782  -0.006  0.00  0.00    +0.002 A 
ATOM     18  C   UNL     1       0.051  -2.087   1.201  0.00  0.00    +0.010 A 
ATOM     19  C   UNL     1       0.044  -0.707   1.201  0.00  0.00    +0.004 A 
ENDBRANCH   1  17
BRANCH   6  20
ATOM     20  C   UNL     1      -2.038  -8.035  -0.638  0.00  0.00    +0.242 C 
ATOM     21  O   UNL     1      -2.565  -7.381   0.237  0.00  0.00    -0.273 OA
ATOM     22  N   UNL     1      -2.636  -9.151  -1.099  0.00  0.00    -0.284 N 
ATOM     23  H   UNL     1      -2.256  -9.630  -1.852  0.00  0.00    +0.155 HD
BRANCH  22  24
ATOM     24  C   UNL     1      -3.805  -9.621  -0.490  0.00  0.00    +0.036 A 
ATOM     25  C   UNL     1      -4.077  -9.301   0.834  0.00  0.00    +0.024 A 
ATOM     26  C   UNL     1      -5.231  -9.766   1.433  0.00  0.00    +0.005 A 
ATOM     27  C   UNL     1      -6.116 -10.549   0.715  0.00  0.00    -0.050 A 
ATOM     28  C   UNL     1      -5.849 -10.870  -0.603  0.00  0.00    +0.008 A 
ATOM     29  C   UNL     1      -4.699 -10.402  -1.209  0.00  0.00    -0.029 A 
ATOM     30  C   UNL     1      -4.411 -10.746  -2.648  0.00  0.00    +0.045 C 
ATOM     31  C   UNL     1      -7.375 -11.055   1.371  0.00  0.00    +0.044 C 
ENDBRANCH  22  24
ENDBRANCH   6  20
TORSDOF 3
