REMARK  Name = ZINC11027440
REMARK  8 active torsions:
REMARK  status: ('A' for Active; 'I' for Inactive)
REMARK    1  A    between atoms: C_1  and  C_2
REMARK    2  A    between atoms: C_5  and  S_7
REMARK    3  A    between atoms: S_7  and  N_10
REMARK    4  A    between atoms: N_10  and  C_11
REMARK    5  A    between atoms: C_11  and  C_12
REMARK    6  A    between atoms: C_12  and  O_13
REMARK    7  A    between atoms: O_13  and  C_14
REMARK    8  A    between atoms: C_20  and  C_23
REMARK                            x       y       z     vdW  Elec       q    Type
REMARK                         _______ _______ _______ _____ _____    ______ ____
ROOT
ATOM      1  C   UNL     1       1.435  -3.743  -5.649  0.00  0.00    +0.233 A 
ATOM      2  C   UNL     1       0.274  -3.625  -6.434  0.00  0.00    +0.072 A 
ATOM      3  C   UNL     1       0.172  -4.305  -7.608  0.00  0.00    +0.055 A 
ATOM      4  C   UNL     1       1.240  -5.122  -8.021  0.00  0.00    +0.179 A 
ATOM      5  N   UNL     1       1.447  -5.892  -9.080  0.00  0.00    -0.128 NA
ATOM      6  N   UNL     1       2.606  -6.444  -8.993  0.00  0.00    -0.127 NA
ATOM      7  C   UNL     1       3.207  -6.063  -7.881  0.00  0.00    +0.187 A 
ATOM      8  N   UNL     1       2.360  -5.215  -7.232  0.00  0.00    -0.189 N 
ATOM      9  N   UNL     1       2.434  -4.500  -6.035  0.00  0.00    -0.125 NA
ENDROOT
BRANCH   7  10
ATOM     10  C   UNL     1       4.549  -6.480  -7.423  0.00  0.00    +0.039 A 
ATOM     11  C   UNL     1       5.108  -5.910  -6.279  0.00  0.00    +0.013 A 
ATOM     12  C   UNL     1       6.361  -6.303  -5.857  0.00  0.00    +0.001 A 
ATOM     13  C   UNL     1       7.064  -7.262  -6.565  0.00  0.00    +0.001 A 
ATOM     14  C   UNL     1       6.517  -7.832  -7.701  0.00  0.00    +0.021 A 
ATOM     15  C   UNL     1       5.261  -7.451  -8.131  0.00  0.00    +0.052 A 
ATOM     16 CL   UNL     1       4.572  -8.173  -9.552  0.00  0.00    -0.083 Cl
ENDBRANCH   7  10
BRANCH   1  17
ATOM     17  O   UNL     1       1.525  -3.060  -4.480  0.00  0.00    -0.474 OA
BRANCH  17  18
ATOM     18  C   UNL     1       2.729  -3.219  -3.726  0.00  0.00    +0.247 C 
BRANCH  18  19
ATOM     19  C   UNL     1       2.647  -2.379  -2.450  0.00  0.00    +0.147 C 
BRANCH  19  20
ATOM     20  N   UNL     1       1.580  -2.900  -1.591  0.00  0.00    -0.186 NA
ATOM     21  H   UNL     1       0.922  -3.513  -1.953  0.00  0.00    +0.148 HD
BRANCH  20  22
ATOM     22  S   UNL     1       1.498  -2.440  -0.002  0.00  0.00    +0.065 S 
ATOM     23  O   UNL     1       2.802  -2.609   0.537  0.00  0.00    -0.153 OA
ATOM     24  O   UNL     1       0.357  -3.082   0.548  0.00  0.00    -0.153 OA
BRANCH  22  29
ATOM     25  C   UNL     1       1.359   3.474   0.075  0.00  0.00    +0.051 C 
ATOM     26  C   UNL     1       1.120   1.986   0.058  0.00  0.00    -0.011 A 
ATOM     27  C   UNL     1      -0.054   1.310   0.058  0.00  0.00    +0.013 A 
ATOM     28  C   UNL     1      -0.032  -0.072   0.040  0.00  0.00    +0.036 A 
ATOM     29  C   UNL     1       1.164  -0.710   0.023  0.00  0.00    +0.143 A 
ATOM     30  S   UNL     1       2.312   0.657   0.032  0.00  0.00    -0.074 S 
ENDBRANCH  22  29
ENDBRANCH  20  22
ENDBRANCH  19  20
ENDBRANCH  18  19
ENDBRANCH  17  18
ENDBRANCH   1  17
TORSDOF 7
