REMARK  Name = ZINC01051033
REMARK  4 active torsions:
REMARK  status: ('A' for Active; 'I' for Inactive)
REMARK    1  A    between atoms: C_3  and  C_8
REMARK    2  A    between atoms: N_9  and  N_10
REMARK    3  A    between atoms: C_11  and  C_13
REMARK    4  A    between atoms: C_15  and  C_19
REMARK                            x       y       z     vdW  Elec       q    Type
REMARK                         _______ _______ _______ _____ _____    ______ ____
ROOT
ATOM      1  N   UNL     1       3.596   5.955  -0.000  0.00  0.00    -0.202 N 
ATOM      2  C   UNL     1       3.573   7.302   0.007  0.00  0.00    +0.281 C 
ATOM      3  O   UNL     1       2.509   7.893   0.019  0.00  0.00    -0.267 OA
ATOM      4  H   UNL     1       4.444   5.484  -0.010  0.00  0.00    +0.178 HD
ENDROOT
BRANCH   2   5
ATOM      5  C   UNL     1       4.834   8.060  -0.001  0.00  0.00    +0.122 A 
ATOM      6  C   UNL     1       4.974   9.435  -0.001  0.00  0.00    +0.062 A 
ATOM      7  C   UNL     1       6.361   9.667  -0.006  0.00  0.00    +0.093 A 
ATOM      8  N   UNL     1       6.961   8.495  -0.018  0.00  0.00    -0.173 NA
ATOM      9  N   UNL     1       6.099   7.543  -0.015  0.00  0.00    -0.272 N 
ATOM     10  H   UNL     1       6.322   6.568  -0.023  0.00  0.00    +0.189 HD
BRANCH   7  11
ATOM     11  C   UNL     1       7.029  10.994  -0.005  0.00  0.00    +0.002 A 
ATOM     12  C   UNL     1       6.266  12.159   0.002  0.00  0.00    +0.011 A 
ATOM     13  C   UNL     1       6.891  13.390   0.007  0.00  0.00    +0.020 A 
ATOM     14  C   UNL     1       8.273  13.467  -0.005  0.00  0.00    +0.041 A 
ATOM     15  C   UNL     1       9.035  12.311  -0.017  0.00  0.00    +0.020 A 
ATOM     16  C   UNL     1       8.419  11.076  -0.018  0.00  0.00    +0.011 A 
ATOM     17 CL   UNL     1       9.053  15.018  -0.004  0.00  0.00    -0.084 Cl
ENDBRANCH   7  11
ENDBRANCH   2   5
BRANCH   1  19
ATOM     18  C   UNL     1       2.418   3.936   0.000  0.00  0.00    +0.138 C 
ATOM     19  N   UNL     1       2.395   5.234   0.007  0.00  0.00    -0.187 NA
BRANCH  18  22
ATOM     20  C   UNL     1      -0.013   1.076   0.008  0.00  0.00    +0.002 A 
ATOM     21  C   UNL     1       1.174   1.780   0.000  0.00  0.00    +0.009 A 
ATOM     22  C   UNL     1       1.153   3.177   0.008  0.00  0.00    -0.004 A 
ATOM     23  C   UNL     1      -0.070   3.851   0.022  0.00  0.00    +0.024 A 
ATOM     24  C   UNL     1      -1.249   3.134   0.030  0.00  0.00    +0.018 A 
ATOM     25  C   UNL     1      -1.221   1.749   0.017  0.00  0.00    +0.015 A 
ATOM     26 BR   UNL     1      -2.907   4.044   0.050  0.00  0.00    -0.050 Br
ENDBRANCH  18  22
ENDBRANCH   1  19
TORSDOF 4
