REMARK  Name = ZINC06135504
REMARK  11 active torsions:
REMARK  status: ('A' for Active; 'I' for Inactive)
REMARK    1  A    between atoms: C_1  and  C_2
REMARK    2  A    between atoms: C_2  and  C_3
REMARK    3  A    between atoms: C_8  and  N_9
REMARK    4  A    between atoms: N_9  and  C_10
REMARK    5  A    between atoms: C_10  and  N_12
REMARK    6  A    between atoms: N_12  and  C_13
REMARK    7  A    between atoms: N_12  and  C_22
REMARK    8  A    between atoms: C_13  and  C_14
REMARK    9  A    between atoms: C_17  and  O_20
REMARK   10  A    between atoms: O_20  and  C_21
REMARK   11  A    between atoms: C_22  and  C_23
REMARK                            x       y       z     vdW  Elec       q    Type
REMARK                         _______ _______ _______ _____ _____    ______ ____
ROOT
ATOM      1  N   UNL     1       0.905  -2.891  -1.783  0.00  0.00    -0.304 N 
ENDROOT
BRANCH   1   2
ATOM      2  C   UNL     1      -0.364  -3.030  -2.216  0.00  0.00    +0.138 C 
ATOM      3  S   UNL     1      -0.678  -3.796  -3.714  0.00  0.00    -0.018 S 
BRANCH   2   4
ATOM      4  N   UNL     1      -1.385  -2.565  -1.469  0.00  0.00    -0.297 N 
ATOM      5  H   UNL     1      -1.801  -1.717  -1.690  0.00  0.00    +0.154 HD
BRANCH   4  11
ATOM      6  C   UNL     1      -2.951  -2.870   0.344  0.00  0.00    -0.026 A 
ATOM      7  C   UNL     1      -3.404  -3.604   1.423  0.00  0.00    +0.005 A 
ATOM      8  C   UNL     1      -2.759  -4.772   1.786  0.00  0.00    +0.000 A 
ATOM      9  C   UNL     1      -1.658  -5.208   1.071  0.00  0.00    +0.002 A 
ATOM     10  C   UNL     1      -1.204  -4.482  -0.012  0.00  0.00    +0.023 A 
ATOM     11  C   UNL     1      -1.846  -3.306  -0.376  0.00  0.00    +0.036 A 
BRANCH   6  13
ATOM     12  C   UNL     1      -4.639  -1.891  -1.186  0.00  0.00    +0.009 C 
ATOM     13  C   UNL     1      -3.655  -1.598  -0.052  0.00  0.00    +0.033 C 
ENDBRANCH   6  13
ENDBRANCH   4  11
ENDBRANCH   2   4
ENDBRANCH   1   2
BRANCH   1  14
ATOM     14  C   UNL     1       1.168  -2.332  -0.455  0.00  0.00    +0.142 C 
BRANCH  14  15
ATOM     15  C   UNL     1       1.294  -0.833  -0.557  0.00  0.00    -0.030 A 
ATOM     16  C   UNL     1       0.166  -0.038  -0.465  0.00  0.00    +0.009 A 
ATOM     17  C   UNL     1       0.278   1.335  -0.558  0.00  0.00    +0.046 A 
ATOM     18  C   UNL     1       1.524   1.917  -0.745  0.00  0.00    +0.120 A 
ATOM     19  C   UNL     1       2.654   1.118  -0.837  0.00  0.00    +0.046 A 
ATOM     20  C   UNL     1       2.536  -0.256  -0.744  0.00  0.00    +0.009 A 
BRANCH  18  21
ATOM     21  O   UNL     1       1.637   3.268  -0.836  0.00  0.00    -0.495 OA
ATOM     22  C   UNL     1       2.950   3.798  -1.028  0.00  0.00    +0.277 C 
ENDBRANCH  18  21
ENDBRANCH  14  15
ENDBRANCH   1  14
BRANCH   1  23
ATOM     23  C   UNL     1       2.020  -3.301  -2.640  0.00  0.00    +0.147 C 
BRANCH  23  24
ATOM     24  C   UNL     1       2.354  -4.746  -2.374  0.00  0.00    +0.035 A 
ATOM     25  C   UNL     1       1.819  -5.718  -3.156  0.00  0.00    +0.020 A 
ATOM     26  C   UNL     1       2.163  -7.111  -2.873  0.00  0.00    +0.003 A 
ATOM     27  C   UNL     1       1.642  -8.156  -3.648  0.00  0.00    +0.059 A 
ATOM     28  C   UNL     1       1.985  -9.458  -3.357  0.00  0.00    +0.167 A 
ATOM     29  C   UNL     1       2.850  -9.739  -2.292  0.00  0.00    +0.168 A 
ATOM     30  C   UNL     1       3.368  -8.714  -1.522  0.00  0.00    +0.075 A 
ATOM     31  C   UNL     1       3.033  -7.396  -1.802  0.00  0.00    +0.053 A 
ATOM     32  N   UNL     1       3.542  -6.360  -1.045  0.00  0.00    -0.322 N 
ATOM     33  H   UNL     1       4.156  -6.563  -0.282  0.00  0.00    +0.169 HD
ATOM     34  C   UNL     1       3.224  -5.083  -1.318  0.00  0.00    +0.254 A 
ATOM     35  O   UNL     1       3.697  -4.193  -0.631  0.00  0.00    -0.268 OA
ATOM     36  O   UNL     1       3.023 -11.091  -2.222  0.00  0.00    -0.453 OA
ATOM     37  C   UNL     1       2.592 -11.602  -3.496  0.00  0.00    +0.466 C 
ATOM     38  O   UNL     1       1.624 -10.636  -3.946  0.00  0.00    -0.453 OA
ENDBRANCH  23  24
ENDBRANCH   1  23
TORSDOF 9
