REMARK  Name = ZINC05447007
REMARK  3 active torsions:
REMARK  status: ('A' for Active; 'I' for Inactive)
REMARK    1  A    between atoms: C_4  and  C_7
REMARK    2  A    between atoms: C_8  and  C_21
REMARK    3  A    between atoms: C_9  and  C_15
REMARK                            x       y       z     vdW  Elec       q    Type
REMARK                         _______ _______ _______ _____ _____    ______ ____
ROOT
ATOM      1  C   UNL     1       3.696  -0.721  -0.277  0.00  0.00    +0.050 C 
ATOM      2  C   UNL     1       3.711  -2.039   0.052  0.00  0.00    +0.033 C 
ATOM      3  C   UNL     1       5.058  -2.689   0.297  0.00  0.00    +0.158 C 
ATOM      4  N   UNL     1       6.249  -1.836   0.159  0.00  0.00    -0.287 N 
ATOM      5  C   UNL     1       6.084  -0.541  -0.174  0.00  0.00    +0.305 C 
ATOM      6  O   UNL     1       7.066   0.165  -0.289  0.00  0.00    -0.252 OA
ATOM      7  N   UNL     1       4.875  -0.006  -0.387  0.00  0.00    -0.269 N 
ATOM      8  H   UNL     1       7.136  -2.199   0.304  0.00  0.00    +0.151 HD
ATOM      9  H   UNL     1       4.823   0.932  -0.628  0.00  0.00    +0.156 HD
ENDROOT
BRANCH   2  10
ATOM     10  C   UNL     1       2.471  -2.804   0.167  0.00  0.00    +0.109 A 
ATOM     11  N   UNL     1       2.312  -4.102   0.357  0.00  0.00    -0.239 NA
ATOM     12  C   UNL     1       1.096  -4.674   0.443  0.00  0.00    +0.079 A 
ATOM     13  C   UNL     1       0.786  -6.041   0.644  0.00  0.00    +0.029 A 
ATOM     14  C   UNL     1      -0.506  -6.461   0.707  0.00  0.00    +0.002 A 
ATOM     15  C   UNL     1      -1.567  -5.576   0.578  0.00  0.00    +0.001 A 
ATOM     16  C   UNL     1      -1.308  -4.231   0.381  0.00  0.00    +0.017 A 
ATOM     17  C   UNL     1      -0.007  -3.797   0.316  0.00  0.00    +0.040 A 
ATOM     18  S   UNL     1       0.783  -2.222   0.092  0.00  0.00    -0.067 S 
ENDBRANCH   2  10
BRANCH   1  22
ATOM     19  C   UNL     1      -0.011   1.223  -0.991  0.00  0.00    +0.000 A 
ATOM     20  C   UNL     1       0.743   1.565   0.117  0.00  0.00    +0.001 A 
ATOM     21  C   UNL     1       1.948   0.938   0.355  0.00  0.00    +0.010 A 
ATOM     22  C   UNL     1       2.406  -0.045  -0.525  0.00  0.00    -0.003 A 
ATOM     23  C   UNL     1       1.639  -0.386  -1.641  0.00  0.00    +0.010 A 
ATOM     24  C   UNL     1       0.436   0.250  -1.867  0.00  0.00    +0.001 A 
ENDBRANCH   1  22
BRANCH   3  25
ATOM     25  C   UNL     1       5.198  -3.841  -0.664  0.00  0.00    +0.066 A 
ATOM     26  C   UNL     1       6.299  -3.903  -1.498  0.00  0.00    +0.025 A 
ATOM     27  C   UNL     1       6.419  -4.967  -2.379  0.00  0.00    +0.003 A 
ATOM     28  C   UNL     1       5.423  -5.932  -2.388  0.00  0.00    +0.020 A 
ATOM     29  C   UNL     1       4.352  -5.803  -1.525  0.00  0.00    +0.111 A 
ATOM     30  N   UNL     1       4.273  -4.779  -0.697  0.00  0.00    -0.258 NA
ENDBRANCH   3  25
TORSDOF 3
