REMARK  Name = ZINC18157596
REMARK  9 active torsions:
REMARK  status: ('A' for Active; 'I' for Inactive)
REMARK    1  A    between atoms: C_1  and  C_2
REMARK    2  A    between atoms: C_5  and  C_8
REMARK    3  A    between atoms: N_14  and  C_15
REMARK    4  A    between atoms: C_15  and  C_16
REMARK    5  A    between atoms: C_16  and  C_17
REMARK    6  A    between atoms: N_19  and  C_20
REMARK    7  A    between atoms: C_20  and  C_21
REMARK    8  A    between atoms: N_23  and  C_32
REMARK    9  A    between atoms: C_25  and  C_26
REMARK                            x       y       z     vdW  Elec       q    Type
REMARK                         _______ _______ _______ _____ _____    ______ ____
ROOT
ATOM      1  C   UNL     1       5.584   3.123   1.162  0.00  0.00    +0.215 C 
ATOM      2  O   UNL     1       5.755   3.026   2.359  0.00  0.00    -0.276 OA
ATOM      3  N   UNL     1       4.403   3.561   0.683  0.00  0.00    -0.311 N 
ATOM      4  H   UNL     1       4.266   3.639  -0.274  0.00  0.00    +0.149 HD
ENDROOT
BRANCH   1   5
ATOM      5  C   UNL     1       6.692   2.752   0.210  0.00  0.00    +0.117 C 
BRANCH   5   6
ATOM      6  C   UNL     1       7.914   2.289   1.006  0.00  0.00    +0.135 C 
BRANCH   6  13
ATOM      7  C   UNL     1       9.261   0.660  -0.393  0.00  0.00    +0.163 A 
ATOM      8  N   UNL     1      10.286   0.727  -1.195  0.00  0.00    -0.153 NA
ATOM      9  N   UNL     1      10.711   2.061  -1.248  0.00  0.00    -0.254 N 
ATOM     10  H   UNL     1      11.457   2.406  -1.763  0.00  0.00    +0.191 HD
ATOM     11  C   UNL     1       9.893   2.779  -0.451  0.00  0.00    +0.176 A 
ATOM     12  S   UNL     1       9.983   4.465  -0.166  0.00  0.00    -0.011 S 
ATOM     13  N   UNL     1       8.991   1.929   0.080  0.00  0.00    -0.303 N 
BRANCH   7  18
ATOM     14  C   UNL     1       6.340  -4.116   0.942  0.00  0.00    +0.044 C 
ATOM     15  C   UNL     1       7.104  -2.865   0.592  0.00  0.00    -0.050 A 
ATOM     16  C   UNL     1       8.398  -2.961   0.110  0.00  0.00    +0.004 A 
ATOM     17  C   UNL     1       9.103  -1.820  -0.212  0.00  0.00    +0.012 A 
ATOM     18  C   UNL     1       8.510  -0.568  -0.050  0.00  0.00    +0.019 A 
ATOM     19  C   UNL     1       7.208  -0.477   0.442  0.00  0.00    +0.012 A 
ATOM     20  C   UNL     1       6.511  -1.627   0.755  0.00  0.00    +0.004 A 
ENDBRANCH   7  18
ENDBRANCH   6  13
ENDBRANCH   5   6
ENDBRANCH   1   5
BRANCH   3  21
ATOM     21  C   UNL     1       3.326   3.921   1.609  0.00  0.00    +0.143 C 
BRANCH  21  22
ATOM     22  C   UNL     1       2.122   4.377   0.825  0.00  0.00    +0.015 A 
ATOM     23  C   UNL     1       1.756   5.659   0.604  0.00  0.00    +0.120 A 
ATOM     24  N   UNL     1       0.620   5.645  -0.141  0.00  0.00    -0.239 N 
ATOM     25  N   UNL     1       0.281   4.309  -0.390  0.00  0.00    -0.166 NA
ATOM     26  C   UNL     1       1.179   3.542   0.194  0.00  0.00    +0.098 A 
BRANCH  26  27
ATOM     27  C   UNL     1       1.197   2.059   0.184  0.00  0.00    +0.002 A 
ATOM     28  C   UNL     1       0.001   1.345   0.216  0.00  0.00    +0.010 A 
ATOM     29  C   UNL     1       0.023  -0.035   0.206  0.00  0.00    +0.001 A 
ATOM     30  C   UNL     1       1.230  -0.709   0.165  0.00  0.00    +0.000 A 
ATOM     31  C   UNL     1       2.421  -0.005   0.133  0.00  0.00    +0.001 A 
ATOM     32  C   UNL     1       2.410   1.375   0.143  0.00  0.00    +0.010 A 
ENDBRANCH  26  27
BRANCH  24  33
ATOM     33  C   UNL     1      -0.086   6.770  -0.588  0.00  0.00    +0.065 A 
ATOM     34  C   UNL     1       0.363   8.045  -0.268  0.00  0.00    +0.028 A 
ATOM     35  C   UNL     1      -0.331   9.152  -0.714  0.00  0.00    +0.002 A 
ATOM     36  C   UNL     1      -1.479   8.992  -1.469  0.00  0.00    +0.000 A 
ATOM     37  C   UNL     1      -1.931   7.724  -1.784  0.00  0.00    +0.002 A 
ATOM     38  C   UNL     1      -1.238   6.613  -1.346  0.00  0.00    +0.028 A 
ENDBRANCH  24  33
ENDBRANCH  21  22
ENDBRANCH   3  21
TORSDOF 8
