REMARK  Name = ZINC16808565
REMARK  8 active torsions:
REMARK  status: ('A' for Active; 'I' for Inactive)
REMARK    1  A    between atoms: C_1  and  C_2
REMARK    2  A    between atoms: C_2  and  C_3
REMARK    3  A    between atoms: C_4  and  C_30
REMARK    4  A    between atoms: C_17  and  C_21
REMARK    5  A    between atoms: C_18  and  C_20
REMARK    6  A    between atoms: C_21  and  C_22
REMARK    7  A    between atoms: C_24  and  C_29
REMARK    8  A    between atoms: C_27  and  C_28
REMARK                            x       y       z     vdW  Elec       q    Type
REMARK                         _______ _______ _______ _____ _____    ______ ____
ROOT
ATOM      1  C   UNL     1       3.706   4.736  -0.369  0.00  0.00    +0.038 A 
ATOM      2  C   UNL     1       2.413   5.168  -0.320  0.00  0.00    +0.050 A 
ATOM      3  N   UNL     1       1.417   4.288  -0.251  0.00  0.00    -0.221 NA
ATOM      4  C   UNL     1       1.647   2.991  -0.229  0.00  0.00    +0.202 A 
ATOM      5  N   UNL     1       2.915   2.501  -0.270  0.00  0.00    -0.295 N 
ATOM      6  H   UNL     1       3.068   1.544  -0.248  0.00  0.00    +0.172 HD
ATOM      7  C   UNL     1       3.961   3.352  -0.345  0.00  0.00    +0.256 A 
ATOM      8  O   UNL     1       5.105   2.930  -0.388  0.00  0.00    -0.267 OA
ATOM      9  N   UNL     1       0.588   2.118  -0.158  0.00  0.00    -0.255 N 
ATOM     10  C   UNL     1      -0.698   2.600  -0.117  0.00  0.00    +0.202 A 
ATOM     11  N   UNL     1      -1.738   1.725  -0.058  0.00  0.00    -0.295 N 
ATOM     12  H   UNL     1      -1.570   0.770  -0.045  0.00  0.00    +0.172 HD
ATOM     13  C   UNL     1      -3.004   2.191  -0.012  0.00  0.00    +0.256 A 
ATOM     14  O   UNL     1      -3.948   1.421   0.045  0.00  0.00    -0.267 OA
ATOM     15  C   UNL     1      -3.214   3.582  -0.038  0.00  0.00    +0.042 A 
ATOM     16  C   UNL     1      -2.132   4.410  -0.102  0.00  0.00    +0.050 A 
ATOM     17  N   UNL     1      -0.902   3.901  -0.140  0.00  0.00    -0.221 NA
ATOM     18  C   UNL     1      -2.329   5.904  -0.131  0.00  0.00    +0.066 C 
ATOM     19  C   UNL     1       2.112   6.645  -0.343  0.00  0.00    +0.066 C 
ATOM     20  H   UNL     1       0.749   1.162  -0.141  0.00  0.00    +0.158 HD
ENDROOT
BRANCH   1  22
ATOM     21  C   UNL     1       5.375   5.999   0.960  0.00  0.00    +0.009 C 
ATOM     22  C   UNL     1       4.842   5.723  -0.447  0.00  0.00    +0.039 C 
ENDBRANCH   1  22
BRANCH  15  23
ATOM     23  C   UNL     1      -4.611   4.147   0.006  0.00  0.00    +0.077 C 
BRANCH  23  24
ATOM     24  C   UNL     1      -5.172   4.208  -1.391  0.00  0.00    -0.040 A 
ATOM     25  C   UNL     1      -4.460   3.668  -2.446  0.00  0.00    +0.007 A 
ATOM     26  C   UNL     1      -4.975   3.724  -3.728  0.00  0.00    -0.050 A 
ATOM     27  C   UNL     1      -6.202   4.320  -3.954  0.00  0.00    +0.003 A 
ATOM     28  C   UNL     1      -6.912   4.861  -2.900  0.00  0.00    +0.004 A 
ATOM     29  C   UNL     1      -6.400   4.800  -1.617  0.00  0.00    -0.047 A 
ATOM     30  C   UNL     1      -7.178   5.384  -0.466  0.00  0.00    +0.044 C 
ATOM     31  C   UNL     1      -4.200   3.134  -4.878  0.00  0.00    +0.044 C 
ENDBRANCH  23  24
ENDBRANCH  15  23
TORSDOF 3
