REMARK  Name = ZINC09311108
REMARK  9 active torsions:
REMARK  status: ('A' for Active; 'I' for Inactive)
REMARK    1  A    between atoms: C_1  and  C_2
REMARK    2  A    between atoms: C_2  and  C_3
REMARK    3  A    between atoms: C_2  and  C_4
REMARK    4  A    between atoms: C_11  and  C_12
REMARK    5  A    between atoms: C_11  and  N_69
REMARK    6  A    between atoms: C_12  and  N_13
REMARK    7  A    between atoms: C_14  and  C_15
REMARK    8  A    between atoms: C_14  and  C_36
REMARK    9  A    between atoms: C_16  and  C_30
REMARK                            x       y       z     vdW  Elec       q    Type
REMARK                         _______ _______ _______ _____ _____    ______ ____
ROOT
ATOM      1  C   UNL     1      -1.945   0.805   3.507  0.00  0.00    +0.171 C 
ATOM      2  C   UNL     1      -3.191   1.598   3.497  0.00  0.00    +0.085 C 
ATOM      3  N   UNL     1      -3.571   1.734   4.742  0.00  0.00    -0.174 NA
ATOM      4  N   UNL     1      -2.671   1.091   5.593  0.00  0.00    -0.135 N 
ATOM      5  C   UNL     1      -1.686   0.518   4.876  0.00  0.00    +0.256 C 
ATOM      6  O   UNL     1      -0.747  -0.123   5.317  0.00  0.00    -0.272 OA
ATOM      7  C   UNL     1      -2.780   1.044   6.975  0.00  0.00    +0.189 A 
ATOM      8  N   UNL     1      -3.704   1.566   7.747  0.00  0.00    -0.223 NA
ATOM      9  C   UNL     1      -3.685   1.440   9.091  0.00  0.00    +0.080 A 
ATOM     10  C   UNL     1      -4.612   1.949  10.030  0.00  0.00    +0.029 A 
ATOM     11  C   UNL     1      -4.443   1.728  11.371  0.00  0.00    +0.002 A 
ATOM     12  C   UNL     1      -3.364   1.002  11.856  0.00  0.00    +0.001 A 
ATOM     13  C   UNL     1      -2.438   0.489  10.967  0.00  0.00    +0.017 A 
ATOM     14  C   UNL     1      -2.599   0.705   9.621  0.00  0.00    +0.041 A 
ATOM     15  S   UNL     1      -1.701   0.249   8.158  0.00  0.00    -0.050 S 
ENDROOT
BRANCH   2  16
ATOM     16  C   UNL     1      -3.882   2.136   2.302  0.00  0.00    -0.001 A 
ATOM     17  C   UNL     1      -3.503   3.368   1.770  0.00  0.00    +0.010 A 
ATOM     18  C   UNL     1      -4.148   3.862   0.654  0.00  0.00    +0.001 A 
ATOM     19  C   UNL     1      -5.175   3.142   0.070  0.00  0.00    +0.000 A 
ATOM     20  C   UNL     1      -5.559   1.922   0.597  0.00  0.00    +0.001 A 
ATOM     21  C   UNL     1      -4.918   1.415   1.709  0.00  0.00    +0.010 A 
ENDBRANCH   2  16
BRANCH   1  23
ATOM     22  N   UNL     1      -1.514   0.863   1.182  0.00  0.00    -0.293 NA
ATOM     23  C   UNL     1      -1.192   0.419   2.415  0.00  0.00    +0.028 C 
ATOM     24  C   UNL     1      -0.011  -0.499   2.600  0.00  0.00    +0.061 C 
BRANCH  22  25
ATOM     25  C   UNL     1      -0.716   0.453   0.024  0.00  0.00    +0.123 C 
BRANCH  25  26
ATOM     26  C   UNL     1      -1.290   1.091  -1.243  0.00  0.00    -0.055 C 
BRANCH  26  34
ATOM     27  C   UNL     1       1.691   1.424  -5.765  0.00  0.00    +0.218 C 
ATOM     28  O   UNL     1       1.135   1.539  -6.837  0.00  0.00    -0.275 OA
ATOM     29  N   UNL     1       1.040   0.863  -4.726  0.00  0.00    -0.305 N 
ATOM     30  C   UNL     1      -0.374   0.475  -4.841  0.00  0.00    +0.089 C 
ATOM     31  C   UNL     1      -1.141   1.076  -3.659  0.00  0.00    -0.059 C 
ATOM     32  C   UNL     1       0.875   1.218  -2.320  0.00  0.00    -0.059 C 
ATOM     33  C   UNL     1       1.726   0.623  -3.447  0.00  0.00    +0.089 C 
ATOM     34  N   UNL     1      -0.488   0.650  -2.403  0.00  0.00    +0.383 N 
ATOM     35  H   UNL     1      -0.422  -0.375  -2.392  0.00  0.00    -0.082 HD
BRANCH  27  37
ATOM     36  C   UNL     1       3.810   1.919  -6.953  0.00  0.00    +0.017 C 
ATOM     37  C   UNL     1       3.107   1.908  -5.594  0.00  0.00    +0.069 C 
ATOM     38  C   UNL     1       3.096   3.324  -5.014  0.00  0.00    +0.017 C 
ENDBRANCH  27  37
ENDBRANCH  26  34
ENDBRANCH  25  26
ENDBRANCH  22  25
ENDBRANCH   1  23
TORSDOF 6
