REMARK  Name = ZINC58549591
REMARK  4 active torsions:
REMARK  status: ('A' for Active; 'I' for Inactive)
REMARK    1  A    between atoms: C_1  and  C_2
REMARK    2  A    between atoms: N_16  and  C_17
REMARK    3  A    between atoms: C_17  and  C_18
REMARK    4  A    between atoms: N_23  and  C_24
REMARK                            x       y       z     vdW  Elec       q    Type
REMARK                         _______ _______ _______ _____ _____    ______ ____
ROOT
ATOM      1  C   UNL     1      -0.199   1.371   0.248  0.00  0.00    -0.008 C 
ATOM      2  C   UNL     1       0.023  -0.113  -0.052  0.00  0.00    -0.040 C 
ATOM      3  C   UNL     1      -1.308  -0.816  -0.089  0.00  0.00    -0.054 A 
ATOM      4  C   UNL     1      -2.379  -0.177  -0.695  0.00  0.00    +0.051 A 
ATOM      5  C   UNL     1      -3.619  -0.790  -0.755  0.00  0.00    +0.162 A 
ATOM      6  C   UNL     1      -3.790  -2.055  -0.205  0.00  0.00    +0.162 A 
ATOM      7  C   UNL     1      -2.719  -2.688   0.403  0.00  0.00    +0.053 A 
ATOM      8  C   UNL     1      -1.480  -2.069   0.463  0.00  0.00    -0.038 A 
ATOM      9  C   UNL     1      -0.343  -2.784   1.141  0.00  0.00    -0.019 C 
ATOM     10  C   UNL     1      -0.341  -4.267   0.728  0.00  0.00    +0.010 C 
ATOM     11  C   UNL     1       0.073  -5.019   2.018  0.00  0.00    +0.001 C 
ATOM     12  C   UNL     1      -0.644  -4.213   3.130  0.00  0.00    +0.001 C 
ATOM     13  C   UNL     1      -0.534  -2.745   2.665  0.00  0.00    +0.010 C 
ATOM     14  C   UNL     1       0.991  -2.142   0.766  0.00  0.00    -0.066 C 
ATOM     15  N   UNL     1       0.887  -0.690   0.982  0.00  0.00    +0.390 N 
ATOM     16  O   UNL     1      -4.996  -2.683  -0.262  0.00  0.00    -0.485 OA
ATOM     17  C   UNL     1      -6.135  -1.863  -0.547  0.00  0.00    +0.270 C 
ATOM     18  C   UNL     1      -5.784  -0.946  -1.726  0.00  0.00    +0.270 C 
ATOM     19  O   UNL     1      -4.659  -0.145  -1.352  0.00  0.00    -0.485 OA
ATOM     20  H   UNL     1       0.489  -0.511   1.892  0.00  0.00    -0.080 HD
ENDROOT
BRANCH  15  21
ATOM     21  C   UNL     1       2.223  -0.085   0.900  0.00  0.00    +0.020 C 
BRANCH  21  22
ATOM     22  C   UNL     1       3.068  -0.577   2.047  0.00  0.00    +0.204 C 
ATOM     23  O   UNL     1       2.575  -1.273   2.908  0.00  0.00    -0.277 OA
ATOM     24  N   UNL     1       4.372  -0.243   2.115  0.00  0.00    -0.242 N 
ATOM     25  C   UNL     1       5.128  -0.682   3.141  0.00  0.00    +0.306 C 
ATOM     26  O   UNL     1       4.633  -1.380   4.004  0.00  0.00    -0.252 OA
ATOM     27  N   UNL     1       6.431  -0.348   3.209  0.00  0.00    -0.295 N 
ATOM     28  H   UNL     1       4.766   0.314   1.426  0.00  0.00    +0.159 HD
ATOM     29  H   UNL     1       6.826   0.209   2.519  0.00  0.00    +0.151 HD
BRANCH  27  30
ATOM     30  C   UNL     1       7.253  -0.826   4.324  0.00  0.00    +0.097 C 
ATOM     31  C   UNL     1       7.129   0.142   5.512  0.00  0.00    +0.046 C 
ATOM     32  C   UNL     1       8.223  -0.170   6.562  0.00  0.00    +0.168 C 
ATOM     33  S   UNL     1       9.573  -0.886   5.539  0.00  0.00    -0.029 S 
ATOM     34  O   UNL     1      10.665   0.022   5.514  0.00  0.00    -0.174 OA
ATOM     35  O   UNL     1       9.791  -2.232   5.939  0.00  0.00    -0.174 OA
ATOM     36  C   UNL     1       8.747  -0.875   3.893  0.00  0.00    +0.188 C 
ENDBRANCH  27  30
ENDBRANCH  21  22
ENDBRANCH  15  21
TORSDOF 3
