REMARK  Name = ZINC45644204
REMARK  7 active torsions:
REMARK  status: ('A' for Active; 'I' for Inactive)
REMARK    1  A    between atoms: C_3  and  C_19
REMARK    2  A    between atoms: C_5  and  S_7
REMARK    3  A    between atoms: S_7  and  N_10
REMARK    4  A    between atoms: N_21  and  C_22
REMARK    5  A    between atoms: C_22  and  C_23
REMARK    6  A    between atoms: C_23  and  C_25
REMARK    7  A    between atoms: C_23  and  N_30
REMARK                            x       y       z     vdW  Elec       q    Type
REMARK                         _______ _______ _______ _____ _____    ______ ____
ROOT
ATOM      1  C   UNL     1      -0.318   1.818   0.752  0.00  0.00    +0.003 A 
ATOM      2  C   UNL     1       0.913   2.420   0.587  0.00  0.00    +0.013 A 
ATOM      3  C   UNL     1       2.065   1.636   0.514  0.00  0.00    +0.039 A 
ATOM      4  C   UNL     1       1.964   0.247   0.610  0.00  0.00    +0.041 A 
ATOM      5  C   UNL     1       0.728  -0.342   0.775  0.00  0.00    +0.106 A 
ATOM      6  C   UNL     1      -0.411   0.441   0.847  0.00  0.00    +0.028 A 
ENDROOT
BRANCH   3   7
ATOM      7  C   UNL     1       3.387   2.273   0.337  0.00  0.00    +0.244 C 
ATOM      8  O   UNL     1       4.389   1.588   0.274  0.00  0.00    -0.270 OA
ATOM      9  N   UNL     1       3.482   3.615   0.244  0.00  0.00    -0.312 N 
ATOM     10  H   UNL     1       2.682   4.162   0.294  0.00  0.00    +0.149 HD
BRANCH   9  11
ATOM     11  C   UNL     1       4.791   4.247   0.068  0.00  0.00    +0.097 C 
BRANCH  11  12
ATOM     12  C   UNL     1       4.608   5.751  -0.139  0.00  0.00    +0.016 C 
BRANCH  12  13
ATOM     13  N   UNL     1       3.678   5.983  -1.252  0.00  0.00    +0.387 N 
ATOM     14  C   UNL     1       4.226   5.391  -2.477  0.00  0.00    -0.078 C 
ATOM     15  C   UNL     1       3.224   5.558  -3.622  0.00  0.00    -0.019 C 
ATOM     16  C   UNL     1       2.960   7.049  -3.848  0.00  0.00    -0.004 C 
ATOM     17  C   UNL     1       2.459   7.673  -2.542  0.00  0.00    -0.019 C 
ATOM     18  C   UNL     1       3.489   7.427  -1.437  0.00  0.00    -0.078 C 
ATOM     19  H   UNL     1       2.789   5.553  -1.041  0.00  0.00    -0.081 HD
ENDBRANCH  12  13
BRANCH  12  20
ATOM     20  C   UNL     1       4.050   6.367   1.119  0.00  0.00    +0.093 A 
ATOM     21  C   UNL     1       4.758   7.034   2.049  0.00  0.00    +0.043 A 
ATOM     22  C   UNL     1       3.843   7.434   3.050  0.00  0.00    +0.041 A 
ATOM     23  C   UNL     1       2.631   6.988   2.671  0.00  0.00    +0.195 A 
ATOM     24  O   UNL     1       2.762   6.347   1.498  0.00  0.00    -0.469 OA
ENDBRANCH  12  20
ENDBRANCH  11  12
ENDBRANCH   9  11
ENDBRANCH   3   7
BRANCH   5  25
ATOM     25  S   UNL     1       0.598  -2.095   0.896  0.00  0.00    +0.061 S 
ATOM     26  O   UNL     1      -0.725  -2.432   0.500  0.00  0.00    -0.153 OA
ATOM     27  O   UNL     1       1.746  -2.632   0.254  0.00  0.00    -0.153 OA
BRANCH  25  28
ATOM     28  N   UNL     1       0.726  -2.487   2.500  0.00  0.00    -0.172 NA
ATOM     29  C   UNL     1       2.042  -2.759   3.098  0.00  0.00    +0.115 C 
ATOM     30  C   UNL     1       2.329  -1.672   4.146  0.00  0.00    +0.060 C 
ATOM     31  C   UNL     1       1.088  -1.436   4.943  0.00  0.00    -0.004 A 
ATOM     32  C   UNL     1      -0.185  -1.803   4.637  0.00  0.00    -0.021 A 
ATOM     33  C   UNL     1      -1.176  -1.452   5.553  0.00  0.00    +0.013 A 
ATOM     34  C   UNL     1      -0.846  -0.784   6.682  0.00  0.00    +0.046 A 
ATOM     35  S   UNL     1       0.923  -0.612   6.505  0.00  0.00    -0.101 S 
ATOM     36  C   UNL     1      -0.472  -2.561   3.347  0.00  0.00    +0.145 C 
ENDBRANCH  25  28
ENDBRANCH   5  25
TORSDOF 7
