REMARK  Name = ZINC14978024
REMARK  5 active torsions:
REMARK  status: ('A' for Active; 'I' for Inactive)
REMARK    1  A    between atoms: C_1  and  C_2
REMARK    2  A    between atoms: C_5  and  C_7
REMARK    3  A    between atoms: C_7  and  N_42
REMARK    4  A    between atoms: C_10  and  C_13
REMARK    5  A    between atoms: C_13  and  C_20
REMARK                            x       y       z     vdW  Elec       q    Type
REMARK                         _______ _______ _______ _____ _____    ______ ____
ROOT
ATOM      1  C   UNL     1       3.893   0.829   2.169  0.00  0.00    -0.078 C 
ATOM      2  C   UNL     1       4.271   1.089   3.629  0.00  0.00    -0.013 C 
ATOM      3  C   UNL     1       5.772   1.375   3.719  0.00  0.00    +0.018 C 
ATOM      4  C   UNL     1       6.111   2.572   2.826  0.00  0.00    -0.013 C 
ATOM      5  C   UNL     1       5.679   2.269   1.390  0.00  0.00    -0.078 C 
ATOM      6  N   UNL     1       4.221   2.028   1.367  0.00  0.00    +0.383 N 
ATOM      7  H   UNL     1       3.742   2.841   1.773  0.00  0.00    -0.081 HD
ENDROOT
BRANCH   3   8
ATOM      8  C   UNL     1       6.147   1.695   5.167  0.00  0.00    +0.112 C 
ATOM      9  C   UNL     1       7.634   1.969   5.285  0.00  0.00    +0.244 C 
ATOM     10  O   UNL     1       8.261   2.853   4.743  0.00  0.00    -0.273 OA
ATOM     11  N   UNL     1       8.113   1.024   6.118  0.00  0.00    -0.238 N 
ATOM     12  C   UNL     1       7.147   0.199   6.538  0.00  0.00    +0.307 C 
ATOM     13  O   UNL     1       7.335  -0.732   7.296  0.00  0.00    -0.252 OA
ATOM     14  N   UNL     1       5.943   0.517   6.028  0.00  0.00    -0.285 N 
ATOM     15  C   UNL     1       5.335   2.885   5.682  0.00  0.00    +0.042 C 
ATOM     16  H   UNL     1       9.044   0.950   6.380  0.00  0.00    +0.159 HD
ATOM     17  H   UNL     1       5.104   0.059   6.194  0.00  0.00    +0.151 HD
ENDBRANCH   3   8
BRANCH   6  18
ATOM     18  C   UNL     1       3.761   1.845  -0.025  0.00  0.00    -0.036 C 
BRANCH  18  23
ATOM     19  C   UNL     1      -1.155  -0.969   0.007  0.00  0.00    +0.051 C 
ATOM     20  C   UNL     1       0.002  -0.004   0.002  0.00  0.00    -0.013 A 
ATOM     21  C   UNL     1      -0.016   1.351   0.009  0.00  0.00    +0.011 A 
ATOM     22  C   UNL     1       1.183   2.038   0.002  0.00  0.00    +0.009 A 
ATOM     23  C   UNL     1       2.343   1.336  -0.013  0.00  0.00    -0.026 A 
ATOM     24  S   UNL     1       1.754  -0.349  -0.017  0.00  0.00    -0.100 S 
ENDBRANCH  18  23
ENDBRANCH   6  18
TORSDOF 3
