REMARK  Name = ZINC61830741
REMARK  9 active torsions:
REMARK  status: ('A' for Active; 'I' for Inactive)
REMARK    1  A    between atoms: C_1  and  C_2
REMARK    2  A    between atoms: C_2  and  C_4
REMARK    3  A    between atoms: C_2  and  C_21
REMARK    4  A    between atoms: C_4  and  C_5
REMARK    5  A    between atoms: C_5  and  C_7
REMARK    6  A    between atoms: C_5  and  N_20
REMARK    7  A    between atoms: C_21  and  C_22
REMARK    8  A    between atoms: C_22  and  O_24
REMARK    9  A    between atoms: O_24  and  C_25
REMARK                            x       y       z     vdW  Elec       q    Type
REMARK                         _______ _______ _______ _____ _____    ______ ____
ROOT
ATOM      1  C   UNL     1       0.014   0.133  -2.493  0.00  0.00    -0.043 C 
ENDROOT
BRANCH   1   2
ATOM      2  C   UNL     1       0.594  -0.443  -3.759  0.00  0.00    -0.046 A 
ATOM      3  C   UNL     1       1.532   0.275  -4.475  0.00  0.00    +0.031 A 
ATOM      4  C   UNL     1       2.064  -0.255  -5.640  0.00  0.00    +0.067 A 
ATOM      5  C   UNL     1       1.651  -1.512  -6.085  0.00  0.00    +0.068 A 
ATOM      6  C   UNL     1       0.709  -2.226  -5.361  0.00  0.00    +0.043 A 
ATOM      7  C   UNL     1       0.188  -1.693  -4.197  0.00  0.00    +0.022 A 
ATOM      8 BR   UNL     1      -1.091  -2.670  -3.204  0.00  0.00    -0.050 Br
ATOM      9  N   UNL     1       2.350  -1.773  -7.262  0.00  0.00    -0.306 N 
ATOM     10  H   UNL     1       2.272  -2.574  -7.803  0.00  0.00    +0.170 HD
ATOM     11  C   UNL     1       3.151  -0.722  -7.520  0.00  0.00    +0.325 A 
ATOM     12  O   UNL     1       3.897  -0.629  -8.477  0.00  0.00    -0.247 OA
ATOM     13  N   UNL     1       3.002   0.210  -6.560  0.00  0.00    -0.306 N 
ATOM     14  H   UNL     1       3.467   1.060  -6.517  0.00  0.00    +0.170 HD
ENDBRANCH   1   2
BRANCH   1  15
ATOM     15  N   UNL     1       0.097   1.598  -2.539  0.00  0.00    +0.383 N 
ATOM     16  H   UNL     1       1.066   1.881  -2.514  0.00  0.00    -0.089 HD
ATOM     17  H   UNL     1      -0.329   1.933  -3.389  0.00  0.00    -0.089 HD
ATOM     18  H   UNL     1      -0.387   1.988  -1.744  0.00  0.00    -0.089 HD
ENDBRANCH   1  15
BRANCH   1  19
ATOM     19  C   UNL     1       0.804  -0.386  -1.289  0.00  0.00    -0.008 C 
BRANCH  19  21
ATOM     20  C   UNL     1       1.027  -0.275   1.197  0.00  0.00    +0.008 C 
ATOM     21  C   UNL     1       0.158   0.122   0.002  0.00  0.00    -0.005 C 
BRANCH  21  22
ATOM     22  C   UNL     1      -1.233  -0.497   0.154  0.00  0.00    +0.123 C 
BRANCH  22  23
ATOM     23  C   UNL     1      -1.917   0.096   1.358  0.00  0.00    +0.307 C 
ATOM     24  O   UNL     1      -1.351   0.928   2.026  0.00  0.00    -0.251 OA
BRANCH  23  25
ATOM     25  O   UNL     1      -3.156  -0.301   1.689  0.00  0.00    -0.468 OA
ATOM     26  C   UNL     1      -3.745   0.303   2.843  0.00  0.00    +0.280 C 
ENDBRANCH  23  25
ENDBRANCH  22  23
ENDBRANCH  21  22
ENDBRANCH  19  21
ENDBRANCH   1  19
TORSDOF 7
