REMARK  Name = ZINC18749266
REMARK  7 active torsions:
REMARK  status: ('A' for Active; 'I' for Inactive)
REMARK    1  A    between atoms: C_3  and  C_9
REMARK    2  A    between atoms: C_4  and  N_8
REMARK    3  A    between atoms: C_9  and  O_11
REMARK    4  A    between atoms: O_11  and  C_12
REMARK    5  A    between atoms: C_12  and  C_13
REMARK    6  A    between atoms: N_15  and  C_16
REMARK    7  A    between atoms: C_19  and  N_23
REMARK                            x       y       z     vdW  Elec       q    Type
REMARK                         _______ _______ _______ _____ _____    ______ ____
ROOT
ATOM      1  C   UNL     1      -3.573   3.214  -0.407  0.00  0.00    +0.255 C 
ATOM      2  O   UNL     1      -3.546   2.037  -0.700  0.00  0.00    -0.272 OA
ATOM      3  N   UNL     1      -2.443   3.839  -0.021  0.00  0.00    -0.281 N 
ATOM      4  H   UNL     1      -2.474   4.766   0.261  0.00  0.00    +0.155 HD
ENDROOT
BRANCH   3   5
ATOM      5  C   UNL     1      -1.224   3.150  -0.029  0.00  0.00    +0.062 A 
ATOM      6  C   UNL     1      -0.359   3.254   1.052  0.00  0.00    +0.042 A 
ATOM      7  C   UNL     1       0.846   2.576   1.039  0.00  0.00    +0.050 A 
ATOM      8  C   UNL     1       1.185   1.788  -0.045  0.00  0.00    +0.128 A 
ATOM      9  C   UNL     1       0.324   1.678  -1.121  0.00  0.00    +0.050 A 
ATOM     10  C   UNL     1      -0.880   2.357  -1.117  0.00  0.00    +0.042 A 
ATOM     11 BR   UNL     1      -2.057   2.207  -2.589  0.00  0.00    -0.048 Br
ATOM     12 BR   UNL     1      -0.825   4.326   2.538  0.00  0.00    -0.048 Br
BRANCH   8  13
ATOM     13  N   UNL     1       2.474   1.059  -0.054  0.00  0.00    +0.056 N 
ATOM     14  O   UNL     1       3.234   1.155   0.893  0.00  0.00    -0.126 OA
ATOM     15  O   UNL     1       2.774   0.364  -1.008  0.00  0.00    -0.126 OA
ENDBRANCH   8  13
ENDBRANCH   3   5
BRANCH   1  16
ATOM     16  C   UNL     1      -4.871   3.976  -0.473  0.00  0.00    +0.328 C 
BRANCH  16  17
ATOM     17  O   UNL     1      -5.933   3.088  -0.911  0.00  0.00    -0.452 OA
BRANCH  17  18
ATOM     18  C   UNL     1      -7.167   3.618  -1.024  0.00  0.00    +0.341 C 
ATOM     19  O   UNL     1      -7.351   4.791  -0.763  0.00  0.00    -0.245 OA
BRANCH  18  22
ATOM     20  C   UNL     1      -9.168   0.620  -2.056  0.00  0.00    +0.039 A 
ATOM     21  C   UNL     1      -8.113   1.402  -1.645  0.00  0.00    +0.019 A 
ATOM     22  C   UNL     1      -8.292   2.777  -1.463  0.00  0.00    +0.080 A 
ATOM     23  C   UNL     1      -9.554   3.350  -1.696  0.00  0.00    +0.041 A 
ATOM     24  C   UNL     1     -10.605   2.547  -2.115  0.00  0.00    +0.061 A 
ATOM     25  C   UNL     1     -10.413   1.189  -2.291  0.00  0.00    +0.125 A 
ATOM     26  F   UNL     1     -11.442   0.412  -2.694  0.00  0.00    -0.205 F 
BRANCH  23  27
ATOM     27  N   UNL     1      -9.746   4.713  -1.512  0.00  0.00    -0.357 N 
ATOM     28  H   UNL     1      -8.994   5.322  -1.580  0.00  0.00    +0.142 HD
ATOM     29  H   UNL     1     -10.632   5.056  -1.317  0.00  0.00    +0.142 HD
ENDBRANCH  23  27
ENDBRANCH  18  22
ENDBRANCH  17  18
ENDBRANCH  16  17
ENDBRANCH   1  16
TORSDOF 7
