REMARK  Name = ZINC13573297
REMARK  10 active torsions:
REMARK  status: ('A' for Active; 'I' for Inactive)
REMARK    1  A    between atoms: C_1  and  C_2
REMARK    2  A    between atoms: N_4  and  C_32
REMARK    3  A    between atoms: C_8  and  C_9
REMARK    4  A    between atoms: N_11  and  C_18
REMARK    5  A    between atoms: C_18  and  C_19
REMARK    6  A    between atoms: C_19  and  C_21
REMARK    7  A    between atoms: C_19  and  O_31
REMARK    8  A    between atoms: C_21  and  N_22
REMARK    9  A    between atoms: N_22  and  C_23
REMARK   10  A    between atoms: C_23  and  C_24
REMARK                            x       y       z     vdW  Elec       q    Type
REMARK                         _______ _______ _______ _____ _____    ______ ____
ROOT
ATOM      1  C   UNL     1      -0.038  -1.511   3.494  0.00  0.00    +0.001 A 
ATOM      2  C   UNL     1      -0.020  -2.878   3.276  0.00  0.00    +0.094 A 
ATOM      3  N   UNL     1      -0.104  -3.523   4.454  0.00  0.00    -0.344 N 
ATOM      4  C   UNL     1      -0.181  -2.625   5.500  0.00  0.00    +0.050 A 
ATOM      5  C   UNL     1      -0.138  -1.332   4.957  0.00  0.00    +0.007 A 
ATOM      6  C   UNL     1      -0.194  -0.221   5.793  0.00  0.00    +0.010 A 
ATOM      7  C   UNL     1      -0.289  -0.396   7.157  0.00  0.00    +0.001 A 
ATOM      8  C   UNL     1      -0.328  -1.673   7.696  0.00  0.00    +0.002 A 
ATOM      9  C   UNL     1      -0.281  -2.782   6.878  0.00  0.00    +0.026 A 
ENDROOT
BRANCH   1  17
ATOM     10  C   UNL     1       0.114   1.469  -0.015  0.00  0.00    +0.068 C 
ATOM     11  C   UNL     1       0.886   0.193   0.201  0.00  0.00    +0.069 C 
ATOM     12  N   UNL     1       1.741  -0.335  -0.622  0.00  0.00    -0.177 NA
ATOM     13  N   UNL     1       2.274  -1.518  -0.109  0.00  0.00    -0.156 N 
ATOM     14  C   UNL     1       1.746  -1.775   1.104  0.00  0.00    +0.272 C 
ATOM     15  O   UNL     1       1.995  -2.727   1.825  0.00  0.00    -0.268 OA
ATOM     16  C   UNL     1       0.814  -0.675   1.384  0.00  0.00    +0.062 C 
ATOM     17  C   UNL     1       0.032  -0.496   2.519  0.00  0.00    +0.025 C 
BRANCH  13  18
ATOM     18  C   UNL     1       3.220  -2.320  -0.760  0.00  0.00    +0.060 A 
ATOM     19  C   UNL     1       3.679  -3.483  -0.156  0.00  0.00    +0.025 A 
ATOM     20  C   UNL     1       4.612  -4.272  -0.800  0.00  0.00    +0.002 A 
ATOM     21  C   UNL     1       5.089  -3.904  -2.045  0.00  0.00    +0.000 A 
ATOM     22  C   UNL     1       4.635  -2.746  -2.648  0.00  0.00    +0.002 A 
ATOM     23  C   UNL     1       3.697  -1.956  -2.012  0.00  0.00    +0.025 A 
ENDBRANCH  13  18
ENDBRANCH   1  17
BRANCH   3  24
ATOM     24  C   UNL     1      -0.114  -4.980   4.605  0.00  0.00    +0.151 C 
BRANCH  24  25
ATOM     25  C   UNL     1      -1.560  -5.476   4.679  0.00  0.00    +0.117 C 
BRANCH  25  26
ATOM     26  O   UNL     1      -2.177  -4.968   5.863  0.00  0.00    -0.392 OA
ATOM     27  H   UNL     1      -1.741  -5.240   6.682  0.00  0.00    +0.210 HD
ENDBRANCH  25  26
BRANCH  25  28
ATOM     28  C   UNL     1      -1.574  -7.005   4.712  0.00  0.00    -0.049 C 
BRANCH  28  29
ATOM     29  N   UNL     1      -2.962  -7.484   4.661  0.00  0.00    +0.383 N 
ATOM     30  H   UNL     1      -3.470  -7.125   5.456  0.00  0.00    -0.085 HD
ATOM     31  H   UNL     1      -3.398  -7.161   3.811  0.00  0.00    -0.085 HD
BRANCH  29  32
ATOM     32  C   UNL     1      -2.975  -8.952   4.693  0.00  0.00    -0.047 C 
BRANCH  32  33
ATOM     33  C   UNL     1      -4.399  -9.443   4.641  0.00  0.00    -0.064 A 
ATOM     34  C   UNL     1      -5.106  -9.636   5.814  0.00  0.00    +0.004 A 
ATOM     35  C   UNL     1      -6.412 -10.086   5.768  0.00  0.00    +0.038 A 
ATOM     36  C   UNL     1      -7.013 -10.342   4.547  0.00  0.00    +0.123 A 
ATOM     37  C   UNL     1      -6.304 -10.148   3.373  0.00  0.00    +0.038 A 
ATOM     38  C   UNL     1      -5.000  -9.694   3.422  0.00  0.00    +0.004 A 
ATOM     39  F   UNL     1      -8.289 -10.782   4.501  0.00  0.00    -0.205 F 
ENDBRANCH  32  33
ENDBRANCH  29  32
ENDBRANCH  28  29
ENDBRANCH  25  28
ENDBRANCH  24  25
ENDBRANCH   3  24
TORSDOF 9
