REMARK  Name = ZINC09958943
REMARK  10 active torsions:
REMARK  status: ('A' for Active; 'I' for Inactive)
REMARK    1  A    between atoms: C_1  and  C_2
REMARK    2  A    between atoms: C_2  and  C_4
REMARK    3  A    between atoms: C_2  and  N_53
REMARK    4  A    between atoms: C_7  and  S_16
REMARK    5  A    between atoms: N_8  and  C_9
REMARK    6  A    between atoms: S_16  and  C_17
REMARK    7  A    between atoms: C_17  and  C_18
REMARK    8  A    between atoms: N_20  and  C_21
REMARK    9  A    between atoms: C_32  and  N_53
REMARK   10  A    between atoms: C_33  and  N_53
REMARK                            x       y       z     vdW  Elec       q    Type
REMARK                         _______ _______ _______ _____ _____    ______ ____
ROOT
ATOM      1  C   UNL     1       1.201   1.746   0.024  0.00  0.00    +0.125 A 
ATOM      2  N   UNL     1      -0.016   1.281   0.038  0.00  0.00    -0.135 NA
ATOM      3  N   UNL     1       0.002  -0.004   0.025  0.00  0.00    -0.122 NA
ATOM      4  C   UNL     1       1.242  -0.434   0.001  0.00  0.00    +0.197 A 
ATOM      5  N   UNL     1       2.049   0.670   0.000  0.00  0.00    -0.275 N 
ENDROOT
BRANCH   5   6
ATOM      6  C   UNL     1       3.451   0.696  -0.021  0.00  0.00    +0.050 A 
ATOM      7  C   UNL     1       4.153   1.211   1.061  0.00  0.00    +0.028 A 
ATOM      8  C   UNL     1       5.534   1.232   1.040  0.00  0.00    +0.022 A 
ATOM      9  C   UNL     1       6.217   0.748  -0.062  0.00  0.00    +0.041 A 
ATOM     10  C   UNL     1       5.520   0.239  -1.143  0.00  0.00    +0.022 A 
ATOM     11  C   UNL     1       4.139   0.212  -1.125  0.00  0.00    +0.028 A 
ATOM     12 CL   UNL     1       7.953   0.780  -0.088  0.00  0.00    -0.084 Cl
ENDBRANCH   5   6
BRANCH   1  14
ATOM     13  C   UNL     1       1.356   3.804  -1.351  0.00  0.00    -0.005 C 
ATOM     14  C   UNL     1       1.602   3.199   0.033  0.00  0.00    -0.003 C 
BRANCH  14  17
ATOM     15  C   UNL     1       1.248   5.316   1.153  0.00  0.00    -0.096 C 
ATOM     16  C   UNL     1      -0.628   3.851   0.713  0.00  0.00    -0.096 C 
ATOM     17  N   UNL     1       0.808   3.909   1.058  0.00  0.00    +0.382 N 
ATOM     18  H   UNL     1       0.951   3.452   1.966  0.00  0.00    -0.082 HD
ENDBRANCH  14  17
ENDBRANCH   1  14
BRANCH   4  19
ATOM     19  S   UNL     1       1.768  -2.116  -0.024  0.00  0.00    -0.076 S 
BRANCH  19  20
ATOM     20  C   UNL     1       0.161  -2.948  -0.008  0.00  0.00    +0.173 C 
BRANCH  20  21
ATOM     21  C   UNL     1       0.367  -4.441  -0.027  0.00  0.00    +0.227 C 
ATOM     22  O   UNL     1       1.491  -4.897  -0.048  0.00  0.00    -0.275 OA
ATOM     23  N   UNL     1      -0.696  -5.269  -0.019  0.00  0.00    -0.285 N 
ATOM     24  H   UNL     1      -1.592  -4.907   0.066  0.00  0.00    +0.155 HD
BRANCH  23  25
ATOM     25  C   UNL     1      -0.508  -6.652  -0.134  0.00  0.00    +0.037 A 
ATOM     26  C   UNL     1       0.603  -7.252   0.445  0.00  0.00    +0.027 A 
ATOM     27  C   UNL     1       0.790  -8.616   0.333  0.00  0.00    +0.051 A 
ATOM     28  C   UNL     1      -0.130  -9.390  -0.357  0.00  0.00    +0.173 A 
ATOM     29  C   UNL     1      -1.245  -8.791  -0.938  0.00  0.00    +0.174 A 
ATOM     30  C   UNL     1      -1.434  -7.424  -0.821  0.00  0.00    +0.073 A 
ATOM     31  O   UNL     1      -1.989  -9.757  -1.552  0.00  0.00    -0.395 OA
ATOM     32  C   UNL     1      -1.535 -11.005  -0.993  0.00  0.00    +0.589 C 
ATOM     33  O   UNL     1      -0.175 -10.732  -0.607  0.00  0.00    -0.395 OA
ATOM     34  F   UNL     1      -2.304 -11.351   0.123  0.00  0.00    -0.125 F 
ATOM     35  F   UNL     1      -1.582 -12.020  -1.955  0.00  0.00    -0.125 F 
ENDBRANCH  23  25
ENDBRANCH  20  21
ENDBRANCH  19  20
ENDBRANCH   4  19
TORSDOF 7
