REMARK  Name = ZINC63383650
REMARK  11 active torsions:
REMARK  status: ('A' for Active; 'I' for Inactive)
REMARK    1  A    between atoms: C_1  and  C_2
REMARK    2  A    between atoms: C_2  and  C_3
REMARK    3  A    between atoms: C_3  and  C_5
REMARK    4  A    between atoms: C_3  and  C_6
REMARK    5  A    between atoms: C_6  and  C_8
REMARK    6  A    between atoms: C_6  and  N_16
REMARK    7  A    between atoms: N_10  and  C_11
REMARK    8  A    between atoms: C_11  and  C_13
REMARK    9  A    between atoms: C_11  and  C_14
REMARK   10  A    between atoms: C_14  and  C_15
REMARK   11  A    between atoms: C_17  and  C_19
REMARK                            x       y       z     vdW  Elec       q    Type
REMARK                         _______ _______ _______ _____ _____    ______ ____
ROOT
ATOM      1  C   UNL     1       0.155  -2.802  -5.465  0.00  0.00    +0.167 C 
ATOM      2  C   UNL     1      -0.788  -2.149  -6.494  0.00  0.00    +0.065 C 
ATOM      3  C   UNL     1      -2.182  -2.648  -6.199  0.00  0.00    -0.034 C 
ATOM      4  C   UNL     1      -3.316  -1.986  -5.994  0.00  0.00    -0.001 A 
ATOM      5  C   UNL     1      -3.640  -0.552  -6.073  0.00  0.00    +0.010 A 
ATOM      6  C   UNL     1      -4.922  -0.210  -5.776  0.00  0.00    +0.001 A 
ATOM      7  C   UNL     1      -5.902  -1.139  -5.414  0.00  0.00    +0.002 A 
ATOM      8  C   UNL     1      -5.694  -2.477  -5.325  0.00  0.00    +0.026 A 
ATOM      9  C   UNL     1      -4.386  -2.959  -5.621  0.00  0.00    +0.043 A 
ATOM     10  N   UNL     1      -3.921  -4.173  -5.633  0.00  0.00    -0.375 N 
ATOM     11  C   UNL     1      -2.522  -4.128  -6.065  0.00  0.00    +0.131 C 
ATOM     12  C   UNL     1      -1.582  -4.694  -4.995  0.00  0.00    +0.134 C 
ATOM     13  N   UNL     1      -0.215  -4.216  -5.318  0.00  0.00    -0.276 N 
ATOM     14  C   UNL     1       0.596  -5.279  -5.465  0.00  0.00    +0.248 C 
ATOM     15  O   UNL     1       1.794  -5.218  -5.659  0.00  0.00    -0.270 OA
ATOM     16  C   UNL     1      -0.173  -6.520  -5.355  0.00  0.00    +0.042 A 
ATOM     17  C   UNL     1      -1.533  -6.185  -5.064  0.00  0.00    -0.013 A 
ATOM     18  C   UNL     1      -2.510  -7.143  -4.903  0.00  0.00    +0.006 A 
ATOM     19  C   UNL     1      -2.117  -8.473  -5.030  0.00  0.00    +0.000 A 
ATOM     20  C   UNL     1      -0.810  -8.822  -5.305  0.00  0.00    +0.001 A 
ATOM     21  C   UNL     1       0.223  -7.854  -5.483  0.00  0.00    +0.013 A 
ATOM     22  H   UNL     1      -4.416  -4.972  -5.396  0.00  0.00    +0.160 HD
ENDROOT
BRANCH   1  24
ATOM     23  N   UNL     1       0.299  -0.788  -4.035  0.00  0.00    -0.302 N 
ATOM     24  C   UNL     1       0.018  -2.103  -4.137  0.00  0.00    +0.235 C 
ATOM     25  O   UNL     1      -0.346  -2.722  -3.160  0.00  0.00    -0.274 OA
ATOM     26  H   UNL     1       0.590  -0.293  -4.817  0.00  0.00    +0.150 HD
BRANCH  23  27
ATOM     27  C   UNL     1       0.165  -0.108  -2.744  0.00  0.00    +0.162 C 
BRANCH  27  28
ATOM     28  C   UNL     1      -0.074   1.362  -2.973  0.00  0.00    +0.234 C 
ATOM     29  O   UNL     1       0.203   1.862  -4.043  0.00  0.00    -0.274 OA
ATOM     30  N   UNL     1      -0.595   2.121  -1.990  0.00  0.00    -0.311 N 
ATOM     31  H   UNL     1      -0.756   1.736  -1.114  0.00  0.00    +0.149 HD
BRANCH  30  32
ATOM     32  C   UNL     1      -0.919   3.527  -2.243  0.00  0.00    +0.070 C 
ATOM     33  C   UNL     1      -2.322   3.627  -2.846  0.00  0.00    +0.028 C 
BRANCH  32  34
ATOM     34  C   UNL     1      -0.874   4.306  -0.927  0.00  0.00    +0.018 C 
ATOM     35  C   UNL     1       0.544   4.257  -0.354  0.00  0.00    +0.005 C 
ENDBRANCH  32  34
ENDBRANCH  30  32
ENDBRANCH  27  28
BRANCH  27  36
ATOM     36  C   UNL     1       1.450  -0.296  -1.934  0.00  0.00    +0.015 C 
ATOM     37  C   UNL     1       2.649   0.166  -2.764  0.00  0.00    +0.010 C 
BRANCH  36  39
ATOM     38  C   UNL     1       0.500  -2.197  -0.620  0.00  0.00    +0.004 C 
ATOM     39  C   UNL     1       1.616  -1.774  -1.577  0.00  0.00    +0.002 C 
ENDBRANCH  36  39
ENDBRANCH  27  36
ENDBRANCH  23  27
ENDBRANCH   1  24
TORSDOF 7
