REMARK  Name = ZINC20722807
REMARK  4 active torsions:
REMARK  status: ('A' for Active; 'I' for Inactive)
REMARK    1  A    between atoms: C_1  and  N_2
REMARK    2  A    between atoms: C_3  and  C_23
REMARK    3  A    between atoms: C_5  and  C_10
REMARK    4  A    between atoms: C_10  and  N_12
REMARK                            x       y       z     vdW  Elec       q    Type
REMARK                         _______ _______ _______ _____ _____    ______ ____
ROOT
ATOM      1  C   UNL     1       0.312   1.652   0.475  0.00  0.00    +0.132 C 
ATOM      2  N   UNL     1       0.168   0.220   0.198  0.00  0.00    -0.297 N 
ATOM      3  C   UNL     1      -1.105  -0.509   0.246  0.00  0.00    +0.118 C 
ATOM      4  C   UNL     1      -0.854  -1.827  -0.520  0.00  0.00    +0.111 C 
ATOM      5  C   UNL     1       0.674  -2.000  -0.357  0.00  0.00    +0.111 C 
ATOM      6  C   UNL     1       1.184  -0.593  -0.138  0.00  0.00    +0.217 C 
ATOM      7  O   UNL     1       2.342  -0.249  -0.248  0.00  0.00    -0.276 OA
ENDROOT
BRANCH   3   8
ATOM      8  C   UNL     1      -2.189   0.291  -0.429  0.00  0.00    -0.026 A 
ATOM      9  C   UNL     1      -1.898   1.037  -1.556  0.00  0.00    +0.005 A 
ATOM     10  C   UNL     1      -2.892   1.770  -2.175  0.00  0.00    +0.000 A 
ATOM     11  C   UNL     1      -4.178   1.757  -1.669  0.00  0.00    +0.000 A 
ATOM     12  C   UNL     1      -4.470   1.010  -0.543  0.00  0.00    +0.000 A 
ATOM     13  C   UNL     1      -3.476   0.273   0.074  0.00  0.00    +0.005 A 
ENDBRANCH   3   8
BRANCH   4  14
ATOM     14  C   UNL     1      -1.229  -1.686  -1.973  0.00  0.00    +0.244 C 
ATOM     15  O   UNL     1      -0.386  -1.373  -2.791  0.00  0.00    -0.273 OA
BRANCH  14  16
ATOM     16  N   UNL     1      -2.482  -1.904  -2.359  0.00  0.00    -0.156 NA
ATOM     17  C   UNL     1      -2.793  -1.879  -3.653  0.00  0.00    +0.164 A 
ATOM     18  N   UNL     1      -1.992  -1.543  -4.696  0.00  0.00    -0.335 N 
ATOM     19  H   UNL     1      -1.071  -1.282  -4.537  0.00  0.00    +0.168 HD
ATOM     20  C   UNL     1      -2.490  -1.575  -5.984  0.00  0.00    +0.055 A 
ATOM     21  C   UNL     1      -1.845  -1.270  -7.191  0.00  0.00    +0.027 A 
ATOM     22  C   UNL     1      -2.517  -1.362  -8.387  0.00  0.00    +0.002 A 
ATOM     23  C   UNL     1      -3.844  -1.756  -8.436  0.00  0.00    +0.001 A 
ATOM     24  C   UNL     1      -4.504  -2.062  -7.258  0.00  0.00    +0.017 A 
ATOM     25  C   UNL     1      -3.833  -1.970  -6.062  0.00  0.00    +0.039 A 
ATOM     26  S   UNL     1      -4.266  -2.263  -4.367  0.00  0.00    -0.052 S 
ENDBRANCH  14  16
ENDBRANCH   4  14
TORSDOF 3
