REMARK  Name = ZINC12375509
REMARK  5 active torsions:
REMARK  status: ('A' for Active; 'I' for Inactive)
REMARK    1  A    between atoms: C_5  and  C_7
REMARK    2  A    between atoms: C_7  and  N_8
REMARK    3  A    between atoms: C_18  and  C_35
REMARK    4  A    between atoms: C_19  and  N_34
REMARK    5  A    between atoms: N_20  and  C_27
REMARK                            x       y       z     vdW  Elec       q    Type
REMARK                         _______ _______ _______ _____ _____    ______ ____
ROOT
ATOM      1  N   UNL     1      -2.542   3.624  -0.205  0.00  0.00    -0.265 N 
ATOM      2  C   UNL     1      -1.345   3.164  -0.724  0.00  0.00    +0.041 A 
ATOM      3  C   UNL     1      -0.244   3.887  -1.188  0.00  0.00    +0.024 A 
ATOM      4  C   UNL     1       0.839   3.160  -1.659  0.00  0.00    +0.002 A 
ATOM      5  C   UNL     1       0.841   1.780  -1.675  0.00  0.00    +0.000 A 
ATOM      6  C   UNL     1      -0.249   1.049  -1.216  0.00  0.00    +0.007 A 
ATOM      7  C   UNL     1      -1.332   1.764  -0.751  0.00  0.00    -0.001 A 
ATOM      8  C   UNL     1      -2.650   1.323  -0.199  0.00  0.00    +0.144 C 
ATOM      9  C   UNL     1      -3.373   2.613   0.123  0.00  0.00    +0.241 C 
ATOM     10  O   UNL     1      -4.485   2.718   0.596  0.00  0.00    -0.274 OA
ATOM     11  C   UNL     1      -3.428   0.532  -1.212  0.00  0.00    +0.089 C 
ATOM     12  C   UNL     1      -3.679  -0.793  -1.073  0.00  0.00    +0.108 C 
ATOM     13  N   UNL     1      -3.239  -1.513   0.024  0.00  0.00    -0.257 N 
ATOM     14  C   UNL     1      -2.758  -0.818   1.099  0.00  0.00    +0.066 C 
ATOM     15  C   UNL     1      -2.467   0.508   1.053  0.00  0.00    +0.082 C 
ATOM     16  C   UNL     1      -1.999   0.922   2.309  0.00  0.00    +0.339 C 
ATOM     17  O   UNL     1      -1.658   2.058   2.578  0.00  0.00    -0.245 OA
ATOM     18  O   UNL     1      -1.978  -0.109   3.180  0.00  0.00    -0.455 OA
ATOM     19  C   UNL     1      -2.449  -1.279   2.493  0.00  0.00    +0.284 C 
ENDROOT
BRANCH  13  20
ATOM     20  C   UNL     1      -3.286  -2.912   0.032  0.00  0.00    +0.042 A 
ATOM     21  C   UNL     1      -4.399  -3.568   0.543  0.00  0.00    +0.024 A 
ATOM     22  C   UNL     1      -4.443  -4.948   0.550  0.00  0.00    +0.005 A 
ATOM     23  C   UNL     1      -3.381  -5.679   0.050  0.00  0.00    +0.038 A 
ATOM     24  C   UNL     1      -2.269  -5.029  -0.461  0.00  0.00    +0.125 A 
ATOM     25  C   UNL     1      -2.222  -3.646  -0.475  0.00  0.00    +0.062 A 
ATOM     26  F   UNL     1      -1.233  -5.745  -0.949  0.00  0.00    -0.205 F 
ENDBRANCH  13  20
BRANCH  12  27
ATOM     27  N   UNL     1      -4.392  -1.442  -2.053  0.00  0.00    -0.345 N 
ATOM     28  H   UNL     1      -4.779  -0.937  -2.785  0.00  0.00    +0.144 HD
ATOM     29  H   UNL     1      -4.507  -2.404  -2.012  0.00  0.00    +0.144 HD
ENDBRANCH  12  27
BRANCH  11  30
ATOM     30  C   UNL     1      -3.925   1.206  -2.373  0.00  0.00    +0.100 C 
ATOM     31  N   UNL     1      -4.320   1.741  -3.295  0.00  0.00    -0.191 NA
ENDBRANCH  11  30
BRANCH   1  32
ATOM     32  C   UNL     1      -2.875   5.042  -0.046  0.00  0.00    +0.151 C 
BRANCH  32  37
ATOM     33  C   UNL     1      -5.532   6.223  -2.454  0.00  0.00    +0.000 A 
ATOM     34  C   UNL     1      -4.787   6.463  -3.594  0.00  0.00    +0.003 A 
ATOM     35  C   UNL     1      -3.423   6.243  -3.587  0.00  0.00    +0.038 A 
ATOM     36  C   UNL     1      -2.801   5.788  -2.437  0.00  0.00    +0.128 A 
ATOM     37  C   UNL     1      -3.549   5.543  -1.298  0.00  0.00    +0.005 A 
ATOM     38  C   UNL     1      -4.913   5.764  -1.307  0.00  0.00    +0.008 A 
ATOM     39  F   UNL     1      -1.467   5.578  -2.427  0.00  0.00    -0.205 F 
ENDBRANCH  32  37
ENDBRANCH   1  32
TORSDOF 5
