REMARK  Name = ZINC01149642
REMARK  8 active torsions:
REMARK  status: ('A' for Active; 'I' for Inactive)
REMARK    1  A    between atoms: C_1  and  C_2
REMARK    2  A    between atoms: C_2  and  C_3
REMARK    3  A    between atoms: C_3  and  C_28
REMARK    4  A    between atoms: C_10  and  N_25
REMARK    5  A    between atoms: C_12  and  S_14
REMARK    6  A    between atoms: S_14  and  C_15
REMARK    7  A    between atoms: C_15  and  C_16
REMARK    8  A    between atoms: C_16  and  C_18
REMARK                            x       y       z     vdW  Elec       q    Type
REMARK                         _______ _______ _______ _____ _____    ______ ____
ROOT
ATOM      1  C   UNL     1       0.754  -2.510   1.593  0.00  0.00    +0.071 C 
ATOM      2  C   UNL     1       1.809  -1.772   0.765  0.00  0.00    +0.071 C 
ATOM      3  C   UNL     1       1.404  -0.301   0.681  0.00  0.00    -0.020 A 
ATOM      4  C   UNL     1       0.129   0.053   0.965  0.00  0.00    +0.021 A 
ATOM      5  S   UNL     1       0.076   1.813   0.756  0.00  0.00    -0.071 S 
ATOM      6  C   UNL     1       1.757   2.073   0.289  0.00  0.00    +0.115 A 
ATOM      7  C   UNL     1       2.313   0.768   0.311  0.00  0.00    +0.051 A 
ATOM      8  C   UNL     1       3.692   0.648  -0.029  0.00  0.00    +0.129 A 
ATOM      9  N   UNL     1       4.318   1.782  -0.334  0.00  0.00    -0.207 NA
ATOM     10  C   UNL     1       3.735   2.971  -0.334  0.00  0.00    +0.191 A 
ATOM     11  N   UNL     1       2.448   3.151  -0.025  0.00  0.00    -0.214 NA
ATOM     12  C   UNL     1      -0.979  -0.870   1.367  0.00  0.00    +0.203 C 
ATOM     13  O   UNL     1      -0.555  -2.216   1.097  0.00  0.00    -0.368 OA
ATOM     14  C   UNL     1       0.852  -2.064   3.054  0.00  0.00    +0.042 C 
ENDROOT
BRANCH   8  15
ATOM     15  N   UNL     1       4.340  -0.573  -0.042  0.00  0.00    -0.343 N 
ATOM     16  H   UNL     1       3.829  -1.394   0.032  0.00  0.00    +0.144 HD
ATOM     17  H   UNL     1       5.306  -0.609  -0.124  0.00  0.00    +0.144 HD
ENDBRANCH   8  15
BRANCH   1  19
ATOM     18  C   UNL     1      -0.050  -4.758   2.332  0.00  0.00    +0.007 C 
ATOM     19  C   UNL     1       1.003  -4.017   1.505  0.00  0.00    +0.032 C 
ENDBRANCH   1  19
BRANCH  10  20
ATOM     20  S   UNL     1       4.701   4.381  -0.762  0.00  0.00    -0.078 S 
BRANCH  20  21
ATOM     21  C   UNL     1       6.297   3.586  -1.073  0.00  0.00    +0.157 C 
BRANCH  21  22
ATOM     22  C   UNL     1       7.310   4.630  -1.466  0.00  0.00    +0.173 C 
ATOM     23  O   UNL     1       6.985   5.797  -1.530  0.00  0.00    -0.291 OA
BRANCH  22  24
ATOM     24  C   UNL     1       8.693   4.234  -1.772  0.00  0.00    +0.018 A 
ATOM     25  C   UNL     1       9.073   2.890  -1.694  0.00  0.00    +0.012 A 
ATOM     26  C   UNL     1      10.369   2.526  -1.990  0.00  0.00    +0.016 A 
ATOM     27  C   UNL     1      11.298   3.488  -2.350  0.00  0.00    +0.018 A 
ATOM     28  C   UNL     1      10.930   4.822  -2.424  0.00  0.00    +0.016 A 
ATOM     29  C   UNL     1       9.636   5.201  -2.138  0.00  0.00    +0.012 A 
ATOM     30 BR   UNL     1      13.076   2.979  -2.745  0.00  0.00    -0.050 Br
ENDBRANCH  22  24
ENDBRANCH  21  22
ENDBRANCH  20  21
ENDBRANCH  10  20
TORSDOF 6
