REMARK  Name = ZINC32216929
REMARK  14 active torsions:
REMARK  status: ('A' for Active; 'I' for Inactive)
REMARK    1  A    between atoms: C_1  and  C_2
REMARK    2  A    between atoms: C_2  and  C_3
REMARK    3  A    between atoms: C_6  and  C_9
REMARK    4  A    between atoms: C_9  and  C_11
REMARK    5  A    between atoms: C_9  and  N_33
REMARK    6  A    between atoms: C_11  and  N_12
REMARK    7  A    between atoms: C_13  and  C_15
REMARK    8  A    between atoms: C_18  and  S_21
REMARK    9  A    between atoms: S_21  and  N_24
REMARK   10  A    between atoms: N_24  and  C_25
REMARK   11  A    between atoms: C_30  and  O_31
REMARK   12  A    between atoms: O_31  and  C_32
REMARK   13  A    between atoms: N_33  and  C_34
REMARK   14  A    between atoms: N_33  and  C_35
REMARK                            x       y       z     vdW  Elec       q    Type
REMARK                         _______ _______ _______ _____ _____    ______ ____
ROOT
ATOM      1  C   UNL     1      -2.016   3.861  -4.400  0.00  0.00    +0.037 A 
ATOM      2  C   UNL     1      -2.554   2.617  -4.064  0.00  0.00    +0.015 A 
ATOM      3  C   UNL     1      -2.583   2.215  -2.745  0.00  0.00    +0.029 A 
ATOM      4  C   UNL     1      -2.079   3.041  -1.756  0.00  0.00    +0.109 A 
ATOM      5  C   UNL     1      -1.549   4.277  -2.081  0.00  0.00    +0.029 A 
ATOM      6  C   UNL     1      -1.510   4.689  -3.397  0.00  0.00    +0.015 A 
ENDROOT
BRANCH   1   8
ATOM      7  N   UNL     1      -1.461   5.499  -6.133  0.00  0.00    -0.313 N 
ATOM      8  C   UNL     1      -1.981   4.298  -5.812  0.00  0.00    +0.244 C 
ATOM      9  O   UNL     1      -2.423   3.574  -6.683  0.00  0.00    -0.270 OA
ATOM     10  H   UNL     1      -1.061   6.154  -5.344  0.00  0.00    +0.149 HD
BRANCH   7  11
ATOM     11  C   UNL     1      -1.427   5.932  -7.532  0.00  0.00    +0.094 C 
BRANCH  11  12
ATOM     12  C   UNL     1      -0.682   7.265  -7.635  0.00  0.00    -0.021 C 
BRANCH  12  16
ATOM     13  C   UNL     1      -2.828  10.267  -5.483  0.00  0.00    -0.048 A 
ATOM     14  C   UNL     1      -1.729   9.657  -4.908  0.00  0.00    +0.004 A 
ATOM     15  C   UNL     1      -1.034   8.685  -5.605  0.00  0.00    +0.002 A 
ATOM     16  C   UNL     1      -1.439   8.323  -6.876  0.00  0.00    -0.059 A 
ATOM     17  C   UNL     1      -2.535   8.937  -7.453  0.00  0.00    +0.002 A 
ATOM     18  C   UNL     1      -3.233   9.905  -6.755  0.00  0.00    +0.004 A 
BRANCH  13  20
ATOM     19  C   UNL     1      -2.984  12.700  -5.030  0.00  0.00    +0.009 C 
ATOM     20  C   UNL     1      -3.585  11.326  -4.724  0.00  0.00    +0.032 C 
ENDBRANCH  13  20
ENDBRANCH  12  16
BRANCH  12  21
ATOM     21  N   UNL     1      -0.574   7.657  -9.046  0.00  0.00    +0.382 N 
ATOM     22  C   UNL     1       0.223   8.883  -9.193  0.00  0.00    -0.096 C 
ATOM     23  C   UNL     1      -0.014   6.566  -9.855  0.00  0.00    -0.096 C 
ATOM     24  H   UNL     1      -1.588   7.867  -9.418  0.00  0.00    -0.082 HD
ENDBRANCH  12  21
ENDBRANCH  11  12
ENDBRANCH   7  11
ENDBRANCH   1   8
BRANCH   4  25
ATOM     25  S   UNL     1      -2.120   2.520  -0.073  0.00  0.00    +0.072 S 
ATOM     26  O   UNL     1      -3.166   1.563   0.030  0.00  0.00    -0.150 OA
ATOM     27  O   UNL     1      -2.087   3.700   0.719  0.00  0.00    -0.150 OA
BRANCH  25  28
ATOM     28  N   UNL     1      -0.706   1.711   0.224  0.00  0.00    -0.213 N 
ATOM     29  H   UNL     1      -0.731   0.658   0.540  0.00  0.00    +0.174 HD
BRANCH  28  30
ATOM     30  C   UNL     1       0.521   2.367   0.071  0.00  0.00    +0.090 A 
ATOM     31  C   UNL     1       0.637   3.709   0.401  0.00  0.00    +0.028 A 
ATOM     32  C   UNL     1       1.851   4.354   0.254  0.00  0.00    +0.002 A 
ATOM     33  C   UNL     1       2.948   3.666  -0.230  0.00  0.00    +0.004 A 
ATOM     34  C   UNL     1       2.838   2.329  -0.566  0.00  0.00    +0.047 A 
ATOM     35  C   UNL     1       1.627   1.675  -0.417  0.00  0.00    +0.142 A 
BRANCH  35  36
ATOM     36  O   UNL     1       1.517   0.360  -0.748  0.00  0.00    -0.493 OA
ATOM     37  C   UNL     1       2.692  -0.285  -1.242  0.00  0.00    +0.277 C 
ENDBRANCH  35  36
ENDBRANCH  28  30
ENDBRANCH  25  28
ENDBRANCH   4  25
TORSDOF 10
