REMARK  Name = ZINC16428619
REMARK  7 active torsions:
REMARK  status: ('A' for Active; 'I' for Inactive)
REMARK    1  A    between atoms: C_3  and  N_21
REMARK    2  A    between atoms: C_6  and  N_7
REMARK    3  A    between atoms: N_7  and  C_8
REMARK    4  A    between atoms: C_8  and  C_9
REMARK    5  A    between atoms: C_9  and  N_10
REMARK    6  A    between atoms: C_11  and  C_12
REMARK    7  A    between atoms: C_17  and  O_18
REMARK                            x       y       z     vdW  Elec       q    Type
REMARK                         _______ _______ _______ _____ _____    ______ ____
ROOT
ATOM      1  C   UNL     1      -2.621  -2.716   0.010  0.00  0.00    +0.131 C 
ENDROOT
BRANCH   1   2
ATOM      2  N   UNL     1      -2.598  -4.181   0.001  0.00  0.00    -0.388 N 
ATOM      3  C   UNL     1      -3.042  -4.841   1.022  0.00  0.00    +0.090 C 
ATOM      4  H   UNL     1      -2.251  -4.656  -0.770  0.00  0.00    +0.159 HD
BRANCH   3   5
ATOM      5  C   UNL     1      -3.123  -6.312   0.970  0.00  0.00    +0.034 A 
ATOM      6  C   UNL     1      -3.708  -7.021   2.022  0.00  0.00    +0.028 A 
ATOM      7  C   UNL     1      -3.780  -8.397   1.968  0.00  0.00    +0.020 A 
ATOM      8  C   UNL     1      -3.274  -9.081   0.874  0.00  0.00    +0.034 A 
ATOM      9  C   UNL     1      -2.693  -8.391  -0.173  0.00  0.00    +0.061 A 
ATOM     10  C   UNL     1      -2.618  -7.006  -0.137  0.00  0.00    +0.139 A 
ATOM     11 BR   UNL     1      -2.006  -9.336  -1.660  0.00  0.00    -0.046 Br
ATOM     12 BR   UNL     1      -4.572  -9.355   3.393  0.00  0.00    -0.050 Br
BRANCH  10  13
ATOM     13  O   UNL     1      -2.052  -6.327  -1.167  0.00  0.00    -0.505 OA
ATOM     14  H   UNL     1      -1.100  -6.188  -1.071  0.00  0.00    +0.292 HD
ENDBRANCH  10  13
ENDBRANCH   3   5
ENDBRANCH   1   2
BRANCH   1  15
ATOM     15  C   UNL     1      -1.187  -2.184  -0.015  0.00  0.00    +0.122 C 
BRANCH  15  16
ATOM     16  N   UNL     1      -1.209  -0.719  -0.006  0.00  0.00    -0.342 N 
ATOM     17  H   UNL     1      -2.057  -0.247   0.013  0.00  0.00    +0.146 HD
BRANCH  16  23
ATOM     18  C   UNL     1      -0.030   1.387  -0.017  0.00  0.00    +0.025 A 
ATOM     19  C   UNL     1       1.156   2.093  -0.035  0.00  0.00    +0.034 A 
ATOM     20  C   UNL     1       2.363   1.419  -0.062  0.00  0.00    +0.126 A 
ATOM     21  C   UNL     1       2.387   0.036  -0.071  0.00  0.00    +0.034 A 
ATOM     22  C   UNL     1       1.203  -0.676  -0.053  0.00  0.00    +0.025 A 
ATOM     23  C   UNL     1      -0.011  -0.002  -0.025  0.00  0.00    +0.027 A 
BRANCH  20  24
ATOM     24  N   UNL     1       3.633   2.179  -0.083  0.00  0.00    +0.056 N 
ATOM     25  O   UNL     1       3.615   3.388  -0.075  0.00  0.00    -0.126 OA
ATOM     26  O   UNL     1       4.689   1.591  -0.107  0.00  0.00    -0.126 OA
ENDBRANCH  20  24
ENDBRANCH  16  23
ENDBRANCH  15  16
ENDBRANCH   1  15
TORSDOF 7
