REMARK  Name = ZINC34829760
REMARK  6 active torsions:
REMARK  status: ('A' for Active; 'I' for Inactive)
REMARK    1  A    between atoms: C_1  and  C_2
REMARK    2  A    between atoms: C_5  and  C_8
REMARK    3  A    between atoms: N_17  and  C_18
REMARK    4  A    between atoms: C_18  and  C_19
REMARK    5  A    between atoms: C_25  and  C_28
REMARK    6  A    between atoms: C_29  and  C_31
REMARK                            x       y       z     vdW  Elec       q    Type
REMARK                         _______ _______ _______ _____ _____    ______ ____
ROOT
ATOM      1  C   UNL     1       3.416  -3.401   2.044  0.00  0.00    +0.199 C 
ATOM      2  O   UNL     1       2.920  -3.673   3.117  0.00  0.00    -0.278 OA
ATOM      3  N   UNL     1       4.755  -3.432   1.893  0.00  0.00    -0.300 N 
ATOM      4  C   UNL     1       5.370  -3.099   0.600  0.00  0.00    +0.126 C 
ATOM      5  C   UNL     1       6.263  -4.267   0.167  0.00  0.00    +0.127 C 
ATOM      6  N   UNL     1       7.134  -4.635   1.292  0.00  0.00    -0.292 N 
ATOM      7  C   UNL     1       6.519  -4.968   2.585  0.00  0.00    +0.091 C 
ATOM      8  C   UNL     1       5.626  -3.794   3.020  0.00  0.00    +0.130 C 
ATOM      9  C   UNL     1       5.677  -6.237   2.441  0.00  0.00    +0.029 C 
ATOM     10  C   UNL     1       8.473  -4.666   1.141  0.00  0.00    +0.247 C 
ATOM     11  O   UNL     1       8.967  -4.458   0.050  0.00  0.00    -0.270 OA
ENDROOT
BRANCH  10  12
ATOM     12  C   UNL     1       9.340  -4.952   2.301  0.00  0.00    +0.041 A 
ATOM     13  C   UNL     1       9.104  -6.081   3.090  0.00  0.00    +0.017 A 
ATOM     14  C   UNL     1       9.915  -6.348   4.171  0.00  0.00    +0.050 A 
ATOM     15  C   UNL     1      10.968  -5.497   4.482  0.00  0.00    +0.166 A 
ATOM     16  C   UNL     1      11.208  -4.368   3.699  0.00  0.00    +0.167 A 
ATOM     17  C   UNL     1      10.402  -4.099   2.610  0.00  0.00    +0.062 A 
ATOM     18  O   UNL     1      12.288  -3.706   4.209  0.00  0.00    -0.453 OA
ATOM     19  C   UNL     1      12.453  -4.214   5.546  0.00  0.00    +0.466 C 
ATOM     20  O   UNL     1      11.896  -5.540   5.480  0.00  0.00    -0.453 OA
ENDBRANCH  10  12
BRANCH   1  21
ATOM     21  C   UNL     1       2.535  -3.028   0.879  0.00  0.00    +0.020 C 
BRANCH  21  30
ATOM     22  C   UNL     1       0.282  -2.589   0.197  0.00  0.00    -0.005 C 
ATOM     23  C   UNL     1      -1.182  -2.731   0.602  0.00  0.00    -0.047 A 
ATOM     24  C   UNL     1      -2.228  -2.039  -0.004  0.00  0.00    +0.010 A 
ATOM     25  C   UNL     1      -3.499  -2.225   0.423  0.00  0.00    +0.045 A 
ATOM     26  S   UNL     1      -3.277  -3.418   1.735  0.00  0.00    -0.101 S 
ATOM     27  C   UNL     1      -1.518  -3.578   1.615  0.00  0.00    -0.010 A 
ATOM     28  C   UNL     1      -0.581  -4.427   2.409  0.00  0.00    +0.024 C 
ATOM     29  C   UNL     1       0.769  -4.444   1.670  0.00  0.00    -0.072 C 
ATOM     30  N   UNL     1       1.127  -3.068   1.298  0.00  0.00    +0.393 N 
ATOM     31  H   UNL     1       1.002  -2.466   2.098  0.00  0.00    -0.080 HD
BRANCH  22  36
ATOM     32  C   UNL     1       1.464   2.964  -0.881  0.00  0.00    +0.044 C 
ATOM     33  C   UNL     1       1.156   1.516  -0.600  0.00  0.00    -0.050 A 
ATOM     34  C   UNL     1       0.921   0.643  -1.646  0.00  0.00    +0.003 A 
ATOM     35  C   UNL     1       0.638  -0.685  -1.388  0.00  0.00    +0.002 A 
ATOM     36  C   UNL     1       0.591  -1.141  -0.084  0.00  0.00    -0.057 A 
ATOM     37  C   UNL     1       0.827  -0.269   0.962  0.00  0.00    +0.002 A 
ATOM     38  C   UNL     1       1.113   1.059   0.704  0.00  0.00    +0.003 A 
ENDBRANCH  22  36
ENDBRANCH  21  30
ENDBRANCH   1  21
TORSDOF 4
