REMARK  Name = ZINC13141654
REMARK  15 active torsions:
REMARK  status: ('A' for Active; 'I' for Inactive)
REMARK    1  A    between atoms: C_1  and  C_2
REMARK    2  A    between atoms: C_3  and  C_33
REMARK    3  A    between atoms: C_4  and  C_32
REMARK    4  A    between atoms: C_7  and  C_8
REMARK    5  A    between atoms: C_8  and  O_10
REMARK    6  A    between atoms: O_10  and  C_11
REMARK    7  A    between atoms: C_11  and  C_12
REMARK    8  A    between atoms: N_14  and  C_15
REMARK    9  A    between atoms: C_16  and  C_26
REMARK   10  A    between atoms: C_21  and  C_25
REMARK   11  A    between atoms: C_26  and  O_28
REMARK   12  A    between atoms: O_28  and  C_29
REMARK   13  A    between atoms: C_29  and  C_30
REMARK   14  A    between atoms: C_29  and  C_31
REMARK   15  A    between atoms: C_33  and  C_35
REMARK                            x       y       z     vdW  Elec       q    Type
REMARK                         _______ _______ _______ _____ _____    ______ ____
ROOT
ATOM      1  C   UNL     1       4.297  -1.871  -0.061  0.00  0.00    +0.255 C 
ATOM      2  O   UNL     1       3.297  -2.557  -0.062  0.00  0.00    -0.272 OA
ATOM      3  N   UNL     1       5.513  -2.452  -0.076  0.00  0.00    -0.277 N 
ATOM      4  H   UNL     1       6.313  -1.903  -0.075  0.00  0.00    +0.155 HD
ENDROOT
BRANCH   3   5
ATOM      5  C   UNL     1       5.621  -3.834  -0.092  0.00  0.00    +0.086 A 
ATOM      6  C   UNL     1       6.773  -4.609  -0.114  0.00  0.00    +0.091 A 
ATOM      7  C   UNL     1       6.610  -6.053  -0.123  0.00  0.00    -0.021 A 
ATOM      8  C   UNL     1       5.331  -6.487  -0.119  0.00  0.00    -0.004 A 
ATOM      9  S   UNL     1       4.352  -5.013  -0.097  0.00  0.00    -0.077 S 
ATOM     10  C   UNL     1       4.860  -7.909  -0.130  0.00  0.00    +0.046 C 
ATOM     11  C   UNL     1       6.046  -8.815   0.231  0.00  0.00    -0.009 C 
ATOM     12  C   UNL     1       7.257  -8.400  -0.609  0.00  0.00    +0.008 C 
ATOM     13  C   UNL     1       7.773  -7.037  -0.142  0.00  0.00    +0.037 C 
ATOM     14  C   UNL     1       5.689 -10.272  -0.068  0.00  0.00    +0.008 C 
BRANCH   6  15
ATOM     15  C   UNL     1       8.102  -3.995  -0.124  0.00  0.00    +0.342 C 
ATOM     16  O   UNL     1       8.668  -3.751   0.925  0.00  0.00    -0.245 OA
BRANCH  15  17
ATOM     17  O   UNL     1       8.700  -3.699  -1.297  0.00  0.00    -0.458 OA
BRANCH  17  18
ATOM     18  C   UNL     1      10.017  -3.092  -1.231  0.00  0.00    +0.171 C 
ATOM     19  C   UNL     1      10.826  -3.493  -2.466  0.00  0.00    +0.052 C 
ATOM     20  C   UNL     1       9.875  -1.569  -1.186  0.00  0.00    +0.052 C 
ENDBRANCH  17  18
ENDBRANCH  15  17
ENDBRANCH   6  15
ENDBRANCH   3   5
BRANCH   1  21
ATOM     21  C   UNL     1       4.180  -0.369  -0.044  0.00  0.00    +0.328 C 
BRANCH  21  22
ATOM     22  O   UNL     1       2.777   0.007  -0.030  0.00  0.00    -0.451 OA
BRANCH  22  23
ATOM     23  C   UNL     1       2.497   1.326  -0.013  0.00  0.00    +0.356 C 
ATOM     24  O   UNL     1       3.401   2.140  -0.010  0.00  0.00    -0.243 OA
BRANCH  23  31
ATOM     25  C   UNL     1       1.565   4.301   0.026  0.00  0.00    +0.047 C 
ATOM     26  C   UNL     1       0.686   3.078   0.019  0.00  0.00    -0.008 A 
ATOM     27  C   UNL     1      -0.729   3.057   0.029  0.00  0.00    +0.041 A 
ATOM     28  C   UNL     1      -1.115   1.725   0.011  0.00  0.00    +0.024 A 
ATOM     29  N   UNL     1      -0.011   0.966   0.001  0.00  0.00    -0.352 N 
ATOM     30  H   UNL     1       0.004  -0.004  -0.010  0.00  0.00    +0.166 HD
ATOM     31  C   UNL     1       1.102   1.780   0.002  0.00  0.00    +0.128 A 
ATOM     32  C   UNL     1      -2.534   1.218   0.008  0.00  0.00    +0.064 C 
BRANCH  27  33
ATOM     33  C   UNL     1      -1.619   4.223   0.049  0.00  0.00    +0.162 C 
ATOM     34  O   UNL     1      -1.925   4.769  -0.990  0.00  0.00    -0.292 OA
ATOM     35  C   UNL     1      -2.152   4.742   1.359  0.00  0.00    +0.091 C 
ENDBRANCH  27  33
ENDBRANCH  23  31
ENDBRANCH  22  23
ENDBRANCH  21  22
ENDBRANCH   1  21
TORSDOF 9
