REMARK  Name = ZINC59891413
REMARK  12 active torsions:
REMARK  status: ('A' for Active; 'I' for Inactive)
REMARK    1  A    between atoms: C_1  and  C_2
REMARK    2  A    between atoms: C_7  and  C_9
REMARK    3  A    between atoms: C_7  and  N_30
REMARK    4  A    between atoms: C_9  and  N_10
REMARK    5  A    between atoms: C_11  and  C_13
REMARK    6  A    between atoms: C_16  and  S_19
REMARK    7  A    between atoms: S_19  and  N_22
REMARK    8  A    between atoms: N_22  and  C_23
REMARK    9  A    between atoms: C_23  and  C_24
REMARK   10  A    between atoms: C_24  and  C_25
REMARK   11  A    between atoms: N_30  and  C_31
REMARK   12  A    between atoms: N_30  and  C_32
REMARK                            x       y       z     vdW  Elec       q    Type
REMARK                         _______ _______ _______ _____ _____    ______ ____
ROOT
ATOM      1  C   UNL     1      -1.981  -6.165   0.888  0.00  0.00    +0.037 A 
ATOM      2  C   UNL     1      -0.869  -6.910   1.284  0.00  0.00    +0.015 A 
ATOM      3  C   UNL     1      -0.975  -8.278   1.428  0.00  0.00    +0.029 A 
ATOM      4  C   UNL     1      -2.180  -8.911   1.181  0.00  0.00    +0.105 A 
ATOM      5  C   UNL     1      -3.286  -8.178   0.788  0.00  0.00    +0.029 A 
ATOM      6  C   UNL     1      -3.195  -6.809   0.646  0.00  0.00    +0.015 A 
ENDROOT
BRANCH   1   8
ATOM      7  N   UNL     1      -0.700  -4.079   0.966  0.00  0.00    -0.313 N 
ATOM      8  C   UNL     1      -1.874  -4.699   0.732  0.00  0.00    +0.244 C 
ATOM      9  O   UNL     1      -2.845  -4.051   0.392  0.00  0.00    -0.270 OA
ATOM     10  H   UNL     1       0.075  -4.596   1.237  0.00  0.00    +0.149 HD
BRANCH   7  11
ATOM     11  C   UNL     1      -0.595  -2.626   0.811  0.00  0.00    +0.092 C 
BRANCH  11  17
ATOM     12  C   UNL     1       0.647   1.336  -0.408  0.00  0.00    +0.007 C 
ATOM     13  C   UNL     1       0.560  -0.190  -0.335  0.00  0.00    -0.015 C 
ATOM     14  C   UNL     1       1.542  -0.805  -1.334  0.00  0.00    +0.003 C 
ATOM     15  C   UNL     1       1.456  -2.331  -1.260  0.00  0.00    -0.001 C 
ATOM     16  C   UNL     1       1.810  -2.794   0.154  0.00  0.00    -0.010 C 
ATOM     17  C   UNL     1       0.828  -2.179   1.153  0.00  0.00    -0.050 C 
ATOM     18  C   UNL     1       0.914  -0.653   1.080  0.00  0.00    -0.007 C 
BRANCH  17  19
ATOM     19  N   UNL     1       1.168  -2.624   2.511  0.00  0.00    +0.381 N 
ATOM     20  C   UNL     1       2.504  -2.129   2.869  0.00  0.00    -0.096 C 
ATOM     21  C   UNL     1       0.179  -2.096   3.461  0.00  0.00    -0.096 C 
ATOM     22  H   UNL     1       1.163  -3.632   2.546  0.00  0.00    -0.082 HD
ENDBRANCH  17  19
ENDBRANCH  11  17
ENDBRANCH   7  11
ENDBRANCH   1   8
BRANCH   4  23
ATOM     23  S   UNL     1      -2.307 -10.659   1.368  0.00  0.00    +0.058 S 
ATOM     24  O   UNL     1      -3.393 -11.076   0.551  0.00  0.00    -0.153 OA
ATOM     25  O   UNL     1      -0.994 -11.180   1.214  0.00  0.00    -0.153 OA
BRANCH  23  26
ATOM     26  N   UNL     1      -2.753 -10.953   2.935  0.00  0.00    -0.190 NA
ATOM     27  H   UNL     1      -2.148 -11.420   3.532  0.00  0.00    +0.148 HD
BRANCH  26  28
ATOM     28  C   UNL     1      -4.062 -10.508   3.420  0.00  0.00    +0.111 C 
BRANCH  28  29
ATOM     29  C   UNL     1      -4.382 -11.209   4.741  0.00  0.00    +0.059 C 
BRANCH  29  30
ATOM     30  C   UNL     1      -5.729 -10.752   5.240  0.00  0.00    -0.009 A 
ATOM     31  C   UNL     1      -6.953 -11.281   4.999  0.00  0.00    +0.011 A 
ATOM     32  C   UNL     1      -8.064 -10.688   5.569  0.00  0.00    +0.008 A 
ATOM     33  C   UNL     1      -7.895  -9.595   6.353  0.00  0.00    +0.045 A 
ATOM     34  S   UNL     1      -6.124  -9.377   6.308  0.00  0.00    -0.102 S 
ENDBRANCH  29  30
ENDBRANCH  28  29
ENDBRANCH  26  28
ENDBRANCH  23  26
ENDBRANCH   4  23
TORSDOF 9
