REMARK  Name = ZINC15906236
REMARK  9 active torsions:
REMARK  status: ('A' for Active; 'I' for Inactive)
REMARK    1  A    between atoms: C_1  and  C_2
REMARK    2  A    between atoms: C_6  and  C_28
REMARK    3  A    between atoms: C_8  and  O_11
REMARK    4  A    between atoms: O_11  and  P_12
REMARK    5  A    between atoms: P_12  and  C_14
REMARK    6  A    between atoms: P_12  and  N_20
REMARK    7  A    between atoms: N_20  and  C_21
REMARK    8  A    between atoms: C_28  and  C_29
REMARK    9  A    between atoms: C_28  and  C_30
REMARK                            x       y       z     vdW  Elec       q    Type
REMARK                         _______ _______ _______ _____ _____    ______ ____
ROOT
ATOM      1  P   UNL     1       0.067  -1.762  -0.105  0.00  0.00    +0.318 P 
ATOM      2  O   UNL     1      -1.090  -0.918  -0.478  0.00  0.00    -0.264 OA
ENDROOT
BRANCH   1   3
ATOM      3  C   UNL     1      -0.494  -3.461   0.191  0.00  0.00    +0.055 A 
ATOM      4  C   UNL     1      -0.818  -3.869   1.471  0.00  0.00    +0.015 A 
ATOM      5  C   UNL     1      -1.250  -5.163   1.696  0.00  0.00    +0.001 A 
ATOM      6  C   UNL     1      -1.349  -6.051   0.641  0.00  0.00    +0.000 A 
ATOM      7  C   UNL     1      -1.020  -5.645  -0.638  0.00  0.00    +0.001 A 
ATOM      8  C   UNL     1      -0.593  -4.350  -0.864  0.00  0.00    +0.015 A 
ENDBRANCH   1   3
BRANCH   1   9
ATOM      9  N   UNL     1       1.165  -1.752  -1.323  0.00  0.00    -0.271 N 
ATOM     10  H   UNL     1       0.970  -1.283  -2.149  0.00  0.00    +0.156 HD
BRANCH   9  11
ATOM     11  C   UNL     1       2.382  -2.421  -1.171  0.00  0.00    +0.034 A 
ATOM     12  C   UNL     1       2.664  -3.093   0.011  0.00  0.00    +0.024 A 
ATOM     13  C   UNL     1       3.866  -3.758   0.156  0.00  0.00    +0.016 A 
ATOM     14  C   UNL     1       4.793  -3.747  -0.871  0.00  0.00    +0.013 A 
ATOM     15  C   UNL     1       4.517  -3.074  -2.047  0.00  0.00    +0.016 A 
ATOM     16  C   UNL     1       3.315  -2.412  -2.200  0.00  0.00    +0.024 A 
ATOM     17  I   UNL     1       6.617  -4.751  -0.643  0.00  0.00    -0.044 I 
ENDBRANCH   9  11
ENDBRANCH   1   9
BRANCH   1  18
ATOM     18  O   UNL     1       0.746  -1.180   1.234  0.00  0.00    -0.307 OA
BRANCH  18  24
ATOM     19  C   UNL     1       0.565  -2.183   6.042  0.00  0.00    +0.007 C 
ATOM     20  C   UNL     1      -0.102  -1.437   4.885  0.00  0.00    -0.012 C 
ATOM     21  C   UNL     1      -0.118   0.063   5.186  0.00  0.00    +0.004 C 
ATOM     22  C   UNL     1      -0.785   0.809   4.029  0.00  0.00    +0.006 C 
ATOM     23  C   UNL     1      -0.002   0.556   2.740  0.00  0.00    +0.021 C 
ATOM     24  C   UNL     1       0.014  -0.944   2.438  0.00  0.00    +0.131 C 
ATOM     25  C   UNL     1       0.681  -1.690   3.595  0.00  0.00    +0.035 C 
BRANCH  23  26
ATOM     26  C   UNL     1      -0.669   1.302   1.583  0.00  0.00    -0.012 C 
ATOM     27  C   UNL     1      -0.557   2.810   1.816  0.00  0.00    +0.007 C 
ATOM     28  C   UNL     1      -2.145   0.906   1.505  0.00  0.00    +0.007 C 
ENDBRANCH  23  26
ENDBRANCH  18  24
ENDBRANCH   1  18
TORSDOF 6
