REMARK  Name = ZINC09245757
REMARK  9 active torsions:
REMARK  status: ('A' for Active; 'I' for Inactive)
REMARK    1  A    between atoms: C_1  and  C_2
REMARK    2  A    between atoms: C_2  and  C_4
REMARK    3  A    between atoms: C_2  and  N_62
REMARK    4  A    between atoms: C_7  and  S_16
REMARK    5  A    between atoms: N_8  and  C_9
REMARK    6  A    between atoms: S_16  and  C_17
REMARK    7  A    between atoms: C_17  and  C_19
REMARK    8  A    between atoms: C_17  and  C_20
REMARK    9  A    between atoms: C_20  and  C_22
REMARK                            x       y       z     vdW  Elec       q    Type
REMARK                         _______ _______ _______ _____ _____    ______ ____
ROOT
ATOM      1  C   UNL     1       3.641   0.150   2.991  0.00  0.00    +0.125 A 
ATOM      2  N   UNL     1       2.456  -0.378   3.119  0.00  0.00    -0.135 NA
ATOM      3  N   UNL     1       1.679   0.047   2.188  0.00  0.00    -0.122 NA
ATOM      4  C   UNL     1       2.330   0.877   1.406  0.00  0.00    +0.197 A 
ATOM      5  N   UNL     1       3.606   0.965   1.891  0.00  0.00    -0.275 N 
ENDROOT
BRANCH   5   6
ATOM      6  C   UNL     1       4.660   1.734   1.372  0.00  0.00    +0.050 A 
ATOM      7  C   UNL     1       5.787   1.109   0.856  0.00  0.00    +0.029 A 
ATOM      8  C   UNL     1       6.820   1.867   0.340  0.00  0.00    +0.040 A 
ATOM      9  C   UNL     1       6.737   3.249   0.348  0.00  0.00    +0.124 A 
ATOM     10  C   UNL     1       5.615   3.874   0.867  0.00  0.00    +0.040 A 
ATOM     11  C   UNL     1       4.578   3.119   1.379  0.00  0.00    +0.029 A 
ATOM     12  F   UNL     1       7.751   3.989  -0.152  0.00  0.00    -0.205 F 
ENDBRANCH   5   6
BRANCH   1  14
ATOM     13  C   UNL     1       5.414  -1.478   3.586  0.00  0.00    -0.005 C 
ATOM     14  C   UNL     1       4.830  -0.096   3.884  0.00  0.00    -0.002 C 
BRANCH  14  20
ATOM     15  C   UNL     1       3.749   1.242   5.587  0.00  0.00    -0.078 C 
ATOM     16  C   UNL     1       3.195   1.213   7.013  0.00  0.00    -0.019 C 
ATOM     17  C   UNL     1       4.343   0.967   7.996  0.00  0.00    -0.004 C 
ATOM     18  C   UNL     1       5.042  -0.347   7.635  0.00  0.00    -0.019 C 
ATOM     19  C   UNL     1       5.542  -0.272   6.191  0.00  0.00    -0.078 C 
ATOM     20  N   UNL     1       4.387  -0.058   5.293  0.00  0.00    +0.386 N 
ATOM     21  H   UNL     1       3.702  -0.807   5.447  0.00  0.00    -0.081 HD
ENDBRANCH  14  20
ENDBRANCH   1  14
BRANCH   4  22
ATOM     22  S   UNL     1       1.685   1.712  -0.005  0.00  0.00    -0.075 S 
BRANCH  22  23
ATOM     23  C   UNL     1      -0.013   1.086   0.008  0.00  0.00    +0.122 C 
ATOM     24  C   UNL     1      -0.729   1.579   1.267  0.00  0.00    +0.028 C 
BRANCH  23  25
ATOM     25  C   UNL     1      -0.742   1.585  -1.213  0.00  0.00    +0.178 C 
ATOM     26  O   UNL     1      -0.381   2.607  -1.759  0.00  0.00    -0.291 OA
BRANCH  25  27
ATOM     27  C   UNL     1      -1.848   0.861  -1.723  0.00  0.00    +0.043 A 
ATOM     28  C   UNL     1      -2.372  -0.312  -1.223  0.00  0.00    +0.095 A 
ATOM     29  N   UNL     1      -3.422  -0.695  -1.974  0.00  0.00    -0.360 N 
ATOM     30  H   UNL     1      -3.954  -1.490  -1.813  0.00  0.00    +0.165 HD
ATOM     31  C   UNL     1      -3.635   0.196  -3.006  0.00  0.00    +0.047 A 
ATOM     32  C   UNL     1      -2.667   1.208  -2.901  0.00  0.00    +0.010 A 
ATOM     33  C   UNL     1      -2.644   2.251  -3.821  0.00  0.00    +0.011 A 
ATOM     34  C   UNL     1      -3.577   2.287  -4.836  0.00  0.00    +0.001 A 
ATOM     35  C   UNL     1      -4.534   1.289  -4.941  0.00  0.00    +0.002 A 
ATOM     36  C   UNL     1      -4.567   0.250  -4.037  0.00  0.00    +0.026 A 
ENDBRANCH  25  27
ENDBRANCH  23  25
ENDBRANCH  22  23
ENDBRANCH   4  22
TORSDOF 7
