REMARK  Name = ZINC04168880
REMARK  9 active torsions:
REMARK  status: ('A' for Active; 'I' for Inactive)
REMARK    1  A    between atoms: C_1  and  C_2
REMARK    2  A    between atoms: C_2  and  O_3
REMARK    3  A    between atoms: O_3  and  C_4
REMARK    4  A    between atoms: C_7  and  C_12
REMARK    5  A    between atoms: C_9  and  O_10
REMARK    6  A    between atoms: O_10  and  C_11
REMARK    7  A    between atoms: C_19  and  N_30
REMARK    8  A    between atoms: C_20  and  C_28
REMARK    9  A    between atoms: C_21  and  C_23
REMARK                            x       y       z     vdW  Elec       q    Type
REMARK                         _______ _______ _______ _____ _____    ______ ____
ROOT
ATOM      1  C   UNL     1      -1.949  -6.533   0.149  0.00  0.00    +0.100 A 
ATOM      2  C   UNL     1      -1.143  -7.244  -0.745  0.00  0.00    +0.055 A 
ATOM      3  C   UNL     1      -1.477  -8.565  -0.657  0.00  0.00    +0.223 A 
ATOM      4  N   UNL     1      -2.458  -8.680   0.262  0.00  0.00    -0.246 N 
ATOM      5  H   UNL     1      -2.891  -9.504   0.534  0.00  0.00    +0.192 HD
ATOM      6  N   UNL     1      -2.737  -7.397   0.761  0.00  0.00    -0.171 NA
ATOM      7  O   UNL     1      -0.876  -9.524  -1.405  0.00  0.00    -0.423 OA
ATOM      8  C   UNL     1      -0.120  -9.121  -2.446  0.00  0.00    +0.200 C 
ATOM      9  C   UNL     1       0.284  -7.845  -2.634  0.00  0.00    +0.099 C 
ATOM     10  C   UNL     1      -0.074  -6.735  -1.677  0.00  0.00    +0.108 C 
ENDROOT
BRANCH   1  14
ATOM     11  C   UNL     1      -1.863  -2.326   0.793  0.00  0.00    +0.162 A 
ATOM     12  C   UNL     1      -1.778  -2.832  -0.495  0.00  0.00    +0.050 A 
ATOM     13  C   UNL     1      -1.805  -4.196  -0.706  0.00  0.00    +0.014 A 
ATOM     14  C   UNL     1      -1.919  -5.067   0.376  0.00  0.00    +0.006 A 
ATOM     15  C   UNL     1      -2.005  -4.559   1.670  0.00  0.00    +0.059 A 
ATOM     16  C   UNL     1      -1.972  -3.192   1.878  0.00  0.00    +0.162 A 
BRANCH  16  17
ATOM     17  O   UNL     1      -2.050  -2.693   3.141  0.00  0.00    -0.491 OA
ATOM     18  C   UNL     1      -2.159  -3.639   4.206  0.00  0.00    +0.277 C 
ENDBRANCH  16  17
BRANCH  11  19
ATOM     19  O   UNL     1      -1.836  -0.982   0.997  0.00  0.00    -0.489 OA
BRANCH  19  21
ATOM     20  C   UNL     1      -1.708   1.318   0.264  0.00  0.00    +0.048 C 
ATOM     21  C   UNL     1      -1.723  -0.152  -0.161  0.00  0.00    +0.226 C 
ENDBRANCH  19  21
ENDBRANCH  11  19
ENDBRANCH   1  14
BRANCH  10  22
ATOM     22  C   UNL     1       1.143  -6.334  -0.884  0.00  0.00    +0.003 A 
ATOM     23  C   UNL     1       1.805  -5.151  -0.876  0.00  0.00    +0.012 A 
ATOM     24  C   UNL     1       2.910  -5.008  -0.058  0.00  0.00    +0.008 A 
ATOM     25  C   UNL     1       3.300  -6.054   0.711  0.00  0.00    +0.045 A 
ATOM     26  S   UNL     1       2.083  -7.292   0.293  0.00  0.00    -0.101 S 
ENDBRANCH  10  22
BRANCH   8  27
ATOM     27  N   UNL     1       0.261 -10.062  -3.370  0.00  0.00    -0.328 N 
ATOM     28  H   UNL     1      -0.013 -10.986  -3.263  0.00  0.00    +0.145 HD
ATOM     29  H   UNL     1       0.805  -9.803  -4.131  0.00  0.00    +0.145 HD
ENDBRANCH   8  27
BRANCH   9  30
ATOM     30  C   UNL     1       1.082  -7.535  -3.782  0.00  0.00    +0.101 C 
ATOM     31  N   UNL     1       1.714  -7.290  -4.693  0.00  0.00    -0.191 NA
ENDBRANCH   9  30
TORSDOF 7
