REMARK  Name = ZINC32764710
REMARK  8 active torsions:
REMARK  status: ('A' for Active; 'I' for Inactive)
REMARK    1  A    between atoms: C_1  and  C_2
REMARK    2  A    between atoms: C_2  and  C_3
REMARK    3  A    between atoms: C_2  and  C_4
REMARK    4  A    between atoms: C_2  and  C_5
REMARK    5  A    between atoms: C_7  and  N_10
REMARK    6  A    between atoms: C_11  and  C_13
REMARK    7  A    between atoms: C_13  and  N_14
REMARK    8  A    between atoms: C_16  and  C_25
REMARK                            x       y       z     vdW  Elec       q    Type
REMARK                         _______ _______ _______ _____ _____    ______ ____
ROOT
ATOM      1  N   UNL     1       3.518  -0.952   7.956  0.00  0.00    -0.314 N 
ATOM      2  C   UNL     1       2.229  -0.718   8.619  0.00  0.00    +0.160 C 
ATOM      3  C   UNL     1       2.123  -1.655   9.828  0.00  0.00    +0.276 C 
ATOM      4  O   UNL     1       2.129  -3.002   9.343  0.00  0.00    -0.476 OA
ATOM      5  C   UNL     1       3.059  -3.306   8.396  0.00  0.00    +0.143 A 
ATOM      6  C   UNL     1       3.743  -2.310   7.707  0.00  0.00    +0.073 A 
ATOM      7  C   UNL     1       4.680  -2.664   6.742  0.00  0.00    +0.027 A 
ATOM      8  C   UNL     1       4.932  -3.994   6.472  0.00  0.00    +0.002 A 
ATOM      9  C   UNL     1       4.253  -4.982   7.160  0.00  0.00    +0.004 A 
ATOM     10  C   UNL     1       3.319  -4.640   8.120  0.00  0.00    +0.047 A 
ENDROOT
BRANCH   3  11
ATOM     11  C   UNL     1       0.839  -1.387  10.570  0.00  0.00    +0.258 C 
ATOM     12  O   UNL     1      -0.059  -2.201  10.542  0.00  0.00    -0.271 OA
ATOM     13  N   UNL     1       0.689  -0.242  11.265  0.00  0.00    -0.298 N 
ATOM     14  C   UNL     1       1.804   0.707  11.394  0.00  0.00    +0.108 C 
ATOM     15  C   UNL     1       1.323   2.091  10.933  0.00  0.00    +0.019 C 
ATOM     16  C   UNL     1       0.072   2.480  11.724  0.00  0.00    +0.003 C 
ATOM     17  C   UNL     1      -1.042   1.468  11.450  0.00  0.00    +0.019 C 
ATOM     18  C   UNL     1      -0.591   0.079  11.912  0.00  0.00    +0.108 C 
ENDBRANCH   3  11
BRANCH   1  19
ATOM     19  C   UNL     1       3.626  -0.166   6.721  0.00  0.00    +0.201 C 
BRANCH  19  21
ATOM     20  N   UNL     1       2.376   0.076   4.599  0.00  0.00    -0.253 N 
ATOM     21  C   UNL     1       2.545  -0.589   5.760  0.00  0.00    +0.237 C 
ATOM     22  O   UNL     1       1.826  -1.528   6.030  0.00  0.00    -0.274 OA
ATOM     23  H   UNL     1       3.027   0.927   4.354  0.00  0.00    +0.158 HD
BRANCH  20  26
ATOM     24  C   UNL     1       0.009  -0.512   2.026  0.00  0.00    +0.091 A 
ATOM     25  C   UNL     1       1.091   0.251   2.506  0.00  0.00    +0.092 A 
ATOM     26  C   UNL     1       1.381  -0.314   3.715  0.00  0.00    +0.224 A 
ATOM     27  O   UNL     1       0.514  -1.327   3.873  0.00  0.00    -0.339 OA
ATOM     28  N   UNL     1      -0.236  -1.419   2.929  0.00  0.00    -0.081 NA
BRANCH  24  30
ATOM     29  C   UNL     1       0.151  -0.833  -0.429  0.00  0.00    +0.017 C 
ATOM     30  C   UNL     1      -0.720  -0.321   0.720  0.00  0.00    +0.008 C 
ATOM     31  C   UNL     1      -1.015   1.166   0.514  0.00  0.00    +0.017 C 
ATOM     32  C   UNL     1      -2.035  -1.102   0.751  0.00  0.00    +0.017 C 
ENDBRANCH  24  30
ENDBRANCH  20  26
ENDBRANCH  19  21
ENDBRANCH   1  19
TORSDOF 5
