REMARK  Name = ZINC63926002
REMARK  9 active torsions:
REMARK  status: ('A' for Active; 'I' for Inactive)
REMARK    1  A    between atoms: C_1  and  C_2
REMARK    2  A    between atoms: C_4  and  C_10
REMARK    3  A    between atoms: C_5  and  C_9
REMARK    4  A    between atoms: N_7  and  C_8
REMARK    5  A    between atoms: C_10  and  C_11
REMARK    6  A    between atoms: N_13  and  C_14
REMARK    7  A    between atoms: C_14  and  C_15
REMARK    8  A    between atoms: C_15  and  C_17
REMARK    9  A    between atoms: C_15  and  C_24
REMARK                            x       y       z     vdW  Elec       q    Type
REMARK                         _______ _______ _______ _____ _____    ______ ____
ROOT
ATOM      1  C   UNL     1      -6.021   2.857  -2.186  0.00  0.00    +0.066 C 
ENDROOT
BRANCH   1   2
ATOM      2  C   UNL     1      -6.648   4.209  -1.963  0.00  0.00    -0.033 C 
ATOM      3  C   UNL     1      -6.704   5.234  -2.844  0.00  0.00    -0.000 A 
ATOM      4  C   UNL     1      -6.217   5.391  -4.219  0.00  0.00    +0.010 A 
ATOM      5  C   UNL     1      -6.427   6.564  -4.860  0.00  0.00    +0.001 A 
ATOM      6  C   UNL     1      -7.097   7.630  -4.244  0.00  0.00    +0.002 A 
ATOM      7  C   UNL     1      -7.574   7.561  -2.983  0.00  0.00    +0.026 A 
ATOM      8  C   UNL     1      -7.409   6.375  -2.216  0.00  0.00    +0.043 A 
ATOM      9  N   UNL     1      -7.774   6.067  -0.996  0.00  0.00    -0.380 N 
ATOM     10  C   UNL     1      -7.347   4.692  -0.712  0.00  0.00    +0.145 C 
ATOM     11  H   UNL     1      -8.251   6.649  -0.383  0.00  0.00    +0.160 HD
ENDBRANCH   1   2
BRANCH   1  12
ATOM     12  C   UNL     1      -7.071   1.786  -2.037  0.00  0.00    -0.020 A 
ATOM     13  C   UNL     1      -7.755   1.649  -0.843  0.00  0.00    +0.006 A 
ATOM     14  C   UNL     1      -8.718   0.667  -0.707  0.00  0.00    +0.000 A 
ATOM     15  C   UNL     1      -8.998  -0.179  -1.764  0.00  0.00    +0.001 A 
ATOM     16  C   UNL     1      -8.314  -0.044  -2.957  0.00  0.00    +0.020 A 
ATOM     17  C   UNL     1      -7.354   0.943  -3.096  0.00  0.00    +0.045 A 
ATOM     18 CL   UNL     1      -6.500   1.117  -4.597  0.00  0.00    -0.083 Cl
ENDBRANCH   1  12
BRANCH   1  19
ATOM     19  C   UNL     1      -4.914   2.632  -1.154  0.00  0.00    +0.116 C 
BRANCH  19  22
ATOM     20  C   UNL     1      -3.206   0.965  -0.661  0.00  0.00    +0.217 C 
ATOM     21  O   UNL     1      -2.859   1.643   0.283  0.00  0.00    -0.275 OA
ATOM     22  N   UNL     1      -4.225   1.371  -1.444  0.00  0.00    -0.314 N 
ATOM     23  H   UNL     1      -4.503   0.830  -2.199  0.00  0.00    +0.149 HD
BRANCH  20  24
ATOM     24  C   UNL     1      -2.498  -0.332  -0.959  0.00  0.00    +0.129 C 
BRANCH  24  27
ATOM     25  C   UNL     1      -0.019   1.526   0.010  0.00  0.00    +0.030 C 
ATOM     26  C   UNL     1       0.002  -0.004   0.002  0.00  0.00    +0.100 C 
ATOM     27  C   UNL     1      -1.407  -0.553   0.057  0.00  0.00    -0.025 C 
ATOM     28  C   UNL     1      -1.497  -1.261   1.165  0.00  0.00    +0.017 C 
ATOM     29  N   UNL     1      -0.311  -1.258   1.871  0.00  0.00    -0.282 N 
ATOM     30  N   UNL     1       0.644  -0.519   1.228  0.00  0.00    -0.226 NA
ATOM     31  C   UNL     1       1.119   0.583   2.076  0.00  0.00    +0.128 C 
ATOM     32  C   UNL     1      -2.743  -1.985   1.607  0.00  0.00    +0.062 C 
ATOM     33  H   UNL     1      -0.172  -1.720   2.713  0.00  0.00    +0.166 HD
ENDBRANCH  24  27
ENDBRANCH  20  24
ENDBRANCH  19  22
ENDBRANCH   1  19
TORSDOF 6
