REMARK  Name = ZINC09266835
REMARK  11 active torsions:
REMARK  status: ('A' for Active; 'I' for Inactive)
REMARK    1  A    between atoms: C_1  and  C_2
REMARK    2  A    between atoms: C_2  and  O_3
REMARK    3  A    between atoms: O_3  and  C_4
REMARK    4  A    between atoms: C_9  and  C_10
REMARK    5  A    between atoms: C_18  and  O_38
REMARK    6  A    between atoms: C_21  and  C_22
REMARK    7  A    between atoms: C_21  and  N_75
REMARK    8  A    between atoms: N_24  and  C_25
REMARK    9  A    between atoms: C_26  and  C_34
REMARK   10  A    between atoms: C_34  and  O_36
REMARK   11  A    between atoms: O_36  and  C_37
REMARK                            x       y       z     vdW  Elec       q    Type
REMARK                         _______ _______ _______ _____ _____    ______ ____
ROOT
ATOM      1  C   UNL     1      -2.062   2.475  -3.451  0.00  0.00    -0.028 C 
ATOM      2  C   UNL     1      -3.274   1.580  -3.172  0.00  0.00    +0.011 C 
ATOM      3  C   UNL     1      -3.414   0.559  -4.304  0.00  0.00    +0.005 C 
ATOM      4  C   UNL     1      -4.637  -0.319  -4.058  0.00  0.00    +0.000 C 
ATOM      5  C   UNL     1      -5.892   0.555  -4.009  0.00  0.00    +0.003 C 
ATOM      6  C   UNL     1      -5.758   1.570  -2.872  0.00  0.00    +0.035 C 
ATOM      7  C   UNL     1      -4.532   2.450  -3.110  0.00  0.00    +0.066 C 
ATOM      8  C   UNL     1      -4.689   3.202  -4.434  0.00  0.00    +0.016 C 
ATOM      9  C   UNL     1      -3.436   4.045  -4.686  0.00  0.00    -0.075 C 
ATOM     10  N   UNL     1      -2.259   3.152  -4.751  0.00  0.00    +0.390 N 
ATOM     11  H   UNL     1      -2.419   2.443  -5.475  0.00  0.00    -0.080 HD
ENDROOT
BRANCH   1  17
ATOM     12  C   UNL     1      -0.194   1.208  -2.359  0.00  0.00    +0.122 A 
ATOM     13  C   UNL     1       0.948   0.423  -2.431  0.00  0.00    +0.046 A 
ATOM     14  C   UNL     1       1.464   0.067  -3.661  0.00  0.00    +0.004 A 
ATOM     15  C   UNL     1       0.844   0.492  -4.822  0.00  0.00    +0.000 A 
ATOM     16  C   UNL     1      -0.294   1.274  -4.753  0.00  0.00    +0.005 A 
ATOM     17  C   UNL     1      -0.818   1.628  -3.525  0.00  0.00    -0.019 A 
BRANCH  12  18
ATOM     18  O   UNL     1      -0.704   1.559  -1.150  0.00  0.00    -0.492 OA
BRANCH  18  20
ATOM     19  C   UNL     1      -0.729   1.579   1.267  0.00  0.00    +0.048 C 
ATOM     20  C   UNL     1      -0.013   1.086   0.008  0.00  0.00    +0.225 C 
ENDBRANCH  18  20
ENDBRANCH  12  18
ENDBRANCH   1  17
BRANCH   7  21
ATOM     21  O   UNL     1      -4.407   3.391  -2.042  0.00  0.00    -0.388 OA
ATOM     22  H   UNL     1      -5.170   3.977  -1.943  0.00  0.00    +0.210 HD
ENDBRANCH   7  21
BRANCH  10  23
ATOM     23  C   UNL     1      -1.054   3.932  -5.101  0.00  0.00    +0.020 C 
BRANCH  23  24
ATOM     24  C   UNL     1      -1.193   4.430  -6.516  0.00  0.00    +0.201 C 
ATOM     25  O   UNL     1      -2.195   4.178  -7.152  0.00  0.00    -0.278 OA
ATOM     26  N   UNL     1      -0.205   5.155  -7.076  0.00  0.00    -0.281 N 
ATOM     27  H   UNL     1       0.596   5.357  -6.568  0.00  0.00    +0.155 HD
BRANCH  26  28
ATOM     28  C   UNL     1      -0.333   5.613  -8.378  0.00  0.00    +0.086 A 
ATOM     29  C   UNL     1       0.567   6.367  -9.120  0.00  0.00    +0.091 A 
ATOM     30  C   UNL     1       0.187   6.720 -10.478  0.00  0.00    -0.021 A 
ATOM     31  C   UNL     1      -1.022   6.267 -10.873  0.00  0.00    -0.004 A 
ATOM     32  S   UNL     1      -1.651   5.378  -9.477  0.00  0.00    -0.077 S 
ATOM     33  C   UNL     1      -1.672   6.474 -12.206  0.00  0.00    +0.043 C 
ATOM     34  C   UNL     1      -0.925   7.596 -12.940  0.00  0.00    +0.005 C 
ATOM     35  C   UNL     1       0.580   7.327 -12.852  0.00  0.00    +0.005 C 
ATOM     36  C   UNL     1       1.063   7.540 -11.417  0.00  0.00    +0.037 C 
BRANCH  29  37
ATOM     37  C   UNL     1       1.850   6.790  -8.556  0.00  0.00    +0.342 C 
ATOM     38  O   UNL     1       2.831   6.081  -8.677  0.00  0.00    -0.245 OA
BRANCH  37  39
ATOM     39  O   UNL     1       1.945   7.966  -7.902  0.00  0.00    -0.464 OA
ATOM     40  C   UNL     1       3.248   8.321  -7.369  0.00  0.00    +0.280 C 
ENDBRANCH  37  39
ENDBRANCH  29  37
ENDBRANCH  26  28
ENDBRANCH  23  24
ENDBRANCH  10  23
TORSDOF 9
