REMARK  Name = ZINC39675904
REMARK  13 active torsions:
REMARK  status: ('A' for Active; 'I' for Inactive)
REMARK    1  A    between atoms: C_1  and  C_2
REMARK    2  A    between atoms: C_2  and  C_3
REMARK    3  A    between atoms: C_2  and  C_4
REMARK    4  A    between atoms: C_4  and  C_6
REMARK    5  A    between atoms: C_4  and  O_34
REMARK    6  A    between atoms: C_10  and  C_19
REMARK    7  A    between atoms: N_21  and  C_22
REMARK    8  A    between atoms: C_22  and  C_23
REMARK    9  A    between atoms: C_23  and  C_25
REMARK   10  A    between atoms: C_23  and  N_31
REMARK   11  A    between atoms: N_31  and  C_32
REMARK   12  A    between atoms: N_31  and  C_33
REMARK   13  A    between atoms: O_34  and  C_35
REMARK                            x       y       z     vdW  Elec       q    Type
REMARK                         _______ _______ _______ _____ _____    ______ ____
ROOT
ATOM      1  C   UNL     1      -1.988  -0.171  -1.287  0.00  0.00    +0.257 C 
ATOM      2  O   UNL     1      -2.456  -0.957  -2.084  0.00  0.00    -0.272 OA
ATOM      3  N   UNL     1      -1.915   1.139  -1.596  0.00  0.00    -0.297 N 
ATOM      4  C   UNL     1      -1.276   2.222  -0.813  0.00  0.00    +0.121 C 
ATOM      5  C   UNL     1      -0.599   3.122  -1.872  0.00  0.00    +0.100 C 
ATOM      6  C   UNL     1      -1.379   2.855  -3.170  0.00  0.00    -0.004 C 
ATOM      7  C   UNL     1      -2.451   1.819  -2.800  0.00  0.00    +0.115 C 
ATOM      8  C   UNL     1      -0.450   2.284  -4.237  0.00  0.00    -0.010 C 
ATOM      9  C   UNL     1      -1.235   2.081  -5.536  0.00  0.00    -0.082 C 
ATOM     10  N   UNL     1      -1.792   3.365  -5.979  0.00  0.00    +0.379 N 
ATOM     11  C   UNL     1      -2.755   3.861  -4.989  0.00  0.00    -0.082 C 
ATOM     12  C   UNL     1      -2.034   4.140  -3.667  0.00  0.00    -0.010 C 
ATOM     13  H   UNL     1      -1.045   4.035  -6.085  0.00  0.00    -0.086 HD
ATOM     14  H   UNL     1      -2.257   3.240  -6.866  0.00  0.00    -0.086 HD
ENDROOT
BRANCH   5  15
ATOM     15  C   UNL     1       0.849   2.737  -2.038  0.00  0.00    +0.218 C 
ATOM     16  O   UNL     1       1.186   1.579  -1.915  0.00  0.00    -0.275 OA
ATOM     17  N   UNL     1       1.768   3.681  -2.323  0.00  0.00    -0.316 N 
ATOM     18  H   UNL     1       1.498   4.607  -2.421  0.00  0.00    +0.149 HD
BRANCH  17  19
ATOM     19  C   UNL     1       3.175   3.307  -2.484  0.00  0.00    +0.093 C 
BRANCH  19  20
ATOM     20  C   UNL     1       4.019   4.569  -2.673  0.00  0.00    -0.021 C 
BRANCH  20  21
ATOM     21  C   UNL     1       3.904   5.439  -1.447  0.00  0.00    -0.059 A 
ATOM     22  C   UNL     1       4.655   5.152  -0.323  0.00  0.00    +0.002 A 
ATOM     23  C   UNL     1       4.549   5.949   0.801  0.00  0.00    +0.000 A 
ATOM     24  C   UNL     1       3.692   7.034   0.801  0.00  0.00    +0.000 A 
ATOM     25  C   UNL     1       2.941   7.321  -0.324  0.00  0.00    +0.000 A 
ATOM     26  C   UNL     1       3.050   6.526  -1.449  0.00  0.00    +0.002 A 
ENDBRANCH  20  21
BRANCH  20  27
ATOM     27  N   UNL     1       5.425   4.192  -2.875  0.00  0.00    +0.382 N 
ATOM     28  C   UNL     1       5.551   3.422  -4.120  0.00  0.00    -0.096 C 
ATOM     29  C   UNL     1       6.249   5.405  -2.964  0.00  0.00    -0.096 C 
ATOM     30  H   UNL     1       5.737   3.630  -2.098  0.00  0.00    -0.082 HD
ENDBRANCH  20  27
ENDBRANCH  19  20
ENDBRANCH  17  19
ENDBRANCH   5  15
BRANCH   1  31
ATOM     31  C   UNL     1      -1.489  -0.659   0.048  0.00  0.00    +0.261 C 
BRANCH  31  33
ATOM     32  C   UNL     1      -3.783  -1.326   0.781  0.00  0.00    +0.011 C 
ATOM     33  C   UNL     1      -2.573  -0.448   1.107  0.00  0.00    +0.033 C 
ATOM     34  C   UNL     1      -2.023  -0.827   2.483  0.00  0.00    +0.011 C 
ENDBRANCH  31  33
BRANCH  31  35
ATOM     35  O   UNL     1      -0.317   0.071   0.414  0.00  0.00    -0.479 OA
BRANCH  35  36
ATOM     36  C   UNL     1       0.668  -0.619   1.048  0.00  0.00    +0.122 A 
ATOM     37  C   UNL     1       0.521  -1.977   1.286  0.00  0.00    +0.045 A 
ATOM     38  C   UNL     1       1.523  -2.677   1.930  0.00  0.00    +0.004 A 
ATOM     39  C   UNL     1       2.672  -2.023   2.337  0.00  0.00    +0.000 A 
ATOM     40  C   UNL     1       2.821  -0.669   2.101  0.00  0.00    +0.004 A 
ATOM     41  C   UNL     1       1.824   0.033   1.452  0.00  0.00    +0.045 A 
ENDBRANCH  35  36
ENDBRANCH  31  35
ENDBRANCH   1  31
TORSDOF 9
