REMARK  Name = ZINC12524433
REMARK  11 active torsions:
REMARK  status: ('A' for Active; 'I' for Inactive)
REMARK    1  A    between atoms: C_1  and  C_2
REMARK    2  A    between atoms: C_6  and  C_31
REMARK    3  A    between atoms: C_8  and  O_11
REMARK    4  A    between atoms: O_11  and  C_12
REMARK    5  A    between atoms: N_14  and  C_15
REMARK    6  A    between atoms: C_15  and  C_17
REMARK    7  A    between atoms: C_15  and  N_21
REMARK    8  A    between atoms: N_21  and  C_22
REMARK    9  A    between atoms: C_25  and  N_28
REMARK   10  A    between atoms: C_31  and  C_32
REMARK   11  A    between atoms: C_31  and  C_33
REMARK                            x       y       z     vdW  Elec       q    Type
REMARK                         _______ _______ _______ _____ _____    ______ ____
ROOT
ATOM      1  C   UNL     1      -1.149  -2.368  -0.458  0.00  0.00    +0.213 C 
ENDROOT
BRANCH   1   4
ATOM      2  C   UNL     1       0.228  -0.364  -0.301  0.00  0.00    +0.402 C 
ATOM      3  O   UNL     1       1.210  -1.062  -0.464  0.00  0.00    -0.226 OA
ATOM      4  N   UNL     1      -0.999  -0.921  -0.282  0.00  0.00    -0.259 N 
ATOM      5  H   UNL     1      -1.782  -0.364  -0.152  0.00  0.00    +0.154 HD
BRANCH   2   6
ATOM      6  O   UNL     1       0.366   0.965  -0.139  0.00  0.00    -0.447 OA
BRANCH   6  12
ATOM      7  C   UNL     1      -0.312   2.365  -2.096  0.00  0.00    +0.007 C 
ATOM      8  C   UNL     1       1.111   2.925  -2.129  0.00  0.00    -0.011 C 
ATOM      9  C   UNL     1       1.190   4.170  -1.244  0.00  0.00    +0.004 C 
ATOM     10  C   UNL     1       0.821   3.800   0.194  0.00  0.00    +0.007 C 
ATOM     11  C   UNL     1       1.797   2.742   0.714  0.00  0.00    +0.032 C 
ATOM     12  C   UNL     1       1.718   1.496  -0.170  0.00  0.00    +0.182 C 
ATOM     13  C   UNL     1       2.087   1.867  -1.608  0.00  0.00    +0.048 C 
BRANCH  11  14
ATOM     14  C   UNL     1       1.427   2.371   2.152  0.00  0.00    -0.011 C 
ATOM     15  C   UNL     1       2.403   1.314   2.672  0.00  0.00    +0.007 C 
ATOM     16  C   UNL     1       1.506   3.617   3.036  0.00  0.00    +0.007 C 
ENDBRANCH  11  14
ENDBRANCH   6  12
ENDBRANCH   2   6
ENDBRANCH   1   4
BRANCH   1  17
ATOM     17  C   UNL     1      -2.288  -2.646  -1.441  0.00  0.00    +0.225 C 
ATOM     18 CL   UNL     1      -1.910  -1.884  -3.031  0.00  0.00    -0.080 Cl
ATOM     19 CL   UNL     1      -2.473  -4.427  -1.658  0.00  0.00    -0.080 Cl
ATOM     20 CL   UNL     1      -3.823  -1.957  -0.794  0.00  0.00    -0.080 Cl
ENDBRANCH   1  17
BRANCH   1  21
ATOM     21  N   UNL     1      -1.457  -2.987   0.833  0.00  0.00    -0.323 N 
ATOM     22  H   UNL     1      -2.346  -2.905   1.212  0.00  0.00    +0.148 HD
BRANCH  21  23
ATOM     23  C   UNL     1      -0.469  -3.697   1.520  0.00  0.00    +0.029 A 
ATOM     24  C   UNL     1       0.834  -3.719   1.039  0.00  0.00    +0.025 A 
ATOM     25  C   UNL     1       1.809  -4.417   1.724  0.00  0.00    +0.034 A 
ATOM     26  C   UNL     1       1.488  -5.103   2.881  0.00  0.00    +0.126 A 
ATOM     27  C   UNL     1       0.190  -5.088   3.360  0.00  0.00    +0.034 A 
ATOM     28  C   UNL     1      -0.789  -4.387   2.683  0.00  0.00    +0.025 A 
BRANCH  26  29
ATOM     29  N   UNL     1       2.534  -5.854   3.609  0.00  0.00    +0.056 N 
ATOM     30  O   UNL     1       2.253  -6.458   4.628  0.00  0.00    -0.126 OA
ATOM     31  O   UNL     1       3.678  -5.869   3.189  0.00  0.00    -0.126 OA
ENDBRANCH  26  29
ENDBRANCH  21  23
ENDBRANCH   1  21
TORSDOF 8
