REMARK  Name = ZINC15223710
REMARK  8 active torsions:
REMARK  status: ('A' for Active; 'I' for Inactive)
REMARK    1  A    between atoms: C_1  and  C_2
REMARK    2  A    between atoms: C_5  and  N_9
REMARK    3  A    between atoms: C_7  and  C_8
REMARK    4  A    between atoms: C_10  and  C_24
REMARK    5  A    between atoms: C_12  and  C_15
REMARK    6  A    between atoms: C_13  and  C_14
REMARK    7  A    between atoms: N_16  and  C_17
REMARK    8  A    between atoms: C_21  and  O_23
REMARK                            x       y       z     vdW  Elec       q    Type
REMARK                         _______ _______ _______ _____ _____    ______ ____
ROOT
ATOM      1  N   UNL     1       0.225   9.453   0.380  0.00  0.00    -0.317 N 
ATOM      2  C   UNL     1       1.201   9.488   1.336  0.00  0.00    +0.022 A 
ATOM      3  C   UNL     1       1.549   8.230   1.658  0.00  0.00    +0.032 A 
ATOM      4  C   UNL     1       0.721   7.343   0.833  0.00  0.00    +0.014 A 
ATOM      5  C   UNL     1      -0.071   8.168   0.061  0.00  0.00    +0.030 A 
ATOM      6  C   UNL     1      -1.090   7.721  -0.955  0.00  0.00    +0.064 C 
ATOM      7  C   UNL     1       1.792  10.738   1.935  0.00  0.00    +0.064 C 
ENDROOT
BRANCH   1  12
ATOM      8  C   UNL     1      -2.214  14.021  -1.943  0.00  0.00    +0.044 C 
ATOM      9  C   UNL     1      -1.566  12.808  -1.326  0.00  0.00    -0.047 A 
ATOM     10  C   UNL     1      -0.797  11.964  -2.107  0.00  0.00    +0.005 A 
ATOM     11  C   UNL     1      -0.203  10.851  -1.544  0.00  0.00    +0.026 A 
ATOM     12  C   UNL     1      -0.377  10.581  -0.194  0.00  0.00    +0.047 A 
ATOM     13  C   UNL     1      -1.153  11.427   0.587  0.00  0.00    +0.029 A 
ATOM     14  C   UNL     1      -1.741  12.541   0.019  0.00  0.00    -0.046 A 
ATOM     15  C   UNL     1      -2.580  13.463   0.866  0.00  0.00    +0.044 C 
ENDBRANCH   1  12
BRANCH   4  16
ATOM     16  C   UNL     1       0.736   5.874   0.825  0.00  0.00    +0.121 C 
ATOM     17  N   UNL     1      -0.064   5.217   0.030  0.00  0.00    -0.255 NA
BRANCH  17  18
ATOM     18  C   UNL     1      -0.049   3.849   0.023  0.00  0.00    +0.067 A 
ATOM     19  C   UNL     1       1.167   3.160   0.008  0.00  0.00    +0.028 A 
ATOM     20  C   UNL     1       1.177   1.781   0.000  0.00  0.00    +0.006 A 
ATOM     21  C   UNL     1      -0.013   1.076   0.008  0.00  0.00    +0.045 A 
ATOM     22  C   UNL     1      -1.226   1.751   0.017  0.00  0.00    +0.119 A 
ATOM     23  C   UNL     1      -1.248   3.135   0.031  0.00  0.00    +0.073 A 
BRANCH  22  24
ATOM     24  O   UNL     1      -2.392   1.052   0.019  0.00  0.00    -0.507 OA
ATOM     25  H   UNL     1      -3.353   1.587   0.026  0.00  0.00    +0.292 HD
ENDBRANCH  22  24
ENDBRANCH  17  18
ENDBRANCH   4  16
TORSDOF 4
