REMARK  Name = ZINC66981824
REMARK  9 active torsions:
REMARK  status: ('A' for Active; 'I' for Inactive)
REMARK    1  A    between atoms: C_1  and  C_2
REMARK    2  A    between atoms: C_7  and  O_8
REMARK    3  A    between atoms: O_8  and  C_9
REMARK    4  A    between atoms: C_9  and  C_10
REMARK    5  A    between atoms: C_10  and  C_12
REMARK    6  A    between atoms: C_10  and  N_13
REMARK    7  A    between atoms: N_16  and  C_17
REMARK    8  A    between atoms: C_19  and  N_25
REMARK    9  A    between atoms: C_26  and  C_28
REMARK                            x       y       z     vdW  Elec       q    Type
REMARK                         _______ _______ _______ _____ _____    ______ ____
ROOT
ATOM      1  N   UNL     1      -1.177   0.839   4.859  0.00  0.00    -0.293 N 
ATOM      2  C   UNL     1      -1.638   1.319   6.032  0.00  0.00    +0.304 C 
ATOM      3  O   UNL     1      -1.011   1.128   7.055  0.00  0.00    -0.252 OA
ATOM      4  N   UNL     1      -2.795   2.010   6.069  0.00  0.00    -0.267 N 
ATOM      5  H   UNL     1      -1.677   0.992   4.042  0.00  0.00    +0.151 HD
ATOM      6  H   UNL     1      -3.253   2.232   5.244  0.00  0.00    +0.156 HD
ENDROOT
BRANCH   4   7
ATOM      7  C   UNL     1      -3.334   2.408   7.300  0.00  0.00    +0.072 A 
ATOM      8  C   UNL     1      -3.021   1.705   8.454  0.00  0.00    +0.052 A 
ATOM      9  C   UNL     1      -3.556   2.101   9.671  0.00  0.00    +0.071 A 
ATOM     10  C   UNL     1      -4.405   3.201   9.732  0.00  0.00    +0.147 A 
ATOM     11  C   UNL     1      -4.716   3.900   8.580  0.00  0.00    +0.080 A 
ATOM     12  C   UNL     1      -4.179   3.510   7.366  0.00  0.00    +0.147 A 
ATOM     13  F   UNL     1      -4.480   4.198   6.242  0.00  0.00    -0.203 F 
ATOM     14  F   UNL     1      -4.926   3.587  10.917  0.00  0.00    -0.203 F 
BRANCH   9  15
ATOM     15  N   UNL     1      -3.241   1.393  10.839  0.00  0.00    -0.283 N 
ATOM     16  C   UNL     1      -2.866   0.101  10.763  0.00  0.00    +0.214 C 
ATOM     17  O   UNL     1      -2.898  -0.478   9.697  0.00  0.00    -0.276 OA
ATOM     18  C   UNL     1      -2.408  -0.625  12.002  0.00  0.00    +0.109 C 
ATOM     19  H   UNL     1      -3.294   1.833  11.702  0.00  0.00    +0.155 HD
ENDBRANCH   9  15
ENDBRANCH   4   7
BRANCH   1  20
ATOM     20  C   UNL     1       0.080   0.088   4.819  0.00  0.00    +0.109 C 
ATOM     21  C   UNL     1       1.254   1.063   4.714  0.00  0.00    +0.031 C 
BRANCH  20  22
ATOM     22  C   UNL     1       0.079  -0.842   3.604  0.00  0.00    +0.251 C 
BRANCH  22  23
ATOM     23  O   UNL     1       0.067  -0.062   2.407  0.00  0.00    -0.490 OA
BRANCH  23  30
ATOM     24  C   UNL     1       0.041   1.462   0.028  0.00  0.00    +0.047 C 
ATOM     25  C   UNL     1       0.052  -0.045   0.028  0.00  0.00    -0.009 A 
ATOM     26  C   UNL     1       0.056  -0.737  -1.168  0.00  0.00    +0.007 A 
ATOM     27  C   UNL     1       0.066  -2.119  -1.169  0.00  0.00    +0.000 A 
ATOM     28  C   UNL     1       0.072  -2.813   0.027  0.00  0.00    +0.004 A 
ATOM     29  C   UNL     1       0.069  -2.127   1.225  0.00  0.00    +0.046 A 
ATOM     30  C   UNL     1       0.064  -0.740   1.229  0.00  0.00    +0.123 A 
ENDBRANCH  23  30
ENDBRANCH  22  23
ENDBRANCH  20  22
ENDBRANCH   1  20
TORSDOF 6
