REMARK  Name = ZINC04129817
REMARK  3 active torsions:
REMARK  status: ('A' for Active; 'I' for Inactive)
REMARK    1  A    between atoms: C_3  and  C_6
REMARK    2  A    between atoms: C_14  and  C_17
REMARK    3  A    between atoms: C_20  and  N_23
REMARK                            x       y       z     vdW  Elec       q    Type
REMARK                         _______ _______ _______ _____ _____    ______ ____
ROOT
ATOM      1  C   UNL     1      -4.714  -1.084  -0.041  0.00  0.00    +0.153 C 
ATOM      2  N   UNL     1      -5.483   0.001   0.085  0.00  0.00    -0.229 NA
ATOM      3  C   UNL     1      -5.081   1.263   0.168  0.00  0.00    +0.075 A 
ATOM      4  C   UNL     1      -6.142   2.185   0.295  0.00  0.00    +0.031 A 
ATOM      5  C   UNL     1      -5.863   3.511   0.388  0.00  0.00    +0.040 A 
ATOM      6  C   UNL     1      -4.546   3.993   0.362  0.00  0.00    +0.124 A 
ATOM      7  C   UNL     1      -3.468   3.144   0.240  0.00  0.00    +0.050 A 
ATOM      8  C   UNL     1      -3.692   1.769   0.145  0.00  0.00    +0.031 A 
ATOM      9  C   UNL     1      -2.503   1.012   0.019  0.00  0.00    +0.098 C 
ATOM     10  N   UNL     1      -2.421  -0.323  -0.093  0.00  0.00    -0.180 NA
ATOM     11  N   UNL     1      -3.361  -1.197  -0.117  0.00  0.00    -0.219 N 
ATOM     12  F   UNL     1      -4.329   5.323   0.458  0.00  0.00    -0.205 F 
ATOM     13  H   UNL     1      -3.047  -2.111  -0.206  0.00  0.00    +0.176 HD
ENDROOT
BRANCH   9  14
ATOM     14  C   UNL     1      -1.232   1.761   0.018  0.00  0.00    +0.003 A 
ATOM     15  C   UNL     1      -0.685   2.213  -1.188  0.00  0.00    +0.012 A 
ATOM     16  C   UNL     1       0.500   2.917  -1.181  0.00  0.00    +0.033 A 
ATOM     17  C   UNL     1       1.151   3.172   0.014  0.00  0.00    +0.126 A 
ATOM     18  C   UNL     1       0.618   2.723   1.211  0.00  0.00    +0.033 A 
ATOM     19  C   UNL     1      -0.566   2.017   1.220  0.00  0.00    +0.012 A 
BRANCH  17  20
ATOM     20  N   UNL     1       2.423   3.930   0.013  0.00  0.00    +0.056 N 
ATOM     21  O   UNL     1       2.932   4.359  -1.123  0.00  0.00    -0.126 OA
ATOM     22  O   UNL     1       3.045   4.174   1.148  0.00  0.00    -0.126 OA
ENDBRANCH  17  20
ENDBRANCH   9  14
BRANCH   1  25
ATOM     23  C   UNL     1      -5.835  -4.623  -0.270  0.00  0.00    +0.008 A 
ATOM     24  C   UNL     1      -4.920  -3.605  -0.233  0.00  0.00    +0.019 A 
ATOM     25  C   UNL     1      -5.419  -2.311  -0.104  0.00  0.00    +0.053 A 
ATOM     26  S   UNL     1      -7.178  -2.603  -0.033  0.00  0.00    -0.094 S 
ATOM     27  C   UNL     1      -7.162  -4.330  -0.180  0.00  0.00    +0.046 A 
ENDBRANCH   1  25
TORSDOF 3
