REMARK  Name = ZINC11983025
REMARK  6 active torsions:
REMARK  status: ('A' for Active; 'I' for Inactive)
REMARK    1  A    between atoms: C_4  and  C_7
REMARK    2  A    between atoms: C_7  and  C_8
REMARK    3  A    between atoms: C_13  and  C_14
REMARK    4  A    between atoms: C_13  and  N_67
REMARK    5  A    between atoms: C_17  and  C_22
REMARK    6  A    between atoms: N_24  and  C_25
REMARK                            x       y       z     vdW  Elec       q    Type
REMARK                         _______ _______ _______ _____ _____    ______ ____
ROOT
ATOM      1  C   UNL     1       2.592   1.202  -0.134  0.00  0.00    +0.003 A 
ATOM      2  C   UNL     1       2.558  -0.150  -0.241  0.00  0.00    +0.020 A 
ATOM      3  C   UNL     1       1.334  -0.819  -0.277  0.00  0.00    +0.020 A 
ATOM      4  C   UNL     1       0.157  -0.076  -0.203  0.00  0.00    +0.101 A 
ATOM      5  C   UNL     1       0.245   1.336  -0.092  0.00  0.00    +0.261 A 
ATOM      6  O   UNL     1      -0.769   2.009  -0.031  0.00  0.00    -0.267 OA
ATOM      7  N   UNL     1       1.453   1.931  -0.062  0.00  0.00    -0.327 N 
ATOM      8  H   UNL     1       1.508   2.896   0.013  0.00  0.00    +0.169 HD
ENDROOT
BRANCH   4   9
ATOM      9  C   UNL     1      -1.153  -0.744  -0.237  0.00  0.00    +0.250 C 
ATOM     10  O   UNL     1      -1.220  -1.941  -0.441  0.00  0.00    -0.270 OA
ATOM     11  N   UNL     1      -2.279  -0.029  -0.043  0.00  0.00    -0.304 N 
ATOM     12  H   UNL     1      -2.223   0.909   0.196  0.00  0.00    +0.150 HD
BRANCH  11  13
ATOM     13  C   UNL     1      -3.588  -0.669  -0.194  0.00  0.00    +0.104 C 
ATOM     14  C   UNL     1      -4.619   0.090   0.640  0.00  0.00    +0.027 C 
ATOM     15  C   UNL     1      -6.011  -0.458   0.302  0.00  0.00    +0.007 C 
ATOM     16  C   UNL     1      -6.367  -0.025  -1.119  0.00  0.00    +0.035 C 
ATOM     17  C   UNL     1      -5.255  -0.375  -2.073  0.00  0.00    -0.042 A 
ATOM     18  C   UNL     1      -3.978  -0.667  -1.649  0.00  0.00    -0.024 A 
ATOM     19  C   UNL     1      -2.996  -0.974  -2.582  0.00  0.00    +0.006 A 
ATOM     20  C   UNL     1      -3.291  -0.994  -3.929  0.00  0.00    +0.000 A 
ATOM     21  C   UNL     1      -4.574  -0.705  -4.355  0.00  0.00    +0.000 A 
ATOM     22  C   UNL     1      -5.550  -0.397  -3.430  0.00  0.00    +0.004 A 
ENDBRANCH  11  13
ENDBRANCH   4   9
BRANCH   1  23
ATOM     23  C   UNL     1       3.924   1.907  -0.096  0.00  0.00    -0.025 C 
BRANCH  23  29
ATOM     24  C   UNL     1       3.285   4.006  -3.766  0.00  0.00    -0.010 C 
ATOM     25  C   UNL     1       3.614   4.793  -2.495  0.00  0.00    -0.015 C 
ATOM     26  C   UNL     1       3.300   3.930  -1.271  0.00  0.00    -0.078 C 
ATOM     27  C   UNL     1       3.762   1.901  -2.512  0.00  0.00    -0.078 C 
ATOM     28  C   UNL     1       4.090   2.704  -3.773  0.00  0.00    -0.015 C 
ATOM     29  N   UNL     1       4.124   2.704  -1.325  0.00  0.00    +0.383 N 
ATOM     30  H   UNL     1       5.114   2.970  -1.392  0.00  0.00    -0.081 HD
BRANCH  24  31
ATOM     31  C   UNL     1       3.652   4.842  -4.994  0.00  0.00    +0.038 C 
BRANCH  31  35
ATOM     32  C   UNL     1       2.417   2.793  -8.533  0.00  0.00    +0.000 A 
ATOM     33  C   UNL     1       1.553   3.671  -7.905  0.00  0.00    +0.000 A 
ATOM     34  C   UNL     1       1.953   4.334  -6.761  0.00  0.00    +0.003 A 
ATOM     35  C   UNL     1       3.216   4.119  -6.242  0.00  0.00    -0.047 A 
ATOM     36  C   UNL     1       4.082   3.244  -6.873  0.00  0.00    +0.003 A 
ATOM     37  C   UNL     1       3.680   2.578  -8.015  0.00  0.00    +0.000 A 
ENDBRANCH  31  35
ENDBRANCH  24  31
ENDBRANCH  23  29
ENDBRANCH   1  23
TORSDOF 6
