REMARK  Name = ZINC39531288
REMARK  9 active torsions:
REMARK  status: ('A' for Active; 'I' for Inactive)
REMARK    1  A    between atoms: C_4  and  C_7
REMARK    2  A    between atoms: C_7  and  C_8
REMARK    3  A    between atoms: C_11  and  C_14
REMARK    4  A    between atoms: C_14  and  C_16
REMARK    5  A    between atoms: C_14  and  N_28
REMARK    6  A    between atoms: C_16  and  N_17
REMARK    7  A    between atoms: N_17  and  S_18
REMARK    8  A    between atoms: S_18  and  O_21
REMARK    9  A    between atoms: O_21  and  C_22
REMARK                            x       y       z     vdW  Elec       q    Type
REMARK                         _______ _______ _______ _____ _____    ______ ____
ROOT
ATOM      1  C   UNL     1       5.450  -1.675   5.388  0.00  0.00    +0.065 C 
ENDROOT
BRANCH   1   2
ATOM      2  N   UNL     1       5.704  -3.103   5.620  0.00  0.00    -0.294 NA
ATOM      3  C   UNL     1       4.452  -3.823   5.894  0.00  0.00    +0.100 C 
ATOM      4  C   UNL     1       4.750  -5.316   6.051  0.00  0.00    +0.097 C 
ATOM      5  N   UNL     1       5.714  -5.508   7.143  0.00  0.00    -0.299 NA
ATOM      6  C   UNL     1       6.966  -4.789   6.869  0.00  0.00    +0.161 C 
ATOM      7  C   UNL     1       6.668  -3.296   6.712  0.00  0.00    +0.120 C 
ATOM      8 CL   UNL     1       8.113  -5.033   8.238  0.00  0.00    -0.104 Cl
ATOM      9  H   UNL     1       5.321  -5.225   8.027  0.00  0.00    +0.123 HD
ENDBRANCH   1   2
BRANCH   1  13
ATOM     10  C   UNL     1       3.739  -1.145   1.510  0.00  0.00    -0.043 A 
ATOM     11  C   UNL     1       4.064  -0.043   2.278  0.00  0.00    +0.004 A 
ATOM     12  C   UNL     1       4.618  -0.214   3.533  0.00  0.00    +0.005 A 
ATOM     13  C   UNL     1       4.846  -1.488   4.020  0.00  0.00    -0.032 A 
ATOM     14  C   UNL     1       4.519  -2.590   3.252  0.00  0.00    +0.005 A 
ATOM     15  C   UNL     1       3.962  -2.419   1.999  0.00  0.00    +0.004 A 
BRANCH  10  16
ATOM     16  C   UNL     1       3.136  -0.959   0.141  0.00  0.00    +0.070 C 
BRANCH  16  20
ATOM     17  C   UNL     1      -1.121  -0.804   0.469  0.00  0.00    +0.000 A 
ATOM     18  C   UNL     1      -0.378   0.359   0.555  0.00  0.00    +0.000 A 
ATOM     19  C   UNL     1       0.999   0.309   0.449  0.00  0.00    +0.004 A 
ATOM     20  C   UNL     1       1.634  -0.904   0.258  0.00  0.00    -0.043 A 
ATOM     21  C   UNL     1       0.891  -2.067   0.172  0.00  0.00    +0.004 A 
ATOM     22  C   UNL     1      -0.486  -2.017   0.276  0.00  0.00    +0.000 A 
ENDBRANCH  16  20
ENDBRANCH  10  16
ENDBRANCH   1  13
BRANCH   1  23
ATOM     23  C   UNL     1       4.481  -1.150   6.449  0.00  0.00    -0.087 C 
BRANCH  23  24
ATOM     24  N   UNL     1       5.053  -1.365   7.781  0.00  0.00    +0.494 NA
BRANCH  24  25
ATOM     25  S   UNL     1       4.215  -0.890   9.128  0.00  0.00    +0.067 S 
ATOM     26  O   UNL     1       4.146   0.529   9.085  0.00  0.00    -0.159 OA
ATOM     27  O   UNL     1       3.054  -1.707   9.193  0.00  0.00    -0.159 OA
BRANCH  25  28
ATOM     28  O   UNL     1       5.067  -1.247  10.337  0.00  0.00    -0.362 OA
BRANCH  28  29
ATOM     29  C   UNL     1       6.128  -0.420  10.530  0.00  0.00    +0.154 A 
ATOM     30  C   UNL     1       7.348  -0.706   9.934  0.00  0.00    +0.048 A 
ATOM     31  C   UNL     1       8.425   0.137  10.131  0.00  0.00    +0.004 A 
ATOM     32  C   UNL     1       8.288   1.263  10.921  0.00  0.00    +0.000 A 
ATOM     33  C   UNL     1       7.073   1.550  11.515  0.00  0.00    +0.004 A 
ATOM     34  C   UNL     1       5.992   0.714  11.317  0.00  0.00    +0.048 A 
ENDBRANCH  28  29
ENDBRANCH  25  28
ENDBRANCH  24  25
ENDBRANCH  23  24
ENDBRANCH   1  23
TORSDOF 9
