REMARK  Name = ZINC00857163
REMARK  5 active torsions:
REMARK  status: ('A' for Active; 'I' for Inactive)
REMARK    1  A    between atoms: C_3  and  N_26
REMARK    2  A    between atoms: C_6  and  C_7
REMARK    3  A    between atoms: N_9  and  N_10
REMARK    4  A    between atoms: N_10  and  C_11
REMARK    5  A    between atoms: N_16  and  C_19
REMARK                            x       y       z     vdW  Elec       q    Type
REMARK                         _______ _______ _______ _____ _____    ______ ____
ROOT
ATOM      1  N   UNL     1      -2.463  -2.848   0.049  0.00  0.00    -0.228 NA
ATOM      2  H   UNL     1      -3.048  -2.570  -0.725  0.00  0.00    +0.145 HD
ENDROOT
BRANCH   1   3
ATOM      3  C   UNL     1      -2.176  -4.288   0.000  0.00  0.00    +0.168 C 
ATOM      4  C   UNL     1      -1.313  -4.628  -1.232  0.00  0.00    +0.126 C 
ATOM      5  C   UNL     1      -0.044  -5.193  -0.631  0.00  0.00    +0.228 C 
ATOM      6  O   UNL     1       0.914  -5.590  -1.260  0.00  0.00    -0.275 OA
ATOM      7  N   UNL     1      -0.146  -5.184   0.703  0.00  0.00    -0.209 N 
ATOM      8  C   UNL     1      -1.307  -4.697   1.170  0.00  0.00    +0.245 C 
ATOM      9  O   UNL     1      -1.611  -4.598   2.339  0.00  0.00    -0.273 OA
BRANCH   7  10
ATOM     10  C   UNL     1       0.874  -5.648   1.546  0.00  0.00    +0.044 A 
ATOM     11  C   UNL     1       1.204  -6.996   1.561  0.00  0.00    +0.025 A 
ATOM     12  C   UNL     1       2.210  -7.450   2.392  0.00  0.00    +0.017 A 
ATOM     13  C   UNL     1       2.888  -6.563   3.209  0.00  0.00    +0.018 A 
ATOM     14  C   UNL     1       2.561  -5.219   3.195  0.00  0.00    +0.017 A 
ATOM     15  C   UNL     1       1.560  -4.758   2.362  0.00  0.00    +0.025 A 
ATOM     16 BR   UNL     1       4.263  -7.188   4.345  0.00  0.00    -0.050 Br
ENDBRANCH   7  10
ENDBRANCH   1   3
BRANCH   1  19
ATOM     17  C   UNL     1      -1.363  -0.773   0.122  0.00  0.00    +0.258 C 
ATOM     18  O   UNL     1      -2.439  -0.208   0.139  0.00  0.00    -0.269 OA
ATOM     19  N   UNL     1      -1.309  -2.119   0.076  0.00  0.00    -0.246 N 
ATOM     20  H   UNL     1      -0.450  -2.570   0.064  0.00  0.00    +0.169 HD
BRANCH  17  26
ATOM     21  C   UNL     1      -0.165   1.410   0.200  0.00  0.00    +0.015 A 
ATOM     22  C   UNL     1       1.005   2.141   0.228  0.00  0.00    +0.033 A 
ATOM     23  C   UNL     1       2.228   1.494   0.210  0.00  0.00    +0.126 A 
ATOM     24  C   UNL     1       2.287   0.113   0.163  0.00  0.00    +0.033 A 
ATOM     25  C   UNL     1       1.125  -0.629   0.134  0.00  0.00    +0.015 A 
ATOM     26  C   UNL     1      -0.113   0.016   0.152  0.00  0.00    +0.038 A 
BRANCH  23  27
ATOM     27  N   UNL     1       3.479   2.285   0.240  0.00  0.00    +0.056 N 
ATOM     28  O   UNL     1       3.431   3.492   0.281  0.00  0.00    -0.126 OA
ATOM     29  O   UNL     1       4.550   1.723   0.224  0.00  0.00    -0.126 OA
ENDBRANCH  23  27
ENDBRANCH  17  26
ENDBRANCH   1  19
TORSDOF 5
