REMARK  Name = ZINC63514033
REMARK  10 active torsions:
REMARK  status: ('A' for Active; 'I' for Inactive)
REMARK    1  A    between atoms: C_1  and  C_2
REMARK    2  A    between atoms: C_4  and  C_14
REMARK    3  A    between atoms: C_7  and  O_12
REMARK    4  A    between atoms: O_12  and  C_13
REMARK    5  A    between atoms: C_14  and  C_15
REMARK    6  A    between atoms: C_15  and  N_16
REMARK    7  A    between atoms: N_16  and  S_17
REMARK    8  A    between atoms: S_17  and  C_20
REMARK    9  A    between atoms: C_24  and  O_26
REMARK   10  A    between atoms: O_26  and  C_27
REMARK                            x       y       z     vdW  Elec       q    Type
REMARK                         _______ _______ _______ _____ _____    ______ ____
ROOT
ATOM      1  C   UNL     1      -3.765  -1.048  -0.551  0.00  0.00    +0.110 C 
ENDROOT
BRANCH   1   2
ATOM      2  N   UNL     1      -4.819  -0.825  -1.544  0.00  0.00    -0.190 NA
ATOM      3  H   UNL     1      -4.724  -0.119  -2.202  0.00  0.00    +0.148 HD
BRANCH   2   4
ATOM      4  S   UNL     1      -6.173  -1.779  -1.544  0.00  0.00    +0.059 S 
ATOM      5  O   UNL     1      -7.005  -1.304  -2.593  0.00  0.00    -0.153 OA
ATOM      6  O   UNL     1      -5.721  -3.125  -1.480  0.00  0.00    -0.153 OA
BRANCH   4   7
ATOM      7  C   UNL     1      -7.031  -1.465  -0.037  0.00  0.00    +0.109 A 
ATOM      8  C   UNL     1      -6.746  -2.214   1.089  0.00  0.00    +0.030 A 
ATOM      9  C   UNL     1      -7.418  -1.970   2.273  0.00  0.00    +0.025 A 
ATOM     10  C   UNL     1      -8.377  -0.976   2.332  0.00  0.00    +0.083 A 
ATOM     11  C   UNL     1      -8.664  -0.223   1.202  0.00  0.00    +0.140 A 
ATOM     12  C   UNL     1      -7.985  -0.466   0.018  0.00  0.00    +0.075 A 
ATOM     13 CL   UNL     1      -9.221  -0.670   3.818  0.00  0.00    -0.080 Cl
BRANCH  11  14
ATOM     14  O   UNL     1      -9.607   0.755   1.257  0.00  0.00    -0.494 OA
ATOM     15  C   UNL     1      -9.850   1.490   0.056  0.00  0.00    +0.277 C 
ENDBRANCH  11  14
ENDBRANCH   4   7
ENDBRANCH   2   4
ENDBRANCH   1   2
BRANCH   1  16
ATOM     16  C   UNL     1      -2.494  -0.315  -0.984  0.00  0.00    +0.050 C 
BRANCH  16  19
ATOM     17  C   UNL     1      -0.019   1.526   0.010  0.00  0.00    +0.035 C 
ATOM     18  C   UNL     1       0.002  -0.004   0.002  0.00  0.00    +0.103 C 
ATOM     19  C   UNL     1      -1.410  -0.545   0.038  0.00  0.00    -0.037 C 
ATOM     20  C   UNL     1      -1.503  -1.275   1.172  0.00  0.00    +0.003 A 
ATOM     21  C   UNL     1      -2.598  -2.045   1.773  0.00  0.00    +0.055 A 
ATOM     22  C   UNL     1      -2.393  -2.691   2.946  0.00  0.00    +0.121 A 
ATOM     23  C   UNL     1      -1.160  -2.651   3.620  0.00  0.00    +0.047 A 
ATOM     24  C   UNL     1      -0.095  -1.970   3.147  0.00  0.00    +0.029 A 
ATOM     25  C   UNL     1      -0.204  -1.234   1.883  0.00  0.00    +0.043 A 
ATOM     26  N   UNL     1       0.658  -0.508   1.214  0.00  0.00    -0.378 N 
ATOM     27  H   UNL     1       1.576  -0.332   1.476  0.00  0.00    +0.160 HD
BRANCH  22  28
ATOM     28  O   UNL     1      -3.416  -3.401   3.491  0.00  0.00    -0.495 OA
ATOM     29  C   UNL     1      -3.157  -4.065   4.729  0.00  0.00    +0.277 C 
ENDBRANCH  22  28
ENDBRANCH  16  19
ENDBRANCH   1  16
TORSDOF 7
