REMARK  Name = ZINC00938427
REMARK  8 active torsions:
REMARK  status: ('A' for Active; 'I' for Inactive)
REMARK    1  A    between atoms: C_1  and  C_2
REMARK    2  A    between atoms: C_2  and  O_3
REMARK    3  A    between atoms: O_3  and  C_4
REMARK    4  A    between atoms: C_4  and  C_6
REMARK    5  A    between atoms: C_10  and  N_11
REMARK    6  A    between atoms: C_12  and  C_14
REMARK    7  A    between atoms: C_14  and  C_15
REMARK    8  A    between atoms: C_28  and  C_32
REMARK                            x       y       z     vdW  Elec       q    Type
REMARK                         _______ _______ _______ _____ _____    ______ ____
ROOT
ATOM      1  N   UNL     1      -3.682   5.097   3.803  0.00  0.00    -0.279 N 
ATOM      2  C   UNL     1      -3.707   4.736   2.505  0.00  0.00    +0.220 C 
ATOM      3  O   UNL     1      -3.849   5.578   1.644  0.00  0.00    -0.275 OA
ATOM      4  H   UNL     1      -3.569   4.424   4.492  0.00  0.00    +0.155 HD
ENDROOT
BRANCH   1   9
ATOM      5  C   UNL     1      -3.817   6.994   5.423  0.00  0.00    +0.091 A 
ATOM      6  C   UNL     1      -3.977   8.436   5.519  0.00  0.00    -0.021 A 
ATOM      7  C   UNL     1      -4.111   9.079   4.339  0.00  0.00    -0.004 A 
ATOM      8  S   UNL     1      -4.021   7.803   3.115  0.00  0.00    -0.077 S 
ATOM      9  C   UNL     1      -3.817   6.431   4.154  0.00  0.00    +0.086 A 
ATOM     10  C   UNL     1      -4.290  10.550   4.127  0.00  0.00    +0.046 C 
ATOM     11  C   UNL     1      -3.924  11.274   5.431  0.00  0.00    -0.009 C 
ATOM     12  C   UNL     1      -4.628  10.574   6.598  0.00  0.00    +0.008 C 
ATOM     13  C   UNL     1      -3.998   9.201   6.836  0.00  0.00    +0.037 C 
ATOM     14  C   UNL     1      -4.385  12.732   5.355  0.00  0.00    +0.008 C 
BRANCH   5  15
ATOM     15  C   UNL     1      -3.660   6.166   6.621  0.00  0.00    +0.342 C 
ATOM     16  O   UNL     1      -2.550   5.942   7.066  0.00  0.00    -0.245 OA
BRANCH  15  17
ATOM     17  O   UNL     1      -4.748   5.652   7.232  0.00  0.00    -0.461 OA
BRANCH  17  19
ATOM     18  C   UNL     1      -5.858   4.350   8.964  0.00  0.00    +0.048 C 
ATOM     19  C   UNL     1      -4.518   4.841   8.414  0.00  0.00    +0.229 C 
ENDBRANCH  17  19
ENDBRANCH  15  17
ENDBRANCH   5  15
ENDBRANCH   1   9
BRANCH   2  20
ATOM     20  C   UNL     1      -3.560   3.285   2.123  0.00  0.00    +0.127 C 
BRANCH  20  21
ATOM     21  C   UNL     1      -3.623   3.150   0.601  0.00  0.00    +0.166 C 
ATOM     22  C   UNL     1      -3.600   1.690   0.223  0.00  0.00    +0.238 C 
ATOM     23  O   UNL     1      -4.644   1.085   0.102  0.00  0.00    -0.273 OA
ATOM     24  N   UNL     1      -2.433   1.052   0.018  0.00  0.00    -0.282 N 
ATOM     25  C   UNL     1      -1.221   1.753   0.017  0.00  0.00    +0.055 A 
ATOM     26  C   UNL     1      -0.013   1.076   0.008  0.00  0.00    +0.025 A 
ATOM     27  C   UNL     1       1.175   1.784   0.000  0.00  0.00    +0.002 A 
ATOM     28  C   UNL     1       1.163   3.167   0.007  0.00  0.00    +0.002 A 
ATOM     29  C   UNL     1      -0.038   3.852   0.018  0.00  0.00    +0.025 A 
ATOM     30  C   UNL     1      -1.230   3.149   0.022  0.00  0.00    +0.049 A 
ATOM     31  N   UNL     1      -2.462   3.819   0.010  0.00  0.00    -0.331 N 
ATOM     32  H   UNL     1      -2.431   0.094  -0.131  0.00  0.00    +0.155 HD
ATOM     33  H   UNL     1      -2.547   4.699  -0.389  0.00  0.00    +0.147 HD
ENDBRANCH  20  21
ENDBRANCH   2  20
TORSDOF 6
