REMARK  Name = ZINC09305256
REMARK  15 active torsions:
REMARK  status: ('A' for Active; 'I' for Inactive)
REMARK    1  A    between atoms: C_1  and  C_2
REMARK    2  A    between atoms: C_2  and  C_3
REMARK    3  A    between atoms: C_3  and  C_5
REMARK    4  A    between atoms: C_3  and  C_6
REMARK    5  A    between atoms: C_6  and  C_8
REMARK    6  A    between atoms: C_6  and  N_14
REMARK    7  A    between atoms: N_10  and  C_11
REMARK    8  A    between atoms: C_11  and  C_12
REMARK    9  A    between atoms: C_11  and  C_13
REMARK   10  A    between atoms: C_15  and  C_17
REMARK   11  A    between atoms: C_17  and  N_18
REMARK   12  A    between atoms: C_19  and  C_21
REMARK   13  A    between atoms: C_21  and  O_22
REMARK   14  A    between atoms: O_22  and  C_23
REMARK   15  A    between atoms: C_37  and  C_38
REMARK                            x       y       z     vdW  Elec       q    Type
REMARK                         _______ _______ _______ _____ _____    ______ ____
ROOT
ATOM      1  N   UNL     1       1.739  -0.617   0.115  0.00  0.00    -0.304 N 
ATOM      2  C   UNL     1       2.079  -1.916   0.224  0.00  0.00    +0.251 C 
ATOM      3  O   UNL     1       1.256  -2.731   0.585  0.00  0.00    -0.272 OA
ATOM      4  H   UNL     1       2.398   0.034  -0.173  0.00  0.00    +0.149 HD
ENDROOT
BRANCH   1   5
ATOM      5  C   UNL     1       0.375  -0.188   0.433  0.00  0.00    +0.200 C 
BRANCH   5   7
ATOM      6  N   UNL     1      -0.918   1.921   0.460  0.00  0.00    -0.302 N 
ATOM      7  C   UNL     1       0.257   1.301   0.232  0.00  0.00    +0.231 C 
ATOM      8  O   UNL     1       1.218   1.941  -0.141  0.00  0.00    -0.274 OA
ATOM      9  H   UNL     1      -1.687   1.409   0.754  0.00  0.00    +0.150 HD
BRANCH   6  10
ATOM     10  C   UNL     1      -1.032   3.369   0.264  0.00  0.00    +0.162 C 
BRANCH  10  11
ATOM     11  C   UNL     1      -2.151   3.904   1.120  0.00  0.00    +0.234 C 
ATOM     12  O   UNL     1      -3.019   3.158   1.520  0.00  0.00    -0.274 OA
ATOM     13  N   UNL     1      -2.187   5.213   1.440  0.00  0.00    -0.311 N 
ATOM     14  H   UNL     1      -1.534   5.823   1.062  0.00  0.00    +0.149 HD
BRANCH  13  15
ATOM     15  C   UNL     1      -3.211   5.714   2.361  0.00  0.00    +0.067 C 
ATOM     16  C   UNL     1      -2.737   5.524   3.803  0.00  0.00    +0.027 C 
ATOM     17  C   UNL     1      -3.452   7.201   2.095  0.00  0.00    +0.027 C 
ENDBRANCH  13  15
ENDBRANCH  10  11
BRANCH  10  18
ATOM     18  C   UNL     1      -1.331   3.662  -1.208  0.00  0.00    +0.015 C 
ATOM     19  C   UNL     1      -2.562   2.867  -1.647  0.00  0.00    +0.010 C 
BRANCH  18  21
ATOM     20  C   UNL     1       1.058   4.163  -1.740  0.00  0.00    +0.004 C 
ATOM     21  C   UNL     1      -0.130   3.254  -2.063  0.00  0.00    +0.002 C 
ENDBRANCH  18  21
ENDBRANCH  10  18
ENDBRANCH   6  10
ENDBRANCH   5   7
ENDBRANCH   1   5
BRANCH   2  22
ATOM     22  C   UNL     1       3.483  -2.358  -0.103  0.00  0.00    +0.324 C 
BRANCH  22  23
ATOM     23  O   UNL     1       3.595  -3.770   0.088  0.00  0.00    -0.482 OA
BRANCH  23  24
ATOM     24  C   UNL     1       4.805  -4.332  -0.165  0.00  0.00    +0.128 A 
ATOM     25  C   UNL     1       5.861  -3.535  -0.595  0.00  0.00    +0.047 A 
ATOM     26  C   UNL     1       7.091  -4.099  -0.848  0.00  0.00    +0.016 A 
ATOM     27  C   UNL     1       7.275  -5.471  -0.683  0.00  0.00    +0.026 A 
ATOM     28  C   UNL     1       8.585  -6.093  -0.955  0.00  0.00    -0.000 A 
ATOM     29  C   UNL     1       9.679  -5.351  -1.382  0.00  0.00    +0.009 A 
ATOM     30  C   UNL     1      10.881  -5.985  -1.622  0.00  0.00    +0.001 A 
ATOM     31  C   UNL     1      11.005  -7.355  -1.441  0.00  0.00    +0.001 A 
ATOM     32  C   UNL     1       9.931  -8.109  -1.018  0.00  0.00    +0.015 A 
ATOM     33  C   UNL     1       8.709  -7.487  -0.770  0.00  0.00    +0.067 A 
ATOM     34  C   UNL     1       7.532  -8.242  -0.319  0.00  0.00    +0.345 A 
ATOM     35  O   UNL     1       7.612  -9.444  -0.152  0.00  0.00    -0.245 OA
ATOM     36  O   UNL     1       6.369  -7.612  -0.089  0.00  0.00    -0.421 OA
ATOM     37  C   UNL     1       6.211  -6.279  -0.255  0.00  0.00    +0.146 A 
ATOM     38  C   UNL     1       4.977  -5.696   0.001  0.00  0.00    +0.034 A 
ATOM     39  C   UNL     1       3.824  -6.549   0.462  0.00  0.00    +0.051 C 
ENDBRANCH  23  24
ENDBRANCH  22  23
ENDBRANCH   2  22
TORSDOF 10
