REMARK  Name = ZINC12364690
REMARK  7 active torsions:
REMARK  status: ('A' for Active; 'I' for Inactive)
REMARK    1  A    between atoms: C_1  and  C_2
REMARK    2  A    between atoms: C_2  and  C_4
REMARK    3  A    between atoms: C_9  and  N_10
REMARK    4  A    between atoms: C_11  and  C_13
REMARK    5  A    between atoms: C_13  and  C_15
REMARK    6  A    between atoms: N_22  and  C_30
REMARK    7  A    between atoms: C_23  and  C_24
REMARK                            x       y       z     vdW  Elec       q    Type
REMARK                         _______ _______ _______ _____ _____    ______ ____
ROOT
ATOM      1  C   UNL     1      -3.629   2.582   3.077  0.00  0.00    +0.250 C 
ATOM      2  O   UNL     1      -4.380   1.722   3.497  0.00  0.00    -0.282 OA
ENDROOT
BRANCH   1   3
ATOM      3  C   UNL     1      -2.355   2.224   2.576  0.00  0.00    +0.060 A 
ATOM      4  C   UNL     1      -1.080   2.222   3.317  0.00  0.00    +0.011 A 
ATOM      5  C   UNL     1      -0.729   2.539   4.627  0.00  0.00    +0.011 A 
ATOM      6  C   UNL     1       0.586   2.432   5.027  0.00  0.00    +0.001 A 
ATOM      7  C   UNL     1       1.557   2.012   4.130  0.00  0.00    +0.002 A 
ATOM      8  C   UNL     1       1.223   1.696   2.830  0.00  0.00    +0.026 A 
ATOM      9  C   UNL     1      -0.099   1.797   2.408  0.00  0.00    +0.050 A 
ATOM     10  N   UNL     1      -0.715   1.552   1.195  0.00  0.00    -0.342 N 
ATOM     11  C   UNL     1      -2.049   1.806   1.278  0.00  0.00    +0.061 A 
ATOM     12  C   UNL     1      -0.027   1.090  -0.013  0.00  0.00    +0.149 C 
BRANCH  11  13
ATOM     13  C   UNL     1      -3.018   1.661   0.176  0.00  0.00    -0.001 A 
ATOM     14  C   UNL     1      -2.712   2.152  -1.097  0.00  0.00    +0.010 A 
ATOM     15  C   UNL     1      -3.622   2.008  -2.124  0.00  0.00    +0.001 A 
ATOM     16  C   UNL     1      -4.838   1.389  -1.894  0.00  0.00    +0.000 A 
ATOM     17  C   UNL     1      -5.149   0.904  -0.635  0.00  0.00    +0.001 A 
ATOM     18  C   UNL     1      -4.248   1.036   0.400  0.00  0.00    +0.010 A 
ENDBRANCH  11  13
ENDBRANCH   1   3
BRANCH   1  20
ATOM     19  N   UNL     1      -5.220   4.363   3.658  0.00  0.00    -0.278 N 
ATOM     20  C   UNL     1      -4.050   4.010   3.090  0.00  0.00    +0.289 C 
ATOM     21  O   UNL     1      -3.339   4.857   2.588  0.00  0.00    -0.266 OA
ATOM     22  H   UNL     1      -5.749   3.701   4.130  0.00  0.00    +0.155 HD
BRANCH  19  28
ATOM     23  C   UNL     1      -6.550   6.189   4.538  0.00  0.00    +0.042 A 
ATOM     24  C   UNL     1      -6.992   7.517   4.442  0.00  0.00    +0.062 A 
ATOM     25  C   UNL     1      -6.571   8.308   3.395  0.00  0.00    +0.167 A 
ATOM     26  C   UNL     1      -5.699   7.793   2.430  0.00  0.00    +0.168 A 
ATOM     27  C   UNL     1      -5.253   6.484   2.521  0.00  0.00    +0.073 A 
ATOM     28  C   UNL     1      -5.668   5.677   3.569  0.00  0.00    +0.048 A 
ATOM     29  O   UNL     1      -5.441   8.768   1.513  0.00  0.00    -0.453 OA
ATOM     30  C   UNL     1      -5.830  10.003   2.143  0.00  0.00    +0.466 C 
ATOM     31  O   UNL     1      -6.854   9.606   3.075  0.00  0.00    -0.453 OA
BRANCH  23  33
ATOM     32  C   UNL     1      -8.034   5.855   6.614  0.00  0.00    +0.091 C 
ATOM     33  C   UNL     1      -7.000   5.343   5.645  0.00  0.00    +0.162 C 
ATOM     34  O   UNL     1      -6.540   4.228   5.782  0.00  0.00    -0.292 OA
ENDBRANCH  23  33
ENDBRANCH  19  28
ENDBRANCH   1  20
TORSDOF 5
