REMARK  Name = ZINC03376445
REMARK  12 active torsions:
REMARK  status: ('A' for Active; 'I' for Inactive)
REMARK    1  A    between atoms: C_1  and  C_2
REMARK    2  A    between atoms: C_2  and  C_4
REMARK    3  A    between atoms: C_2  and  N_54
REMARK    4  A    between atoms: C_7  and  S_16
REMARK    5  A    between atoms: N_8  and  C_9
REMARK    6  A    between atoms: S_16  and  C_17
REMARK    7  A    between atoms: C_17  and  C_19
REMARK    8  A    between atoms: C_17  and  C_20
REMARK    9  A    between atoms: N_22  and  C_23
REMARK   10  A    between atoms: C_28  and  C_29
REMARK   11  A    between atoms: C_31  and  N_54
REMARK   12  A    between atoms: C_32  and  N_54
REMARK                            x       y       z     vdW  Elec       q    Type
REMARK                         _______ _______ _______ _____ _____    ______ ____
ROOT
ATOM      1  C   UNL     1      -1.461   3.519   2.483  0.00  0.00    +0.125 A 
ATOM      2  N   UNL     1      -2.573   3.029   2.954  0.00  0.00    -0.135 NA
ATOM      3  N   UNL     1      -2.897   3.631   4.042  0.00  0.00    -0.122 NA
ATOM      4  C   UNL     1      -2.002   4.548   4.329  0.00  0.00    +0.197 A 
ATOM      5  N   UNL     1      -1.053   4.503   3.345  0.00  0.00    -0.275 N 
ENDROOT
BRANCH   5   6
ATOM      6  C   UNL     1       0.097   5.299   3.239  0.00  0.00    +0.050 A 
ATOM      7  C   UNL     1       1.355   4.720   3.336  0.00  0.00    +0.028 A 
ATOM      8  C   UNL     1       2.486   5.505   3.226  0.00  0.00    +0.022 A 
ATOM      9  C   UNL     1       2.365   6.870   3.031  0.00  0.00    +0.041 A 
ATOM     10  C   UNL     1       1.113   7.450   2.939  0.00  0.00    +0.022 A 
ATOM     11  C   UNL     1      -0.021   6.668   3.043  0.00  0.00    +0.028 A 
ATOM     12 CL   UNL     1       3.789   7.855   2.900  0.00  0.00    -0.084 Cl
ENDBRANCH   5   6
BRANCH   1  14
ATOM     13  C   UNL     1      -1.503   3.615   0.006  0.00  0.00    -0.005 C 
ATOM     14  C   UNL     1      -0.753   3.081   1.228  0.00  0.00    -0.003 C 
BRANCH  14  17
ATOM     15  C   UNL     1      -0.027   1.149  -0.038  0.00  0.00    -0.096 C 
ATOM     16  C   UNL     1      -0.081   1.060   2.381  0.00  0.00    -0.096 C 
ATOM     17  N   UNL     1      -0.740   1.604   1.174  0.00  0.00    +0.382 N 
ATOM     18  H   UNL     1      -1.707   1.263   1.140  0.00  0.00    -0.082 HD
ENDBRANCH  14  17
ENDBRANCH   1  14
BRANCH   4  19
ATOM     19  S   UNL     1      -2.017   5.628   5.721  0.00  0.00    -0.073 S 
BRANCH  19  20
ATOM     20  C   UNL     1      -3.543   5.080   6.527  0.00  0.00    +0.137 C 
ATOM     21  C   UNL     1      -3.379   3.635   7.002  0.00  0.00    +0.029 C 
BRANCH  20  22
ATOM     22  C   UNL     1      -3.833   5.968   7.710  0.00  0.00    +0.230 C 
ATOM     23  O   UNL     1      -2.943   6.627   8.206  0.00  0.00    -0.274 OA
ATOM     24  N   UNL     1      -5.080   6.028   8.218  0.00  0.00    -0.284 N 
ATOM     25  H   UNL     1      -5.804   5.552   7.783  0.00  0.00    +0.155 HD
BRANCH  24  26
ATOM     26  C   UNL     1      -5.328   6.775   9.368  0.00  0.00    +0.051 A 
ATOM     27  C   UNL     1      -4.630   7.952   9.600  0.00  0.00    +0.024 A 
ATOM     28  C   UNL     1      -4.881   8.693  10.738  0.00  0.00    +0.002 A 
ATOM     29  C   UNL     1      -5.822   8.264  11.661  0.00  0.00    +0.001 A 
ATOM     30  C   UNL     1      -6.520   7.095  11.450  0.00  0.00    +0.021 A 
ATOM     31  C   UNL     1      -6.281   6.338  10.301  0.00  0.00    +0.073 A 
BRANCH  31  32
ATOM     32  C   UNL     1      -7.003   5.122  10.076  0.00  0.00    +0.101 C 
ATOM     33  N   UNL     1      -7.576   4.157   9.898  0.00  0.00    -0.191 NA
ENDBRANCH  31  32
ENDBRANCH  24  26
ENDBRANCH  20  22
ENDBRANCH  19  20
ENDBRANCH   4  19
TORSDOF 8
