REMARK  Name = ZINC00194780
REMARK  8 active torsions:
REMARK  status: ('A' for Active; 'I' for Inactive)
REMARK    1  A    between atoms: C_1  and  C_2
REMARK    2  A    between atoms: C_2  and  C_3
REMARK    3  A    between atoms: C_3  and  C_4
REMARK    4  A    between atoms: C_11  and  N_26
REMARK    5  A    between atoms: C_12  and  C_24
REMARK    6  A    between atoms: C_13  and  C_15
REMARK    7  A    between atoms: C_15  and  C_23
REMARK    8  A    between atoms: C_16  and  C_17
REMARK                            x       y       z     vdW  Elec       q    Type
REMARK                         _______ _______ _______ _____ _____    ______ ____
ROOT
ATOM      1  C   UNL     1      -2.032  -2.115  -0.239  0.00  0.00    +0.071 A 
ATOM      2  C   UNL     1      -1.643  -2.959  -1.271  0.00  0.00    +0.049 A 
ATOM      3  C   UNL     1      -1.519  -4.222  -0.761  0.00  0.00    +0.222 A 
ATOM      4  N   UNL     1      -1.820  -4.163   0.546  0.00  0.00    -0.246 N 
ATOM      5  H   UNL     1      -1.817  -4.908   1.167  0.00  0.00    +0.192 HD
ATOM      6  N   UNL     1      -2.135  -2.831   0.856  0.00  0.00    -0.176 NA
ATOM      7  O   UNL     1      -1.153  -5.285  -1.520  0.00  0.00    -0.423 OA
ATOM      8  C   UNL     1      -1.174  -5.133  -2.859  0.00  0.00    +0.200 C 
ATOM      9  C   UNL     1      -1.280  -3.937  -3.479  0.00  0.00    +0.098 C 
ATOM     10  C   UNL     1      -1.379  -2.638  -2.719  0.00  0.00    +0.097 C 
ENDROOT
BRANCH  10  11
ATOM     11  C   UNL     1      -0.086  -1.874  -2.843  0.00  0.00    -0.059 C 
ATOM     12  C   UNL     1      -0.084  -0.656  -3.367  0.00  0.00    +0.008 C 
ATOM     13  C   UNL     1       1.204  -2.494  -2.372  0.00  0.00    +0.040 C 
BRANCH  12  14
ATOM     14  C   UNL     1       1.198   0.029  -3.640  0.00  0.00    -0.025 A 
ATOM     15  C   UNL     1       2.271  -0.682  -4.178  0.00  0.00    +0.008 A 
ATOM     16  C   UNL     1       3.464  -0.037  -4.430  0.00  0.00    +0.001 A 
ATOM     17  C   UNL     1       3.598   1.311  -4.149  0.00  0.00    +0.000 A 
ATOM     18  C   UNL     1       2.538   2.021  -3.614  0.00  0.00    +0.001 A 
ATOM     19  C   UNL     1       1.337   1.389  -3.364  0.00  0.00    +0.008 A 
ENDBRANCH  12  14
ENDBRANCH  10  11
BRANCH   8  20
ATOM     20  N   UNL     1      -1.083  -6.259  -3.639  0.00  0.00    -0.328 N 
ATOM     21  H   UNL     1      -1.007  -7.132  -3.223  0.00  0.00    +0.145 HD
ATOM     22  H   UNL     1      -1.096  -6.182  -4.606  0.00  0.00    +0.145 HD
ENDBRANCH   8  20
BRANCH   9  23
ATOM     23  C   UNL     1      -1.296  -3.901  -4.911  0.00  0.00    +0.101 C 
ATOM     24  N   UNL     1      -1.310  -3.873  -6.046  0.00  0.00    -0.191 NA
ENDBRANCH   9  23
BRANCH   1  25
ATOM     25  C   UNL     1      -2.285  -0.634  -0.356  0.00  0.00    +0.057 C 
BRANCH  25  27
ATOM     26  C   UNL     1      -1.242   1.631  -0.212  0.00  0.00    +0.004 C 
ATOM     27  C   UNL     1      -0.985   0.128  -0.094  0.00  0.00    +0.003 C 
ENDBRANCH  25  27
ENDBRANCH   1  25
TORSDOF 6
