REMARK  Name = ZINC16976468
REMARK  7 active torsions:
REMARK  status: ('A' for Active; 'I' for Inactive)
REMARK    1  A    between atoms: C_1  and  O_2
REMARK    2  A    between atoms: O_2  and  C_3
REMARK    3  A    between atoms: C_5  and  C_10
REMARK    4  A    between atoms: C_8  and  O_9
REMARK    5  A    between atoms: C_21  and  S_23
REMARK    6  A    between atoms: S_23  and  C_24
REMARK    7  A    between atoms: C_24  and  C_25
REMARK                            x       y       z     vdW  Elec       q    Type
REMARK                         _______ _______ _______ _____ _____    ______ ____
ROOT
ATOM      1  C   UNL     1       2.403   0.379  -4.230  0.00  0.00    +0.066 C 
ATOM      2  C   UNL     1       1.725   0.055  -5.563  0.00  0.00    +0.109 C 
ATOM      3  C   UNL     1       2.155  -1.308  -6.035  0.00  0.00    +0.219 C 
ATOM      4  O   UNL     1       1.366  -2.011  -6.630  0.00  0.00    -0.275 OA
ATOM      5  N   UNL     1       3.402  -1.757  -5.805  0.00  0.00    -0.270 N 
ATOM      6  C   UNL     1       4.314  -0.981  -5.110  0.00  0.00    +0.137 A 
ATOM      7  C   UNL     1       3.873   0.073  -4.328  0.00  0.00    +0.065 A 
ATOM      8  C   UNL     1       4.809   0.845  -3.634  0.00  0.00    +0.258 A 
ATOM      9  O   UNL     1       4.450   1.780  -2.936  0.00  0.00    -0.267 OA
ATOM     10  N   UNL     1       6.118   0.534  -3.751  0.00  0.00    -0.302 N 
ATOM     11  C   UNL     1       6.503  -0.512  -4.533  0.00  0.00    +0.171 A 
ATOM     12  N   UNL     1       5.623  -1.242  -5.189  0.00  0.00    -0.208 NA
ATOM     13  H   UNL     1       6.784   1.057  -3.278  0.00  0.00    +0.171 HD
ATOM     14  H   UNL     1       3.664  -2.633  -6.128  0.00  0.00    +0.156 HD
ENDROOT
BRANCH   1  17
ATOM     15  C   UNL     1       0.606  -0.608  -1.056  0.00  0.00    +0.162 A 
ATOM     16  C   UNL     1       1.173   0.159  -2.062  0.00  0.00    +0.053 A 
ATOM     17  C   UNL     1       1.787  -0.456  -3.137  0.00  0.00    -0.036 A 
ATOM     18  C   UNL     1       1.837  -1.836  -3.212  0.00  0.00    +0.008 A 
ATOM     19  C   UNL     1       1.273  -2.606  -2.212  0.00  0.00    +0.049 A 
ATOM     20  C   UNL     1       0.662  -1.996  -1.129  0.00  0.00    +0.158 A 
BRANCH  15  22
ATOM     21  C   UNL     1      -0.017   1.425   0.010  0.00  0.00    +0.277 C 
ATOM     22  O   UNL     1       0.002  -0.004   0.002  0.00  0.00    -0.491 OA
ENDBRANCH  15  22
BRANCH  20  23
ATOM     23  O   UNL     1       0.112  -2.753  -0.142  0.00  0.00    -0.503 OA
ATOM     24  H   UNL     1      -0.816  -2.979  -0.291  0.00  0.00    +0.292 HD
ENDBRANCH  20  23
ENDBRANCH   1  17
BRANCH  11  25
ATOM     25  S   UNL     1       8.217  -0.898  -4.672  0.00  0.00    -0.083 S 
BRANCH  25  26
ATOM     26  C   UNL     1       8.255  -2.328  -5.788  0.00  0.00    +0.112 C 
BRANCH  26  27
ATOM     27  C   UNL     1       9.683  -2.766  -5.994  0.00  0.00    -0.037 A 
ATOM     28  C   UNL     1      10.428  -2.226  -7.026  0.00  0.00    +0.006 A 
ATOM     29  C   UNL     1      11.737  -2.627  -7.216  0.00  0.00    +0.020 A 
ATOM     30  C   UNL     1      12.301  -3.569  -6.373  0.00  0.00    +0.041 A 
ATOM     31  C   UNL     1      11.555  -4.108  -5.341  0.00  0.00    +0.020 A 
ATOM     32  C   UNL     1      10.247  -3.702  -5.149  0.00  0.00    +0.006 A 
ATOM     33 CL   UNL     1      13.945  -4.073  -6.611  0.00  0.00    -0.084 Cl
ENDBRANCH  26  27
ENDBRANCH  25  26
ENDBRANCH  11  25
TORSDOF 6
