REMARK  Name = ZINC11855979
REMARK  4 active torsions:
REMARK  status: ('A' for Active; 'I' for Inactive)
REMARK    1  A    between atoms: C_3  and  C_6
REMARK    2  A    between atoms: C_8  and  N_23
REMARK    3  A    between atoms: C_24  and  C_26
REMARK    4  A    between atoms: C_26  and  C_27
REMARK                            x       y       z     vdW  Elec       q    Type
REMARK                         _______ _______ _______ _____ _____    ______ ____
ROOT
ATOM      1  C   UNL     1      -3.403   2.374   0.031  0.00  0.00    +0.102 A 
ATOM      2  C   UNL     1      -2.736   3.618   0.035  0.00  0.00    +0.074 A 
ATOM      3  C   UNL     1      -1.402   3.374   0.027  0.00  0.00    +0.132 A 
ATOM      4  N   UNL     1      -1.228   2.019   0.019  0.00  0.00    -0.185 N 
ATOM      5  N   UNL     1      -2.494   1.420   0.015  0.00  0.00    -0.162 NA
ATOM      6  C   UNL     1      -0.016   1.355   0.009  0.00  0.00    +0.234 A 
ATOM      7  N   UNL     1       0.002  -0.004   0.002  0.00  0.00    -0.291 N 
ATOM      8  H   UNL     1      -0.829  -0.504   0.004  0.00  0.00    +0.172 HD
ATOM      9  C   UNL     1       1.184  -0.652  -0.008  0.00  0.00    +0.256 A 
ATOM     10  O   UNL     1       1.222  -1.871  -0.017  0.00  0.00    -0.267 OA
ATOM     11  C   UNL     1       2.380   0.101  -0.008  0.00  0.00    +0.038 A 
ATOM     12  C   UNL     1       2.300   1.456  -0.009  0.00  0.00    +0.053 A 
ATOM     13  N   UNL     1       1.099   2.048   0.003  0.00  0.00    -0.217 NA
ATOM     14  C   UNL     1       3.518   2.341  -0.032  0.00  0.00    +0.056 C 
ATOM     15  C   UNL     1       4.759   1.559   0.397  0.00  0.00    +0.006 C 
ATOM     16  C   UNL     1       4.830   0.272  -0.433  0.00  0.00    +0.005 C 
ATOM     17  C   UNL     1       3.687  -0.644   0.001  0.00  0.00    +0.042 C 
ENDROOT
BRANCH   1  20
ATOM     18  C   UNL     1      -6.956   1.070   0.040  0.00  0.00    +0.008 A 
ATOM     19  C   UNL     1      -5.580   1.007   0.033  0.00  0.00    +0.018 A 
ATOM     20  C   UNL     1      -4.868   2.176   0.036  0.00  0.00    +0.039 A 
ATOM     21  S   UNL     1      -6.168   3.399   0.056  0.00  0.00    -0.095 S 
ATOM     22  C   UNL     1      -7.563   2.284   0.049  0.00  0.00    +0.046 A 
ENDBRANCH   1  20
BRANCH   3  23
ATOM     23  N   UNL     1      -0.391   4.332   0.027  0.00  0.00    -0.270 N 
ATOM     24  C   UNL     1      -0.705   5.643   0.036  0.00  0.00    +0.223 C 
ATOM     25  O   UNL     1      -1.867   5.988   0.043  0.00  0.00    -0.275 OA
ATOM     26  H   UNL     1       0.539   4.056   0.021  0.00  0.00    +0.156 HD
BRANCH  24  27
ATOM     27  C   UNL     1       0.389   6.680   0.036  0.00  0.00    +0.131 C 
BRANCH  27  28
ATOM     28  C   UNL     1      -0.224   8.056   0.047  0.00  0.00    -0.039 A 
ATOM     29  C   UNL     1      -0.505   8.696  -1.146  0.00  0.00    +0.005 A 
ATOM     30  C   UNL     1      -1.073   9.957  -1.137  0.00  0.00    +0.020 A 
ATOM     31  C   UNL     1      -1.348  10.582   0.066  0.00  0.00    +0.041 A 
ATOM     32  C   UNL     1      -1.061   9.944   1.259  0.00  0.00    +0.020 A 
ATOM     33  C   UNL     1      -0.499   8.681   1.249  0.00  0.00    +0.005 A 
ATOM     34 CL   UNL     1      -2.055  12.168   0.078  0.00  0.00    -0.084 Cl
ENDBRANCH  27  28
ENDBRANCH  24  27
ENDBRANCH   3  23
TORSDOF 4
