REMARK  Name = ZINC36828167
REMARK  6 active torsions:
REMARK  status: ('A' for Active; 'I' for Inactive)
REMARK    1  A    between atoms: C_1  and  C_2
REMARK    2  A    between atoms: C_8  and  N_10
REMARK    3  A    between atoms: C_14  and  C_16
REMARK    4  A    between atoms: C_16  and  S_17
REMARK    5  A    between atoms: S_17  and  C_18
REMARK    6  A    between atoms: C_24  and  C_28
REMARK                            x       y       z     vdW  Elec       q    Type
REMARK                         _______ _______ _______ _____ _____    ______ ____
ROOT
ATOM      1  C   UNL     1       6.152   1.247   3.525  0.00  0.00    +0.173 C 
ENDROOT
BRANCH   1   6
ATOM      2  N   UNL     1       2.116  -0.004   1.231  0.00  0.00    -0.296 N 
ATOM      3  C   UNL     1       2.795   0.128   2.388  0.00  0.00    +0.306 C 
ATOM      4  O   UNL     1       2.267  -0.174   3.440  0.00  0.00    -0.252 OA
ATOM      5  N   UNL     1       4.059   0.594   2.379  0.00  0.00    -0.239 N 
ATOM      6  C   UNL     1       4.738   0.726   3.536  0.00  0.00    +0.231 C 
ATOM      7  O   UNL     1       4.211   0.424   4.585  0.00  0.00    -0.274 OA
ATOM      8  H   UNL     1       2.538   0.237   0.392  0.00  0.00    +0.151 HD
ATOM      9  H   UNL     1       4.481   0.835   1.539  0.00  0.00    +0.159 HD
BRANCH   2  16
ATOM     10  C   UNL     1      -0.019   1.526   0.010  0.00  0.00    +0.009 C 
ATOM     11  C   UNL     1       0.002  -0.004   0.002  0.00  0.00    +0.006 C 
ATOM     12  C   UNL     1       0.718  -0.497  -1.257  0.00  0.00    +0.005 C 
ATOM     13  C   UNL     1       0.739  -2.027  -1.265  0.00  0.00    +0.000 C 
ATOM     14  C   UNL     1       1.479  -2.534  -0.026  0.00  0.00    +0.002 C 
ATOM     15  C   UNL     1       0.763  -2.041   1.233  0.00  0.00    +0.022 C 
ATOM     16  C   UNL     1       0.742  -0.511   1.242  0.00  0.00    +0.077 C 
ENDBRANCH   2  16
ENDBRANCH   1   6
BRANCH   1  17
ATOM     17  S   UNL     1       6.787   1.308   5.223  0.00  0.00    -0.076 S 
BRANCH  17  18
ATOM     18  C   UNL     1       8.426   1.929   5.043  0.00  0.00    +0.196 A 
ATOM     19  N   UNL     1       9.011   2.267   3.916  0.00  0.00    -0.122 NA
ATOM     20  N   UNL     1      10.208   2.682   4.142  0.00  0.00    -0.127 NA
ATOM     21  C   UNL     1      10.458   2.635   5.438  0.00  0.00    +0.180 A 
ATOM     22  N   UNL     1       9.319   2.156   6.048  0.00  0.00    -0.276 N 
ATOM     23  C   UNL     1       9.275   2.000   7.407  0.00  0.00    +0.107 A 
ATOM     24  C   UNL     1      10.342   2.316   8.166  0.00  0.00    +0.073 A 
ATOM     25  C   UNL     1      11.519   2.811   7.572  0.00  0.00    +0.037 A 
ATOM     26  C   UNL     1      11.583   2.964   6.222  0.00  0.00    +0.086 A 
ATOM     27 CL   UNL     1      13.026   3.575   5.475  0.00  0.00    -0.080 Cl
BRANCH  24  28
ATOM     28  C   UNL     1      10.276   2.139   9.661  0.00  0.00    +0.419 C 
ATOM     29  F   UNL     1      10.816   0.896  10.008  0.00  0.00    -0.166 F 
ATOM     30  F   UNL     1      11.008   3.156  10.284  0.00  0.00    -0.166 F 
ATOM     31  F   UNL     1       8.943   2.202  10.079  0.00  0.00    -0.166 F 
ENDBRANCH  24  28
ENDBRANCH  17  18
ENDBRANCH   1  17
TORSDOF 5
