REMARK  Name = ZINC39662372
REMARK  8 active torsions:
REMARK  status: ('A' for Active; 'I' for Inactive)
REMARK    1  A    between atoms: C_1  and  C_2
REMARK    2  A    between atoms: C_2  and  C_4
REMARK    3  A    between atoms: C_2  and  O_30
REMARK    4  A    between atoms: C_8  and  C_17
REMARK    5  A    between atoms: N_19  and  C_20
REMARK    6  A    between atoms: C_20  and  C_22
REMARK    7  A    between atoms: C_20  and  C_24
REMARK    8  A    between atoms: O_30  and  C_31
REMARK                            x       y       z     vdW  Elec       q    Type
REMARK                         _______ _______ _______ _____ _____    ______ ____
ROOT
ATOM      1  C   UNL     1      -1.288  -0.673   0.069  0.00  0.00    +0.256 C 
ATOM      2  O   UNL     1      -1.581  -1.109  -1.025  0.00  0.00    -0.272 OA
ATOM      3  N   UNL     1      -2.217  -0.623   1.044  0.00  0.00    -0.297 N 
ATOM      4  C   UNL     1      -2.032  -0.203   2.453  0.00  0.00    +0.121 C 
ATOM      5  C   UNL     1      -3.308   0.601   2.791  0.00  0.00    +0.100 C 
ATOM      6  C   UNL     1      -4.368   0.088   1.803  0.00  0.00    -0.004 C 
ATOM      7  C   UNL     1      -3.655  -0.971   0.949  0.00  0.00    +0.115 C 
ATOM      8  C   UNL     1      -5.535  -0.541   2.559  0.00  0.00    -0.010 C 
ATOM      9  C   UNL     1      -6.602  -0.992   1.559  0.00  0.00    -0.082 C 
ATOM     10  N   UNL     1      -7.064   0.164   0.779  0.00  0.00    +0.379 N 
ATOM     11  C   UNL     1      -5.956   0.705  -0.017  0.00  0.00    -0.082 C 
ATOM     12  C   UNL     1      -4.861   1.228   0.917  0.00  0.00    -0.010 C 
ATOM     13  H   UNL     1      -7.810  -0.124   0.164  0.00  0.00    -0.086 HD
ATOM     14  H   UNL     1      -7.405   0.876   1.407  0.00  0.00    -0.086 HD
ENDROOT
BRANCH   5  15
ATOM     15  C   UNL     1      -3.068   2.075   2.588  0.00  0.00    +0.219 C 
ATOM     16  O   UNL     1      -2.403   2.458   1.648  0.00  0.00    -0.275 OA
ATOM     17  N   UNL     1      -3.592   2.969   3.450  0.00  0.00    -0.296 N 
ATOM     18  H   UNL     1      -4.124   2.663   4.202  0.00  0.00    +0.150 HD
BRANCH  17  19
ATOM     19  C   UNL     1      -3.360   4.401   3.252  0.00  0.00    +0.207 C 
BRANCH  19  20
ATOM     20  C   UNL     1      -3.481   5.117   4.573  0.00  0.00    -0.013 A 
ATOM     21  C   UNL     1      -4.466   4.749   5.471  0.00  0.00    +0.006 A 
ATOM     22  C   UNL     1      -4.577   5.405   6.682  0.00  0.00    +0.000 A 
ATOM     23  C   UNL     1      -3.703   6.429   6.997  0.00  0.00    +0.000 A 
ATOM     24  C   UNL     1      -2.718   6.797   6.099  0.00  0.00    +0.000 A 
ATOM     25  C   UNL     1      -2.604   6.138   4.889  0.00  0.00    +0.006 A 
ENDBRANCH  19  20
BRANCH  19  26
ATOM     26  C   UNL     1      -4.358   4.936   2.312  0.00  0.00    +0.090 C 
ATOM     27  N   UNL     1      -5.128   5.348   1.585  0.00  0.00    -0.194 NA
ENDBRANCH  19  26
ENDBRANCH  17  19
ENDBRANCH   5  15
BRANCH   1  29
ATOM     28  C   UNL     1       0.104   1.333   0.499  0.00  0.00    +0.062 C 
ATOM     29  C   UNL     1       0.113  -0.188   0.337  0.00  0.00    +0.256 C 
BRANCH  29  30
ATOM     30  O   UNL     1       0.958  -0.545  -0.759  0.00  0.00    -0.480 OA
BRANCH  30  31
ATOM     31  C   UNL     1       2.285  -0.675  -0.498  0.00  0.00    +0.122 A 
ATOM     32  C   UNL     1       2.780  -0.359   0.759  0.00  0.00    +0.045 A 
ATOM     33  C   UNL     1       4.130  -0.493   1.023  0.00  0.00    +0.004 A 
ATOM     34  C   UNL     1       4.987  -0.941   0.035  0.00  0.00    +0.000 A 
ATOM     35  C   UNL     1       4.497  -1.256  -1.219  0.00  0.00    +0.004 A 
ATOM     36  C   UNL     1       3.147  -1.130  -1.485  0.00  0.00    +0.045 A 
ENDBRANCH  30  31
ENDBRANCH  29  30
ENDBRANCH   1  29
TORSDOF 7
