REMARK  Name = ZINC61407201
REMARK  7 active torsions:
REMARK  status: ('A' for Active; 'I' for Inactive)
REMARK    1  A    between atoms: C_1  and  C_2
REMARK    2  A    between atoms: C_2  and  C_3
REMARK    3  A    between atoms: C_3  and  C_4
REMARK    4  A    between atoms: C_8  and  C_23
REMARK    5  A    between atoms: C_10  and  S_13
REMARK    6  A    between atoms: S_13  and  C_14
REMARK    7  A    between atoms: C_23  and  N_24
REMARK                            x       y       z     vdW  Elec       q    Type
REMARK                         _______ _______ _______ _____ _____    ______ ____
ROOT
ATOM      1  C   UNL     1       0.739  -2.027  -1.265  0.00  0.00    -0.010 C 
ATOM      2  C   UNL     1      -0.692  -2.556  -1.380  0.00  0.00    +0.004 C 
ATOM      3  C   UNL     1      -1.321  -2.047  -2.679  0.00  0.00    +0.003 C 
ATOM      4  C   UNL     1      -0.498  -2.540  -3.871  0.00  0.00    -0.015 C 
ATOM      5  C   UNL     1       0.933  -2.011  -3.756  0.00  0.00    +0.056 C 
ATOM      6  C   UNL     1       1.562  -2.520  -2.457  0.00  0.00    +0.018 C 
ENDROOT
BRANCH   1   7
ATOM      7  C   UNL     1       0.718  -0.497  -1.257  0.00  0.00    +0.003 C 
BRANCH   7   9
ATOM      8  C   UNL     1      -0.019   1.526   0.010  0.00  0.00    +0.004 C 
ATOM      9  C   UNL     1       0.002  -0.004   0.002  0.00  0.00    -0.003 C 
ENDBRANCH   7   9
ENDBRANCH   1   7
BRANCH   5  10
ATOM     10  S   UNL     1       1.909  -2.595  -5.170  0.00  0.00    -0.082 S 
BRANCH  10  11
ATOM     11  C   UNL     1       3.465  -1.792  -4.974  0.00  0.00    +0.196 A 
ATOM     12  N   UNL     1       3.801  -0.971  -4.005  0.00  0.00    -0.122 NA
ATOM     13  N   UNL     1       5.011  -0.565  -4.163  0.00  0.00    -0.129 NA
ATOM     14  C   UNL     1       5.524  -1.108  -5.252  0.00  0.00    +0.162 A 
ATOM     15  N   UNL     1       4.546  -1.913  -5.796  0.00  0.00    -0.278 N 
ATOM     16  C   UNL     1       4.789  -2.619  -6.942  0.00  0.00    +0.095 A 
ATOM     17  C   UNL     1       5.988  -2.540  -7.552  0.00  0.00    +0.018 A 
ATOM     18  C   UNL     1       7.007  -1.728  -7.019  0.00  0.00    +0.005 A 
ATOM     19  C   UNL     1       6.780  -1.014  -5.885  0.00  0.00    +0.049 A 
ENDBRANCH  10  11
ENDBRANCH   5  10
BRANCH   4  20
ATOM     20  C   UNL     1      -1.127  -2.031  -5.170  0.00  0.00    -0.082 C 
BRANCH  20  21
ATOM     21  N   UNL     1      -2.456  -2.634  -5.339  0.00  0.00    +0.378 N 
ATOM     22  H   UNL     1      -3.043  -2.379  -4.559  0.00  0.00    -0.090 HD
ATOM     23  H   UNL     1      -2.871  -2.299  -6.196  0.00  0.00    -0.090 HD
ATOM     24  H   UNL     1      -2.367  -3.638  -5.379  0.00  0.00    -0.090 HD
ENDBRANCH  20  21
ENDBRANCH   4  20
TORSDOF 6
