REMARK  Name = ZINC20678719
REMARK  11 active torsions:
REMARK  status: ('A' for Active; 'I' for Inactive)
REMARK    1  A    between atoms: C_1  and  C_2
REMARK    2  A    between atoms: C_2  and  C_3
REMARK    3  A    between atoms: C_3  and  N_4
REMARK    4  A    between atoms: C_5  and  C_7
REMARK    5  A    between atoms: C_10  and  N_25
REMARK    6  A    between atoms: C_11  and  N_13
REMARK    7  A    between atoms: N_13  and  C_14
REMARK    8  A    between atoms: C_14  and  N_16
REMARK    9  A    between atoms: N_16  and  C_17
REMARK   10  A    between atoms: C_20  and  C_23
REMARK   11  A    between atoms: C_23  and  C_24
REMARK                            x       y       z     vdW  Elec       q    Type
REMARK                         _______ _______ _______ _____ _____    ______ ____
ROOT
ATOM      1  C   UNL     1      -2.722   0.425   0.709  0.00  0.00    +0.039 A 
ATOM      2  C   UNL     1      -2.889  -0.922   1.041  0.00  0.00    +0.015 A 
ATOM      3  C   UNL     1      -4.153  -1.466   1.097  0.00  0.00    +0.026 A 
ATOM      4  C   UNL     1      -5.266  -0.678   0.825  0.00  0.00    +0.051 A 
ATOM      5  C   UNL     1      -5.105   0.669   0.493  0.00  0.00    +0.055 A 
ATOM      6  C   UNL     1      -3.839   1.221   0.440  0.00  0.00    +0.038 A 
ENDROOT
BRANCH   4   7
ATOM      7  N   UNL     1      -6.542  -1.233   0.884  0.00  0.00    -0.328 N 
ATOM      8  C   UNL     1      -6.476  -2.692   1.005  0.00  0.00    +0.110 C 
ATOM      9  C   UNL     1      -7.867  -3.306   1.012  0.00  0.00    +0.027 C 
ATOM     10  C   UNL     1      -8.731  -2.687   2.115  0.00  0.00    +0.018 C 
ATOM     11  C   UNL     1      -8.763  -1.172   1.879  0.00  0.00    +0.053 C 
ATOM     12  C   UNL     1      -7.322  -0.644   1.984  0.00  0.00    +0.114 C 
ATOM     13  C   UNL     1      -9.244  -0.898   0.472  0.00  0.00    +0.027 A 
ATOM     14  C   UNL     1      -9.858   0.293   0.242  0.00  0.00    +0.022 A 
ATOM     15  C   UNL     1     -10.275   0.642  -1.046  0.00  0.00    +0.007 A 
ATOM     16  C   UNL     1     -10.037  -0.224  -2.073  0.00  0.00    +0.070 A 
ATOM     17  C   UNL     1      -9.404  -1.445  -1.802  0.00  0.00    +0.251 A 
ATOM     18  O   UNL     1      -9.145  -2.206  -2.720  0.00  0.00    -0.268 OA
ATOM     19  N   UNL     1      -9.076  -1.790  -0.532  0.00  0.00    -0.312 N 
ATOM     20  C   UNL     1      -8.566  -3.146  -0.327  0.00  0.00    +0.130 C 
ENDBRANCH   4   7
BRANCH   1  22
ATOM     21  N   UNL     1      -0.292   0.241   0.913  0.00  0.00    -0.311 N 
ATOM     22  C   UNL     1      -1.368   1.008   0.648  0.00  0.00    +0.244 C 
ATOM     23  O   UNL     1      -1.223   2.180   0.359  0.00  0.00    -0.270 OA
ATOM     24  H   UNL     1      -0.423  -0.818   1.179  0.00  0.00    +0.149 HD
BRANCH  21  25
ATOM     25  C   UNL     1       1.053   0.818   0.847  0.00  0.00    +0.104 C 
BRANCH  25  27
ATOM     26  C   UNL     1       3.492   0.345   1.114  0.00  0.00    +0.005 C 
ATOM     27  C   UNL     1       2.087  -0.258   1.183  0.00  0.00    +0.015 C 
ENDBRANCH  25  27
ENDBRANCH  21  25
ENDBRANCH   1  22
BRANCH   5  28
ATOM     28  N   UNL     1      -6.228   1.463   0.218  0.00  0.00    -0.295 N 
ATOM     29  H   UNL     1      -7.048   1.062  -0.395  0.00  0.00    +0.154 HD
BRANCH  28  30
ATOM     30  C   UNL     1      -6.302   2.717   0.706  0.00  0.00    +0.139 C 
ATOM     31  S   UNL     1      -4.970   3.389   1.546  0.00  0.00    -0.018 S 
BRANCH  30  32
ATOM     32  N   UNL     1      -7.424   3.442   0.532  0.00  0.00    -0.297 N 
ATOM     33  H   UNL     1      -8.245   3.046  -0.084  0.00  0.00    +0.154 HD
BRANCH  32  34
ATOM     34  C   UNL     1      -7.545   4.699   1.135  0.00  0.00    +0.033 A 
ATOM     35  C   UNL     1      -7.109   4.890   2.439  0.00  0.00    +0.023 A 
ATOM     36  C   UNL     1      -7.225   6.133   3.030  0.00  0.00    +0.005 A 
ATOM     37  C   UNL     1      -7.785   7.184   2.327  0.00  0.00    -0.048 A 
ATOM     38  C   UNL     1      -8.226   6.996   1.030  0.00  0.00    +0.005 A 
ATOM     39  C   UNL     1      -8.108   5.756   0.432  0.00  0.00    +0.023 A 
BRANCH  37  40
ATOM     40  C   UNL     1      -7.917   8.537   2.977  0.00  0.00    +0.032 C 
ATOM     41  C   UNL     1      -9.266   8.631   3.693  0.00  0.00    +0.009 C 
ENDBRANCH  37  40
ENDBRANCH  32  34
ENDBRANCH  30  32
ENDBRANCH  28  30
ENDBRANCH   5  28
TORSDOF 9
