REMARK  Name = ZINC52841728
REMARK  5 active torsions:
REMARK  status: ('A' for Active; 'I' for Inactive)
REMARK    1  A    between atoms: C_1  and  C_2
REMARK    2  A    between atoms: C_5  and  O_9
REMARK    3  A    between atoms: O_9  and  C_10
REMARK    4  A    between atoms: C_13  and  N_17
REMARK    5  A    between atoms: C_15  and  N_16
REMARK                            x       y       z     vdW  Elec       q    Type
REMARK                         _______ _______ _______ _____ _____    ______ ____
ROOT
ATOM      1  C   UNL     1       0.067  -4.666  -1.272  0.00  0.00    +0.149 A 
ATOM      2  C   UNL     1       0.115  -3.840  -2.382  0.00  0.00    +0.050 A 
ATOM      3  C   UNL     1       0.124  -4.387  -3.652  0.00  0.00    +0.036 A 
ATOM      4  C   UNL     1       0.085  -5.759  -3.818  0.00  0.00    +0.128 A 
ATOM      5  C   UNL     1       0.037  -6.591  -2.715  0.00  0.00    +0.059 A 
ATOM      6  C   UNL     1       0.034  -6.050  -1.438  0.00  0.00    +0.070 A 
ENDROOT
BRANCH   6   7
ATOM      7  N   UNL     1      -0.009  -6.890  -0.320  0.00  0.00    -0.355 N 
ATOM      8  H   UNL     1      -0.015  -6.510   0.573  0.00  0.00    +0.142 HD
ATOM      9  H   UNL     1      -0.032  -7.852  -0.437  0.00  0.00    +0.142 HD
ENDBRANCH   6   7
BRANCH   4  10
ATOM     10  N   UNL     1       0.093  -6.339  -5.180  0.00  0.00    +0.056 N 
ATOM     11  O   UNL     1       0.134  -5.613  -6.146  0.00  0.00    -0.126 OA
ATOM     12  O   UNL     1       0.059  -7.538  -5.327  0.00  0.00    -0.126 OA
ENDBRANCH   4  10
BRANCH   1  13
ATOM     13  O   UNL     1       0.059  -4.130  -0.022  0.00  0.00    -0.453 OA
BRANCH  13  18
ATOM     14  C   UNL     1       4.986  -3.576   2.651  0.00  0.00    +0.044 C 
ATOM     15  C   UNL     1       3.668  -3.724   1.936  0.00  0.00    -0.049 A 
ATOM     16  C   UNL     1       3.639  -4.162   0.625  0.00  0.00    +0.007 A 
ATOM     17  C   UNL     1       2.432  -4.299  -0.033  0.00  0.00    +0.047 A 
ATOM     18  C   UNL     1       1.248  -3.996   0.623  0.00  0.00    +0.142 A 
ATOM     19  C   UNL     1       1.279  -3.556   1.939  0.00  0.00    +0.060 A 
ATOM     20  C   UNL     1       2.489  -3.426   2.594  0.00  0.00    +0.022 A 
ATOM     21 BR   UNL     1      -0.333  -3.142   2.837  0.00  0.00    -0.046 Br
ENDBRANCH  13  18
ENDBRANCH   1  13
TORSDOF 4
