REMARK  Name = ZINC20918558
REMARK  10 active torsions:
REMARK  status: ('A' for Active; 'I' for Inactive)
REMARK    1  A    between atoms: C_4  and  C_7
REMARK    2  A    between atoms: C_7  and  C_8
REMARK    3  A    between atoms: C_8  and  C_30
REMARK    4  A    between atoms: N_9  and  N_10
REMARK    5  A    between atoms: C_14  and  S_17
REMARK    6  A    between atoms: N_15  and  N_16
REMARK    7  A    between atoms: S_17  and  C_18
REMARK    8  A    between atoms: C_18  and  C_19
REMARK    9  A    between atoms: C_19  and  C_21
REMARK   10  A    between atoms: C_30  and  C_31
REMARK                            x       y       z     vdW  Elec       q    Type
REMARK                         _______ _______ _______ _____ _____    ______ ____
ROOT
ATOM      1  N   UNL     1       9.680  -5.791   5.733  0.00  0.00    -0.204 N 
ATOM      2  C   UNL     1       8.693  -5.047   5.100  0.00  0.00    +0.254 A 
ATOM      3  N   UNL     1       7.505  -5.480   4.754  0.00  0.00    -0.109 NA
ATOM      4  N   UNL     1       6.817  -4.420   4.150  0.00  0.00    -0.119 NA
ATOM      5  C   UNL     1       7.610  -3.376   4.140  0.00  0.00    +0.210 A 
ATOM      6  N   UNL     1       8.788  -3.735   4.730  0.00  0.00    -0.211 N 
ATOM      7  H   UNL     1      10.646  -5.326   5.980  0.00  0.00    +0.177 HD
ENDROOT
BRANCH   6   8
ATOM      8  N   UNL     1       9.873  -2.925   4.917  0.00  0.00    -0.294 N 
ATOM      9  H   UNL     1       9.843  -1.879   4.578  0.00  0.00    +0.163 HD
ATOM     10  H   UNL     1      10.776  -3.320   5.405  0.00  0.00    +0.163 HD
ENDBRANCH   6   8
BRANCH   1  12
ATOM     11  C   UNL     1      10.356  -7.820   6.640  0.00  0.00    +0.045 C 
ATOM     12  N   UNL     1       9.446  -7.134   6.057  0.00  0.00    -0.188 NA
BRANCH  11  13
ATOM     13  C   UNL     1      11.679  -7.183   6.978  0.00  0.00    +0.088 C 
BRANCH  13  17
ATOM     14  C   UNL     1      11.475  -5.462  10.883  0.00  0.00    +0.000 A 
ATOM     15  C   UNL     1      11.884  -6.773  10.726  0.00  0.00    +0.000 A 
ATOM     16  C   UNL     1      11.950  -7.330   9.462  0.00  0.00    +0.004 A 
ATOM     17  C   UNL     1      11.607  -6.576   8.356  0.00  0.00    -0.042 A 
ATOM     18  C   UNL     1      11.203  -5.263   8.512  0.00  0.00    +0.004 A 
ATOM     19  C   UNL     1      11.133  -4.708   9.776  0.00  0.00    +0.000 A 
ENDBRANCH  13  17
ENDBRANCH  11  13
BRANCH  11  20
ATOM     20  C   UNL     1      10.104  -9.264   6.988  0.00  0.00    +0.088 C 
BRANCH  20  21
ATOM     21  C   UNL     1      11.036 -10.142   6.194  0.00  0.00    -0.042 A 
ATOM     22  C   UNL     1      10.649 -10.619   4.956  0.00  0.00    +0.004 A 
ATOM     23  C   UNL     1      11.506 -11.421   4.225  0.00  0.00    +0.000 A 
ATOM     24  C   UNL     1      12.746 -11.754   4.737  0.00  0.00    +0.000 A 
ATOM     25  C   UNL     1      13.131 -11.281   5.977  0.00  0.00    +0.000 A 
ATOM     26  C   UNL     1      12.277 -10.475   6.706  0.00  0.00    +0.004 A 
ENDBRANCH  20  21
ENDBRANCH  11  20
ENDBRANCH   1  12
BRANCH   5  27
ATOM     27  S   UNL     1       7.221  -1.786   3.486  0.00  0.00    -0.076 S 
BRANCH  27  28
ATOM     28  C   UNL     1       5.530  -1.971   2.858  0.00  0.00    +0.157 C 
BRANCH  28  29
ATOM     29  C   UNL     1       5.069  -0.665   2.264  0.00  0.00    +0.173 C 
ATOM     30  O   UNL     1       5.809   0.296   2.264  0.00  0.00    -0.291 OA
BRANCH  29  31
ATOM     31  C   UNL     1       3.724  -0.557   1.684  0.00  0.00    +0.022 A 
ATOM     32  C   UNL     1       2.868  -1.665   1.682  0.00  0.00    +0.015 A 
ATOM     33  C   UNL     1       1.608  -1.560   1.139  0.00  0.00    +0.050 A 
ATOM     34  C   UNL     1       1.180  -0.357   0.590  0.00  0.00    +0.166 A 
ATOM     35  C   UNL     1       2.028   0.753   0.589  0.00  0.00    +0.167 A 
ATOM     36  C   UNL     1       3.293   0.656   1.132  0.00  0.00    +0.061 A 
ATOM     37  O   UNL     1       1.376   1.798  -0.001  0.00  0.00    -0.453 OA
ATOM     38  C   UNL     1      -0.017   1.435   0.010  0.00  0.00    +0.466 C 
ATOM     39  O   UNL     1       0.002  -0.004   0.002  0.00  0.00    -0.453 OA
ENDBRANCH  29  31
ENDBRANCH  28  29
ENDBRANCH  27  28
ENDBRANCH   5  27
TORSDOF 10
