REMARK  Name = ZINC23442756
REMARK  3 active torsions:
REMARK  status: ('A' for Active; 'I' for Inactive)
REMARK    1  A    between atoms: C_1  and  N_2
REMARK    2  A    between atoms: N_10  and  C_11
REMARK    3  A    between atoms: C_11  and  C_13
REMARK                            x       y       z     vdW  Elec       q    Type
REMARK                         _______ _______ _______ _____ _____    ______ ____
ROOT
ATOM      1  C   UNL     1      -1.187   1.624   0.017  0.00  0.00    +0.250 C 
ATOM      2  O   UNL     1      -1.204   2.837   0.023  0.00  0.00    -0.273 OA
ENDROOT
BRANCH   1   3
ATOM      3  C   UNL     1      -2.482   0.853   0.018  0.00  0.00    +0.144 C 
ATOM      4  C   UNL     1      -2.545  -0.014  -1.210  0.00  0.00    +0.011 A 
ATOM      5  C   UNL     1      -1.821  -1.192  -1.246  0.00  0.00    +0.008 A 
ATOM      6  C   UNL     1      -1.866  -2.002  -2.365  0.00  0.00    +0.001 A 
ATOM      7  C   UNL     1      -2.635  -1.636  -3.454  0.00  0.00    +0.004 A 
ATOM      8  C   UNL     1      -3.359  -0.464  -3.422  0.00  0.00    +0.046 A 
ATOM      9  C   UNL     1      -3.318   0.353  -2.298  0.00  0.00    +0.133 A 
ATOM     10  O   UNL     1      -4.037   1.501  -2.287  0.00  0.00    -0.455 OA
ATOM     11  C   UNL     1      -4.353   2.093  -1.111  0.00  0.00    +0.133 A 
ATOM     12  C   UNL     1      -3.635   1.819   0.042  0.00  0.00    +0.011 A 
ATOM     13  C   UNL     1      -3.978   2.438   1.231  0.00  0.00    +0.008 A 
ATOM     14  C   UNL     1      -5.033   3.329   1.273  0.00  0.00    +0.001 A 
ATOM     15  C   UNL     1      -5.752   3.604   0.124  0.00  0.00    +0.004 A 
ATOM     16  C   UNL     1      -5.415   2.989  -1.065  0.00  0.00    +0.046 A 
ENDBRANCH   1   3
BRANCH   1  26
ATOM     17  C   UNL     1       6.561   4.942   0.160  0.00  0.00    +0.105 C 
ATOM     18  N   UNL     1       5.511   3.928   0.323  0.00  0.00    -0.300 NA
ATOM     19  C   UNL     1       5.796   2.739  -0.493  0.00  0.00    +0.090 C 
ATOM     20  C   UNL     1       4.923   1.564  -0.043  0.00  0.00    +0.069 C 
ATOM     21  C   UNL     1       3.471   2.030  -0.021  0.00  0.00    +0.030 A 
ATOM     22  C   UNL     1       3.200   3.364  -0.011  0.00  0.00    +0.026 A 
ATOM     23  S   UNL     1       1.430   3.398  -0.001  0.00  0.00    -0.056 S 
ATOM     24  C   UNL     1       1.183   1.677  -0.000  0.00  0.00    +0.163 A 
ATOM     25  N   UNL     1       2.419   1.220  -0.015  0.00  0.00    -0.339 N 
ATOM     26  N   UNL     1      -0.011   0.966   0.007  0.00  0.00    -0.156 NA
ATOM     27  C   UNL     1       4.184   4.483  -0.012  0.00  0.00    +0.128 C 
ATOM     28  H   UNL     1       2.565   0.130  -0.021  0.00  0.00    +0.167 HD
ENDBRANCH   1  26
TORSDOF 2
