REMARK  Name = ZINC62038754
REMARK  11 active torsions:
REMARK  status: ('A' for Active; 'I' for Inactive)
REMARK    1  A    between atoms: C_1  and  C_2
REMARK    2  A    between atoms: C_5  and  C_9
REMARK    3  A    between atoms: C_7  and  C_8
REMARK    4  A    between atoms: C_10  and  C_35
REMARK    5  A    between atoms: C_17  and  S_19
REMARK    6  A    between atoms: S_19  and  C_20
REMARK    7  A    between atoms: C_20  and  C_22
REMARK    8  A    between atoms: C_20  and  C_23
REMARK    9  A    between atoms: N_25  and  C_26
REMARK   10  A    between atoms: C_28  and  C_33
REMARK   11  A    between atoms: C_31  and  O_32
REMARK                            x       y       z     vdW  Elec       q    Type
REMARK                         _______ _______ _______ _____ _____    ______ ____
ROOT
ATOM      1  C   UNL     1       0.040  -4.233  -0.087  0.00  0.00    +0.007 A 
ATOM      2  C   UNL     1      -1.012  -4.937   0.398  0.00  0.00    -0.003 A 
ATOM      3  S   UNL     1      -0.506  -6.632   0.173  0.00  0.00    -0.075 S 
ATOM      4  C   UNL     1       1.084  -6.353  -0.558  0.00  0.00    +0.093 A 
ATOM      5  C   UNL     1       1.187  -4.963  -0.617  0.00  0.00    +0.080 A 
ATOM      6  C   UNL     1       2.444  -4.443  -1.202  0.00  0.00    +0.283 A 
ATOM      7  O   UNL     1       2.631  -3.240  -1.293  0.00  0.00    -0.265 OA
ATOM      8  N   UNL     1       3.373  -5.304  -1.629  0.00  0.00    -0.185 NA
ATOM      9  C   UNL     1       3.213  -6.609  -1.550  0.00  0.00    +0.171 A 
ATOM     10  N   UNL     1       2.086  -7.155  -1.014  0.00  0.00    -0.328 N 
ATOM     11  C   UNL     1      -2.297  -4.414   0.985  0.00  0.00    +0.052 C 
ATOM     12  H   UNL     1       1.992  -8.120  -0.966  0.00  0.00    +0.168 HD
ENDROOT
BRANCH   1  17
ATOM     13  C   UNL     1      -0.030   1.524  -0.077  0.00  0.00    +0.044 C 
ATOM     14  C   UNL     1      -0.011   0.017  -0.080  0.00  0.00    -0.048 A 
ATOM     15  C   UNL     1      -0.000  -0.670  -1.281  0.00  0.00    +0.004 A 
ATOM     16  C   UNL     1       0.016  -2.049  -1.289  0.00  0.00    +0.009 A 
ATOM     17  C   UNL     1       0.022  -2.751  -0.084  0.00  0.00    -0.016 A 
ATOM     18  C   UNL     1       0.012  -2.054   1.122  0.00  0.00    +0.012 A 
ATOM     19  C   UNL     1       0.000  -0.673   1.118  0.00  0.00    -0.047 A 
ATOM     20  C   UNL     1      -0.005   0.082   2.422  0.00  0.00    +0.044 C 
ENDBRANCH   1  17
BRANCH   9  21
ATOM     21  S   UNL     1       4.490  -7.670  -2.139  0.00  0.00    -0.075 S 
BRANCH  21  22
ATOM     22  C   UNL     1       5.768  -6.530  -2.736  0.00  0.00    +0.137 C 
ATOM     23  C   UNL     1       5.229  -5.740  -3.930  0.00  0.00    +0.029 C 
BRANCH  22  24
ATOM     24  C   UNL     1       6.983  -7.315  -3.161  0.00  0.00    +0.230 C 
ATOM     25  O   UNL     1       6.867  -8.472  -3.505  0.00  0.00    -0.274 OA
ATOM     26  N   UNL     1       8.197  -6.731  -3.158  0.00  0.00    -0.282 N 
ATOM     27  H   UNL     1       8.282  -5.788  -2.946  0.00  0.00    +0.155 HD
BRANCH  26  28
ATOM     28  C   UNL     1       9.339  -7.485  -3.462  0.00  0.00    +0.076 A 
ATOM     29  C   UNL     1       9.267  -8.501  -4.396  0.00  0.00    +0.038 A 
ATOM     30  C   UNL     1      10.410  -9.252  -4.697  0.00  0.00    +0.016 A 
ATOM     31  C   UNL     1      11.619  -8.970  -4.049  0.00  0.00    +0.015 A 
ATOM     32  C   UNL     1      11.681  -7.957  -3.119  0.00  0.00    +0.048 A 
ATOM     33  C   UNL     1      10.550  -7.207  -2.825  0.00  0.00    +0.138 A 
BRANCH  33  34
ATOM     34  O   UNL     1      10.619  -6.206  -1.911  0.00  0.00    -0.505 OA
ATOM     35  H   UNL     1      10.433  -6.487  -1.005  0.00  0.00    +0.292 HD
ENDBRANCH  33  34
BRANCH  30  36
ATOM     36  C   UNL     1      10.341 -10.333  -5.689  0.00  0.00    +0.258 C 
ATOM     37  O   UNL     1      11.332 -10.982  -5.948  0.00  0.00    -0.296 OA
ENDBRANCH  30  36
ENDBRANCH  26  28
ENDBRANCH  22  24
ENDBRANCH  21  22
ENDBRANCH   9  21
TORSDOF 7
