REMARK  Name = ZINC18024420
REMARK  8 active torsions:
REMARK  status: ('A' for Active; 'I' for Inactive)
REMARK    1  A    between atoms: C_1  and  N_2
REMARK    2  A    between atoms: N_2  and  C_3
REMARK    3  A    between atoms: N_2  and  C_4
REMARK    4  A    between atoms: C_7  and  C_10
REMARK    5  A    between atoms: N_11  and  N_12
REMARK    6  A    between atoms: C_13  and  S_15
REMARK    7  A    between atoms: S_15  and  C_16
REMARK    8  A    between atoms: N_21  and  C_24
REMARK                            x       y       z     vdW  Elec       q    Type
REMARK                         _______ _______ _______ _____ _____    ______ ____
ROOT
ATOM      1  N   UNL     1      -7.421  -3.855   0.389  0.00  0.00    -0.217 N 
ATOM      2  C   UNL     1      -8.472  -2.967   0.338  0.00  0.00    +0.146 C 
ATOM      3  N   UNL     1      -8.246  -1.685   0.411  0.00  0.00    -0.380 N 
ATOM      4  H   UNL     1      -7.589  -4.809   0.335  0.00  0.00    +0.176 HD
ATOM      5  H   UNL     1      -8.987  -1.059   0.376  0.00  0.00    +0.158 HD
ATOM      6  H   UNL     1      -7.338  -1.356   0.501  0.00  0.00    +0.158 HD
ENDROOT
BRANCH   1   8
ATOM      7  C   UNL     1      -5.119  -4.218   0.567  0.00  0.00    +0.138 C 
ATOM      8  N   UNL     1      -6.109  -3.381   0.519  0.00  0.00    -0.188 NA
BRANCH   7  12
ATOM      9  C   UNL     1      -1.143  -2.782   0.959  0.00  0.00    +0.029 A 
ATOM     10  C   UNL     1      -1.381  -4.149   0.882  0.00  0.00    +0.024 A 
ATOM     11  C   UNL     1      -2.670  -4.619   0.755  0.00  0.00    +0.011 A 
ATOM     12  C   UNL     1      -3.738  -3.720   0.704  0.00  0.00    -0.005 A 
ATOM     13  C   UNL     1      -3.494  -2.346   0.781  0.00  0.00    +0.011 A 
ATOM     14  C   UNL     1      -2.203  -1.883   0.913  0.00  0.00    +0.024 A 
BRANCH   9  16
ATOM     15  C   UNL     1       0.417  -0.869   1.175  0.00  0.00    +0.129 C 
ATOM     16  N   UNL     1       0.164  -2.309   1.088  0.00  0.00    -0.336 N 
ATOM     17  C   UNL     1       1.283  -3.254   1.136  0.00  0.00    +0.129 C 
ENDBRANCH   9  16
ENDBRANCH   7  12
ENDBRANCH   1   8
BRANCH   2  18
ATOM     18  S   UNL     1     -10.122  -3.564   0.175  0.00  0.00    -0.078 S 
BRANCH  18  19
ATOM     19  C   UNL     1     -11.133  -2.058   0.154  0.00  0.00    +0.149 C 
ATOM     20  C   UNL     1     -12.620  -2.405  -0.058  0.00  0.00    +0.120 C 
ATOM     21  C   UNL     1     -13.287  -1.892   1.200  0.00  0.00    +0.228 C 
ATOM     22  O   UNL     1     -14.472  -1.965   1.447  0.00  0.00    -0.275 OA
ATOM     23  N   UNL     1     -12.361  -1.347   1.998  0.00  0.00    -0.209 N 
ATOM     24  C   UNL     1     -11.112  -1.383   1.508  0.00  0.00    +0.240 C 
ATOM     25  O   UNL     1     -10.124  -0.947   2.060  0.00  0.00    -0.274 OA
BRANCH  23  26
ATOM     26  C   UNL     1     -12.670  -0.782   3.244  0.00  0.00    +0.044 A 
ATOM     27  C   UNL     1     -12.541   0.587   3.438  0.00  0.00    +0.025 A 
ATOM     28  C   UNL     1     -12.846   1.141   4.665  0.00  0.00    +0.017 A 
ATOM     29  C   UNL     1     -13.280   0.333   5.702  0.00  0.00    +0.018 A 
ATOM     30  C   UNL     1     -13.409  -1.031   5.511  0.00  0.00    +0.017 A 
ATOM     31  C   UNL     1     -13.110  -1.589   4.284  0.00  0.00    +0.025 A 
ATOM     32 BR   UNL     1     -13.696   1.095   7.382  0.00  0.00    -0.050 Br
ENDBRANCH  23  26
ENDBRANCH  18  19
ENDBRANCH   2  18
TORSDOF 6
