REMARK  Name = ZINC25533807
REMARK  11 active torsions:
REMARK  status: ('A' for Active; 'I' for Inactive)
REMARK    1  A    between atoms: C_1  and  C_2
REMARK    2  A    between atoms: C_2  and  C_3
REMARK    3  A    between atoms: C_3  and  C_28
REMARK    4  A    between atoms: N_6  and  N_10
REMARK    5  A    between atoms: C_11  and  C_13
REMARK    6  A    between atoms: C_13  and  N_14
REMARK    7  A    between atoms: N_14  and  C_15
REMARK    8  A    between atoms: N_14  and  C_16
REMARK    9  A    between atoms: C_16  and  C_17
REMARK   10  A    between atoms: C_22  and  O_23
REMARK   11  A    between atoms: O_23  and  C_24
REMARK                            x       y       z     vdW  Elec       q    Type
REMARK                         _______ _______ _______ _____ _____    ______ ____
ROOT
ATOM      1  N   UNL     1      -3.773   1.696  -2.663  0.00  0.00    -0.225 N 
ATOM      2  C   UNL     1      -3.812   0.589  -3.430  0.00  0.00    +0.213 C 
ATOM      3  O   UNL     1      -3.167  -0.390  -3.116  0.00  0.00    -0.276 OA
ATOM      4  H   UNL     1      -4.358   2.583  -2.947  0.00  0.00    +0.173 HD
ENDROOT
BRANCH   1   8
ATOM      5  C   UNL     1      -1.332   2.114   0.020  0.00  0.00    +0.139 C 
ATOM      6  C   UNL     1      -1.812   2.367  -1.395  0.00  0.00    +0.268 C 
ATOM      7  O   UNL     1      -1.255   3.018  -2.253  0.00  0.00    -0.271 OA
ATOM      8  N   UNL     1      -2.988   1.717  -1.502  0.00  0.00    -0.137 N 
ATOM      9  C   UNL     1      -3.314   1.095  -0.363  0.00  0.00    +0.327 C 
ATOM     10  O   UNL     1      -4.329   0.444  -0.216  0.00  0.00    -0.251 OA
ATOM     11  N   UNL     1      -2.392   1.272   0.600  0.00  0.00    -0.280 N 
ATOM     12  H   UNL     1      -2.312   0.926   1.641  0.00  0.00    +0.152 HD
BRANCH   5  13
ATOM     13  C   UNL     1      -0.017   1.378   0.010  0.00  0.00    -0.015 A 
ATOM     14  C   UNL     1       1.171   2.086   0.002  0.00  0.00    +0.006 A 
ATOM     15  C   UNL     1       2.377   1.411  -0.015  0.00  0.00    +0.000 A 
ATOM     16  C   UNL     1       2.396   0.029  -0.022  0.00  0.00    +0.000 A 
ATOM     17  C   UNL     1       1.208  -0.679  -0.013  0.00  0.00    +0.000 A 
ATOM     18  C   UNL     1       0.002  -0.004   0.002  0.00  0.00    +0.006 A 
ENDBRANCH   5  13
BRANCH   5  20
ATOM     19  C   UNL     1      -2.578   4.096   0.891  0.00  0.00    +0.007 C 
ATOM     20  C   UNL     1      -1.204   3.431   0.788  0.00  0.00    +0.037 C 
ENDBRANCH   5  20
ENDBRANCH   1   8
BRANCH   2  21
ATOM     21  C   UNL     1      -4.656   0.566  -4.678  0.00  0.00    +0.020 C 
BRANCH  21  22
ATOM     22  N   UNL     1      -4.528  -0.743  -5.332  0.00  0.00    +0.386 N 
ATOM     23  C   UNL     1      -5.106  -1.806  -4.500  0.00  0.00    -0.095 C 
ATOM     24  H   UNL     1      -3.456  -0.956  -5.456  0.00  0.00    -0.081 HD
BRANCH  22  25
ATOM     25  C   UNL     1      -5.141  -0.727  -6.667  0.00  0.00    -0.039 C 
BRANCH  25  26
ATOM     26  C   UNL     1      -4.781  -1.993  -7.401  0.00  0.00    -0.022 A 
ATOM     27  C   UNL     1      -3.765  -1.985  -8.337  0.00  0.00    +0.005 A 
ATOM     28  C   UNL     1      -3.434  -3.146  -9.010  0.00  0.00    +0.000 A 
ATOM     29  C   UNL     1      -4.118  -4.319  -8.748  0.00  0.00    +0.004 A 
ATOM     30  C   UNL     1      -5.134  -4.333  -7.813  0.00  0.00    +0.046 A 
ATOM     31  C   UNL     1      -5.465  -3.170  -7.133  0.00  0.00    +0.131 A 
BRANCH  31  32
ATOM     32  O   UNL     1      -6.462  -3.182  -6.208  0.00  0.00    -0.406 OA
BRANCH  32  33
ATOM     33  C   UNL     1      -7.123  -4.429  -5.984  0.00  0.00    +0.575 C 
ATOM     34  F   UNL     1      -6.193  -5.378  -5.547  0.00  0.00    -0.133 F 
ATOM     35  F   UNL     1      -8.113  -4.263  -5.009  0.00  0.00    -0.133 F 
ATOM     36  F   UNL     1      -7.711  -4.866  -7.176  0.00  0.00    -0.133 F 
ENDBRANCH  32  33
ENDBRANCH  31  32
ENDBRANCH  25  26
ENDBRANCH  22  25
ENDBRANCH  21  22
ENDBRANCH   2  21
TORSDOF 9
