REMARK  Name = ZINC09581877
REMARK  6 active torsions:
REMARK  status: ('A' for Active; 'I' for Inactive)
REMARK    1  A    between atoms: C_1  and  C_2
REMARK    2  A    between atoms: C_3  and  C_12
REMARK    3  A    between atoms: N_22  and  C_23
REMARK    4  A    between atoms: C_23  and  C_24
REMARK    5  A    between atoms: N_26  and  C_27
REMARK    6  A    between atoms: C_27  and  C_28
REMARK                            x       y       z     vdW  Elec       q    Type
REMARK                         _______ _______ _______ _____ _____    ______ ____
ROOT
ATOM      1  C   UNL     1      -1.155  -0.913   0.060  0.00  0.00    +0.140 C 
ATOM      2  C   UNL     1       0.012   0.032  -0.079  0.00  0.00    -0.010 A 
ATOM      3  C   UNL     1       0.113   1.403  -0.134  0.00  0.00    +0.006 A 
ATOM      4  C   UNL     1       1.356   2.000  -0.269  0.00  0.00    +0.000 A 
ATOM      5  C   UNL     1       2.497   1.221  -0.347  0.00  0.00    +0.001 A 
ATOM      6  C   UNL     1       2.407  -0.154  -0.293  0.00  0.00    +0.013 A 
ATOM      7  C   UNL     1       1.158  -0.763  -0.158  0.00  0.00    +0.042 A 
ATOM      8  C   UNL     1       0.746  -2.178  -0.073  0.00  0.00    +0.248 C 
ATOM      9  O   UNL     1       1.505  -3.126  -0.111  0.00  0.00    -0.270 OA
ATOM     10  N   UNL     1      -0.590  -2.267   0.054  0.00  0.00    -0.278 N 
ENDROOT
BRANCH   1  13
ATOM     11  C   UNL     1      -4.112   0.013   0.237  0.00  0.00    +0.063 C 
ATOM     12  C   UNL     1      -3.381  -0.341  -1.033  0.00  0.00    +0.019 A 
ATOM     13  C   UNL     1      -2.102  -0.741  -1.099  0.00  0.00    +0.005 A 
ATOM     14  C   UNL     1      -1.802  -0.986  -2.512  0.00  0.00    +0.005 A 
ATOM     15  C   UNL     1      -0.667  -1.414  -3.204  0.00  0.00    +0.010 A 
ATOM     16  C   UNL     1      -0.711  -1.546  -4.563  0.00  0.00    +0.001 A 
ATOM     17  C   UNL     1      -1.875  -1.257  -5.263  0.00  0.00    +0.002 A 
ATOM     18  C   UNL     1      -3.006  -0.833  -4.600  0.00  0.00    +0.026 A 
ATOM     19  C   UNL     1      -2.984  -0.692  -3.216  0.00  0.00    +0.047 A 
ATOM     20  N   UNL     1      -3.923  -0.300  -2.289  0.00  0.00    -0.358 N 
ATOM     21  H   UNL     1      -4.834  -0.038  -2.494  0.00  0.00    +0.166 HD
ENDBRANCH   1  13
BRANCH  10  22
ATOM     22  C   UNL     1      -1.354  -3.512   0.166  0.00  0.00    +0.204 C 
BRANCH  22  23
ATOM     23  C   UNL     1      -1.598  -4.078  -1.209  0.00  0.00    +0.231 C 
ATOM     24  O   UNL     1      -1.072  -3.570  -2.176  0.00  0.00    -0.274 OA
ATOM     25  N   UNL     1      -2.402  -5.149  -1.364  0.00  0.00    -0.305 N 
ATOM     26  H   UNL     1      -2.823  -5.555  -0.590  0.00  0.00    +0.149 HD
BRANCH  25  27
ATOM     27  C   UNL     1      -2.639  -5.699  -2.701  0.00  0.00    +0.199 C 
BRANCH  27  28
ATOM     28  C   UNL     1      -3.565  -6.883  -2.599  0.00  0.00    +0.228 C 
ATOM     29  O   UNL     1      -3.986  -7.233  -1.517  0.00  0.00    -0.274 OA
ATOM     30  N   UNL     1      -3.926  -7.554  -3.711  0.00  0.00    -0.328 N 
ATOM     31  H   UNL     1      -3.590  -7.274  -4.577  0.00  0.00    +0.145 HD
ATOM     32  H   UNL     1      -4.522  -8.316  -3.646  0.00  0.00    +0.145 HD
ENDBRANCH  27  28
ENDBRANCH  25  27
ENDBRANCH  22  23
ENDBRANCH  10  22
TORSDOF 5
