REMARK  Name = ZINC06867681
REMARK  5 active torsions:
REMARK  status: ('A' for Active; 'I' for Inactive)
REMARK    1  A    between atoms: C_1  and  C_2
REMARK    2  A    between atoms: C_2  and  C_3
REMARK    3  A    between atoms: C_10  and  S_15
REMARK    4  A    between atoms: S_15  and  N_18
REMARK    5  A    between atoms: N_18  and  C_19
REMARK                            x       y       z     vdW  Elec       q    Type
REMARK                         _______ _______ _______ _____ _____    ______ ____
ROOT
ATOM      1  C   UNL     1      -6.777   6.687  -2.017  0.00  0.00    +0.137 C 
ATOM      2  C   UNL     1      -7.536   5.391  -1.902  0.00  0.00    +0.231 C 
ATOM      3  O   UNL     1      -8.614   5.301  -2.452  0.00  0.00    -0.274 OA
ATOM      4  N   UNL     1      -7.080   4.340  -1.228  0.00  0.00    -0.284 N 
ATOM      5  C   UNL     1      -5.929   4.289  -0.448  0.00  0.00    +0.049 A 
ATOM      6  C   UNL     1      -5.399   3.053  -0.094  0.00  0.00    +0.053 A 
ATOM      7  C   UNL     1      -4.263   2.978   0.686  0.00  0.00    +0.110 A 
ATOM      8  C   UNL     1      -3.641   4.131   1.131  0.00  0.00    +0.030 A 
ATOM      9  C   UNL     1      -4.155   5.368   0.786  0.00  0.00    +0.018 A 
ATOM     10  C   UNL     1      -5.297   5.448   0.006  0.00  0.00    +0.030 A 
ATOM     11  S   UNL     1      -5.971   7.023  -0.421  0.00  0.00    -0.111 S 
ATOM     12  H   UNL     1      -7.604   3.526  -1.284  0.00  0.00    +0.155 HD
ENDROOT
BRANCH   7  13
ATOM     13  S   UNL     1      -3.604   1.404   1.125  0.00  0.00    +0.072 S 
ATOM     14  O   UNL     1      -4.666   0.469   0.996  0.00  0.00    -0.150 OA
ATOM     15  O   UNL     1      -2.894   1.586   2.343  0.00  0.00    -0.150 OA
BRANCH  13  16
ATOM     16  N   UNL     1      -2.480   1.006  -0.024  0.00  0.00    -0.216 N 
ATOM     17  H   UNL     1      -2.619   0.231  -0.590  0.00  0.00    +0.174 HD
BRANCH  16  18
ATOM     18  C   UNL     1      -1.330   1.787  -0.177  0.00  0.00    +0.048 A 
ATOM     19  C   UNL     1      -1.213   2.647  -1.261  0.00  0.00    +0.027 A 
ATOM     20  C   UNL     1      -0.079   3.422  -1.408  0.00  0.00    +0.040 A 
ATOM     21  C   UNL     1       0.943   3.337  -0.478  0.00  0.00    +0.124 A 
ATOM     22  C   UNL     1       0.831   2.477   0.601  0.00  0.00    +0.040 A 
ATOM     23  C   UNL     1      -0.301   1.700   0.751  0.00  0.00    +0.027 A 
ATOM     24  F   UNL     1       2.051   4.096  -0.623  0.00  0.00    -0.205 F 
ENDBRANCH  16  18
ENDBRANCH  13  16
ENDBRANCH   7  13
BRANCH   1  26
ATOM     25  C   UNL     1      -5.017   7.918  -3.293  0.00  0.00    +0.005 C 
ATOM     26  C   UNL     1      -5.718   6.570  -3.114  0.00  0.00    +0.020 C 
ENDBRANCH   1  26
TORSDOF 4
