REMARK  Name = ZINC01939543
REMARK  9 active torsions:
REMARK  status: ('A' for Active; 'I' for Inactive)
REMARK    1  A    between atoms: C_1  and  C_2
REMARK    2  A    between atoms: C_2  and  N_61
REMARK    3  A    between atoms: C_3  and  C_4
REMARK    4  A    between atoms: C_3  and  N_61
REMARK    5  A    between atoms: C_10  and  C_11
REMARK    6  A    between atoms: C_10  and  N_61
REMARK    7  A    between atoms: C_12  and  O_36
REMARK    8  A    between atoms: C_18  and  C_32
REMARK    9  A    between atoms: C_19  and  C_22
REMARK                            x       y       z     vdW  Elec       q    Type
REMARK                         _______ _______ _______ _____ _____    ______ ____
ROOT
ATOM      1  C   UNL     1      -6.085   1.827  -0.149  0.00  0.00    +0.020 A 
ATOM      2  C   UNL     1      -6.715   2.165   1.038  0.00  0.00    +0.122 A 
ATOM      3  C   UNL     1      -6.148   1.824   2.264  0.00  0.00    +0.046 A 
ATOM      4  C   UNL     1      -4.961   1.150   2.310  0.00  0.00    +0.019 A 
ATOM      5  C   UNL     1      -4.314   0.803   1.124  0.00  0.00    +0.065 A 
ATOM      6  C   UNL     1      -4.878   1.142  -0.119  0.00  0.00    +0.144 A 
ATOM      7  O   UNL     1      -4.253   0.806  -1.265  0.00  0.00    -0.450 OA
ATOM      8  C   UNL     1      -3.088   0.153  -1.300  0.00  0.00    +0.219 A 
ATOM      9  C   UNL     1      -2.436  -0.241  -0.174  0.00  0.00    +0.077 A 
ATOM     10  C   UNL     1      -3.032   0.076   1.136  0.00  0.00    +0.201 A 
ATOM     11  O   UNL     1      -2.491  -0.248   2.179  0.00  0.00    -0.286 OA
ENDROOT
BRANCH   9  12
ATOM     12  C   UNL     1      -1.150  -0.969  -0.262  0.00  0.00    -0.003 A 
ATOM     13  C   UNL     1      -1.132  -2.352  -0.320  0.00  0.00    +0.009 A 
ATOM     14  C   UNL     1       0.072  -3.042  -0.403  0.00  0.00    +0.001 A 
ATOM     15  C   UNL     1       1.263  -2.381  -0.428  0.00  0.00    +0.008 A 
ATOM     16  C   UNL     1       1.291  -0.977  -0.372  0.00  0.00    -0.017 A 
ATOM     17  C   UNL     1       0.074  -0.258  -0.288  0.00  0.00    -0.010 A 
ATOM     18  C   UNL     1       0.103   1.143  -0.232  0.00  0.00    +0.009 A 
ATOM     19  C   UNL     1       1.299   1.794  -0.259  0.00  0.00    +0.001 A 
ATOM     20  C   UNL     1       2.497   1.088  -0.341  0.00  0.00    +0.001 A 
ATOM     21  C   UNL     1       2.506  -0.272  -0.398  0.00  0.00    +0.008 A 
ENDBRANCH   9  12
BRANCH   8  22
ATOM     22  C   UNL     1      -2.477  -0.164  -2.640  0.00  0.00    +0.451 C 
ATOM     23  F   UNL     1      -2.938  -1.409  -3.080  0.00  0.00    -0.163 F 
ATOM     24  F   UNL     1      -2.841   0.821  -3.564  0.00  0.00    -0.163 F 
ATOM     25  F   UNL     1      -1.083  -0.198  -2.521  0.00  0.00    -0.163 F 
ENDBRANCH   8  22
BRANCH   2  26
ATOM     26  O   UNL     1      -7.895   2.834   1.006  0.00  0.00    -0.506 OA
ATOM     27  H   UNL     1      -8.673   2.264   1.071  0.00  0.00    +0.292 HD
ENDBRANCH   2  26
BRANCH   1  28
ATOM     28  C   UNL     1      -6.709   2.202  -1.468  0.00  0.00    -0.035 C 
BRANCH  28  29
ATOM     29  N   UNL     1      -7.439   1.030  -1.997  0.00  0.00    +0.385 N 
ATOM     30  H   UNL     1      -6.870   0.188  -1.849  0.00  0.00    -0.081 HD
BRANCH  29  32
ATOM     31  C   UNL     1      -9.635   2.073  -1.549  0.00  0.00    -0.017 C 
ATOM     32  C   UNL     1      -8.724   0.872  -1.284  0.00  0.00    -0.081 C 
ENDBRANCH  29  32
BRANCH  29  33
ATOM     33  C   UNL     1      -7.681   1.197  -3.445  0.00  0.00    -0.043 C 
BRANCH  33  34
ATOM     34  C   UNL     1      -8.086  -0.134  -4.025  0.00  0.00    -0.064 A 
ATOM     35  C   UNL     1      -7.119  -1.053  -4.387  0.00  0.00    +0.002 A 
ATOM     36  C   UNL     1      -7.490  -2.276  -4.914  0.00  0.00    +0.000 A 
ATOM     37  C   UNL     1      -8.828  -2.576  -5.088  0.00  0.00    +0.000 A 
ATOM     38  C   UNL     1      -9.795  -1.655  -4.732  0.00  0.00    +0.000 A 
ATOM     39  C   UNL     1      -9.424  -0.434  -4.200  0.00  0.00    +0.002 A 
ENDBRANCH  33  34
ENDBRANCH  29  33
ENDBRANCH  28  29
ENDBRANCH   1  28
TORSDOF 8
