REMARK  Name = ZINC43209270
REMARK  10 active torsions:
REMARK  status: ('A' for Active; 'I' for Inactive)
REMARK    1  A    between atoms: C_1  and  O_2
REMARK    2  A    between atoms: O_2  and  C_3
REMARK    3  A    between atoms: C_8  and  C_9
REMARK    4  A    between atoms: N_17  and  C_20
REMARK    5  A    between atoms: N_27  and  C_28
REMARK    6  A    between atoms: C_28  and  C_29
REMARK    7  A    between atoms: C_29  and  C_30
REMARK    8  A    between atoms: C_30  and  C_31
REMARK    9  A    between atoms: C_31  and  C_32
REMARK   10  A    between atoms: C_32  and  C_33
REMARK                            x       y       z     vdW  Elec       q    Type
REMARK                         _______ _______ _______ _____ _____    ______ ____
ROOT
ATOM      1  C   UNL     1       0.052  -2.828  -0.032  0.00  0.00    +0.133 C 
ATOM      2  C   UNL     1       1.010  -2.949   1.145  0.00  0.00    +0.139 C 
ATOM      3  C   UNL     1       1.815  -4.209   0.646  0.00  0.00    +0.241 C 
ATOM      4  C   UNL     1       3.008  -4.132   1.468  0.00  0.00    +0.254 C 
ATOM      5  O   UNL     1       3.665  -5.056   1.898  0.00  0.00    -0.272 OA
ATOM      6  N   UNL     1       3.236  -2.793   1.653  0.00  0.00    -0.236 N 
ATOM      7  C   UNL     1       2.165  -2.009   1.288  0.00  0.00    +0.230 C 
ATOM      8  O   UNL     1       2.155  -0.809   1.112  0.00  0.00    -0.275 OA
ATOM      9  O   UNL     1       0.824  -5.091   0.311  0.00  0.00    -0.283 OA
ATOM     10  N   UNL     1      -0.132  -4.241  -0.490  0.00  0.00    -0.179 NA
ENDROOT
BRANCH   1  16
ATOM     11  C   UNL     1       0.606  -0.607  -1.056  0.00  0.00    +0.125 A 
ATOM     12  C   UNL     1       1.173   0.161  -2.063  0.00  0.00    +0.047 A 
ATOM     13  C   UNL     1       1.786  -0.454  -3.137  0.00  0.00    +0.019 A 
ATOM     14  C   UNL     1       1.835  -1.835  -3.209  0.00  0.00    +0.018 A 
ATOM     15  C   UNL     1       1.270  -2.602  -2.207  0.00  0.00    +0.024 A 
ATOM     16  C   UNL     1       0.661  -1.991  -1.128  0.00  0.00    +0.015 A 
ATOM     17 BR   UNL     1       2.675  -2.674  -4.681  0.00  0.00    -0.050 Br
BRANCH  11  19
ATOM     18  C   UNL     1      -0.017   1.425   0.010  0.00  0.00    +0.277 C 
ATOM     19  O   UNL     1       0.002  -0.004   0.002  0.00  0.00    -0.495 OA
ENDBRANCH  11  19
ENDBRANCH   1  16
BRANCH   6  20
ATOM     20  C   UNL     1       4.484  -2.251   2.196  0.00  0.00    +0.084 C 
ATOM     21  C   UNL     1       5.650  -2.649   1.289  0.00  0.00    +0.023 C 
ATOM     22  C   UNL     1       6.953  -2.083   1.856  0.00  0.00    +0.002 C 
ATOM     23  C   UNL     1       7.185  -2.643   3.261  0.00  0.00    +0.000 C 
ATOM     24  C   UNL     1       6.018  -2.245   4.167  0.00  0.00    +0.002 C 
ATOM     25  C   UNL     1       4.715  -2.812   3.600  0.00  0.00    +0.023 C 
ENDBRANCH   6  20
BRANCH  10  26
ATOM     26  C   UNL     1      -1.519  -4.683  -0.289  0.00  0.00    +0.115 C 
BRANCH  26  27
ATOM     27  C   UNL     1      -1.698  -6.083  -0.880  0.00  0.00    +0.018 C 
BRANCH  27  28
ATOM     28  C   UNL     1      -3.142  -6.543  -0.671  0.00  0.00    +0.002 C 
BRANCH  28  29
ATOM     29  C   UNL     1      -3.322  -7.943  -1.263  0.00  0.00    +0.009 C 
BRANCH  29  30
ATOM     30  C   UNL     1      -4.766  -8.403  -1.054  0.00  0.00    +0.095 C 
BRANCH  30  31
ATOM     31  C   UNL     1      -4.943  -9.782  -1.636  0.00  0.00    +0.210 C 
ATOM     32  O   UNL     1      -4.006 -10.341  -2.166  0.00  0.00    -0.276 OA
ATOM     33  N   UNL     1      -6.142 -10.393  -1.568  0.00  0.00    -0.329 N 
ATOM     34  H   UNL     1      -6.891  -9.946  -1.144  0.00  0.00    +0.145 HD
ATOM     35  H   UNL     1      -6.256 -11.281  -1.943  0.00  0.00    +0.145 HD
ENDBRANCH  30  31
ENDBRANCH  29  30
ENDBRANCH  28  29
ENDBRANCH  27  28
ENDBRANCH  26  27
ENDBRANCH  10  26
TORSDOF 9
