REMARK  Name = ZINC24873681
REMARK  9 active torsions:
REMARK  status: ('A' for Active; 'I' for Inactive)
REMARK    1  A    between atoms: C_4  and  C_7
REMARK    2  A    between atoms: C_12  and  N_13
REMARK    3  A    between atoms: N_16  and  C_17
REMARK    4  A    between atoms: N_16  and  C_21
REMARK    5  A    between atoms: C_17  and  C_18
REMARK    6  A    between atoms: N_24  and  C_27
REMARK    7  A    between atoms: C_27  and  C_28
REMARK    8  A    between atoms: C_33  and  O_34
REMARK    9  A    between atoms: O_34  and  C_35
REMARK                            x       y       z     vdW  Elec       q    Type
REMARK                         _______ _______ _______ _____ _____    ______ ____
ROOT
ATOM      1  N   UNL     1       0.002  -0.004   0.002  0.00  0.00    -0.269 N 
ATOM      2  C   UNL     1      -1.150  -0.694   0.111  0.00  0.00    +0.307 C 
ATOM      3  O   UNL     1      -2.213  -0.104   0.124  0.00  0.00    -0.252 OA
ATOM      4  N   UNL     1      -1.125  -2.038   0.205  0.00  0.00    -0.282 N 
ATOM      5  H   UNL     1       0.957  -0.541  -0.103  0.00  0.00    +0.156 HD
ENDROOT
BRANCH   4   6
ATOM      6  C   UNL     1      -2.377  -2.789   0.324  0.00  0.00    +0.074 C 
ATOM      7  C   UNL     1      -3.255  -2.515  -0.901  0.00  0.00    +0.004 C 
ATOM      8  C   UNL     1      -4.587  -3.253  -0.743  0.00  0.00    -0.077 C 
ATOM      9  N   UNL     1      -5.261  -2.793   0.478  0.00  0.00    +0.383 N 
ATOM     10  C   UNL     1      -4.458  -3.087   1.672  0.00  0.00    -0.077 C 
ATOM     11  C   UNL     1      -3.122  -2.345   1.586  0.00  0.00    +0.004 C 
ATOM     12  H   UNL     1      -5.370  -1.700   0.409  0.00  0.00    -0.081 HD
BRANCH   9  13
ATOM     13  C   UNL     1      -6.604  -3.377   0.590  0.00  0.00    -0.039 C 
BRANCH  13  14
ATOM     14  C   UNL     1      -7.311  -3.270  -0.737  0.00  0.00    -0.022 A 
ATOM     15  C   UNL     1      -8.237  -2.266  -0.948  0.00  0.00    +0.005 A 
ATOM     16  C   UNL     1      -8.882  -2.165  -2.166  0.00  0.00    +0.000 A 
ATOM     17  C   UNL     1      -8.610  -3.072  -3.173  0.00  0.00    +0.004 A 
ATOM     18  C   UNL     1      -7.689  -4.080  -2.965  0.00  0.00    +0.046 A 
ATOM     19  C   UNL     1      -7.036  -4.182  -1.745  0.00  0.00    +0.128 A 
BRANCH  19  20
ATOM     20  O   UNL     1      -6.130  -5.173  -1.538  0.00  0.00    -0.434 OA
BRANCH  20  21
ATOM     21  C   UNL     1      -5.897  -6.076  -2.621  0.00  0.00    +0.541 C 
ATOM     22  F   UNL     1      -7.092  -6.723  -2.954  0.00  0.00    -0.166 F 
ATOM     23  F   UNL     1      -5.428  -5.363  -3.730  0.00  0.00    -0.166 F 
ENDBRANCH  20  21
ENDBRANCH  19  20
ENDBRANCH  13  14
ENDBRANCH   9  13
ENDBRANCH   4   6
BRANCH   1  29
ATOM     24  C   UNL     1       1.012   2.118  -0.592  0.00  0.00    +0.003 A 
ATOM     25  C   UNL     1       0.985   3.510  -0.567  0.00  0.00    +0.010 A 
ATOM     26  C   UNL     1      -0.053   4.168   0.063  0.00  0.00    +0.001 A 
ATOM     27  C   UNL     1      -1.068   3.449   0.670  0.00  0.00    +0.002 A 
ATOM     28  C   UNL     1      -1.055   2.068   0.647  0.00  0.00    +0.024 A 
ATOM     29  C   UNL     1      -0.016   1.393   0.022  0.00  0.00    +0.042 A 
BRANCH  24  33
ATOM     30  C   UNL     1       4.202   0.079  -2.526  0.00  0.00    +0.000 A 
ATOM     31  C   UNL     1       3.530   1.091  -3.188  0.00  0.00    +0.001 A 
ATOM     32  C   UNL     1       2.493   1.756  -2.565  0.00  0.00    +0.008 A 
ATOM     33  C   UNL     1       2.124   1.407  -1.267  0.00  0.00    -0.016 A 
ATOM     34  C   UNL     1       2.810   0.390  -0.603  0.00  0.00    +0.008 A 
ATOM     35  C   UNL     1       3.841  -0.272  -1.238  0.00  0.00    +0.001 A 
ENDBRANCH  24  33
ENDBRANCH   1  29
BRANCH   4  36
ATOM     36  C   UNL     1       0.156  -2.749   0.189  0.00  0.00    +0.113 C 
BRANCH  36  37
ATOM     37  C   UNL     1       0.677  -2.895   1.620  0.00  0.00    +0.006 C 
ATOM     38  C   UNL     1       1.989  -2.190   1.970  0.00  0.00    +0.005 C 
ATOM     39  C   UNL     1       1.952  -3.714   1.828  0.00  0.00    +0.005 C 
ENDBRANCH  36  37
ENDBRANCH   4  36
TORSDOF 9
