REMARK  Name = ZINC13389572
REMARK  10 active torsions:
REMARK  status: ('A' for Active; 'I' for Inactive)
REMARK    1  A    between atoms: C_1  and  C_2
REMARK    2  A    between atoms: C_3  and  C_26
REMARK    3  A    between atoms: C_4  and  N_25
REMARK    4  A    between atoms: C_9  and  C_10
REMARK    5  A    between atoms: C_13  and  O_18
REMARK    6  A    between atoms: C_15  and  O_16
REMARK    7  A    between atoms: O_16  and  C_17
REMARK    8  A    between atoms: O_18  and  C_19
REMARK    9  A    between atoms: C_20  and  C_24
REMARK   10  A    between atoms: C_21  and  C_22
REMARK                            x       y       z     vdW  Elec       q    Type
REMARK                         _______ _______ _______ _____ _____    ______ ____
ROOT
ATOM      1  C   UNL     1       1.551   3.910  -0.802  0.00  0.00    +0.046 C 
ATOM      2  C   UNL     1       0.154   4.467  -0.905  0.00  0.00    -0.020 A 
ATOM      3  C   UNL     1      -0.064   5.791  -1.300  0.00  0.00    +0.095 A 
ATOM      4  C   UNL     1      -1.385   6.273  -1.384  0.00  0.00    +0.135 A 
ATOM      5  N   UNL     1      -2.412   5.496  -1.095  0.00  0.00    -0.230 NA
ATOM      6  C   UNL     1      -2.247   4.230  -0.715  0.00  0.00    +0.092 A 
ATOM      7  C   UNL     1      -0.951   3.681  -0.605  0.00  0.00    +0.013 A 
ATOM      8  C   UNL     1      -1.111   2.279  -0.172  0.00  0.00    -0.011 C 
ATOM      9  C   UNL     1      -0.087   1.373   0.056  0.00  0.00    +0.020 C 
ATOM     10  C   UNL     1      -2.491   2.027  -0.027  0.00  0.00    -0.023 C 
ATOM     11  C   UNL     1      -3.199   3.171  -0.343  0.00  0.00    +0.081 C 
ATOM     12  C   UNL     1      -3.098   0.718   0.406  0.00  0.00    +0.046 C 
ENDROOT
BRANCH   9  13
ATOM     13  C   UNL     1       1.149   1.820   0.583  0.00  0.00    +0.017 A 
ATOM     14  C   UNL     1       1.173   2.763   1.624  0.00  0.00    +0.015 A 
ATOM     15  C   UNL     1       2.365   3.190   2.130  0.00  0.00    +0.046 A 
ATOM     16  C   UNL     1       3.566   2.697   1.620  0.00  0.00    +0.124 A 
ATOM     17  C   UNL     1       3.562   1.765   0.591  0.00  0.00    +0.091 A 
ATOM     18  C   UNL     1       2.361   1.317   0.070  0.00  0.00    +0.131 A 
BRANCH  18  19
ATOM     19  O   UNL     1       2.352   0.403  -0.932  0.00  0.00    -0.494 OA
ATOM     20  C   UNL     1       3.620  -0.061  -1.399  0.00  0.00    +0.277 C 
ENDBRANCH  18  19
BRANCH  16  21
ATOM     21  O   UNL     1       4.744   3.131   2.133  0.00  0.00    -0.495 OA
ATOM     22  C   UNL     1       4.678   4.090   3.189  0.00  0.00    +0.277 C 
ENDBRANCH  16  21
ENDBRANCH   9  13
BRANCH   4  23
ATOM     23  N   UNL     1      -1.610   7.582  -1.774  0.00  0.00    -0.342 N 
ATOM     24  H   UNL     1      -2.638   7.967  -1.842  0.00  0.00    +0.144 HD
ATOM     25  H   UNL     1      -0.760   8.238  -2.016  0.00  0.00    +0.144 HD
ENDBRANCH   4  23
BRANCH  11  26
ATOM     26  C   UNL     1      -4.624   3.303  -0.314  0.00  0.00    +0.102 C 
ATOM     27  N   UNL     1      -5.755   3.409  -0.291  0.00  0.00    -0.191 NA
ENDBRANCH  11  26
BRANCH   3  28
ATOM     28  C   UNL     1       1.042   6.645  -1.617  0.00  0.00    +0.103 C 
ATOM     29  N   UNL     1       1.918   7.323  -1.868  0.00  0.00    -0.191 NA
ENDBRANCH   3  28
TORSDOF 6
