REMARK  Name = ZINC09095241
REMARK  5 active torsions:
REMARK  status: ('A' for Active; 'I' for Inactive)
REMARK    1  A    between atoms: C_4  and  C_7
REMARK    2  A    between atoms: C_7  and  N_49
REMARK    3  A    between atoms: C_19  and  C_21
REMARK    4  A    between atoms: C_21  and  S_22
REMARK    5  A    between atoms: S_22  and  C_23
REMARK                            x       y       z     vdW  Elec       q    Type
REMARK                         _______ _______ _______ _____ _____    ______ ____
ROOT
ATOM      1  C   UNL     1       1.279  -0.141   2.055  0.00  0.00    -0.059 C 
ATOM      2  C   UNL     1       1.227  -0.606   3.513  0.00  0.00    +0.089 C 
ATOM      3  N   UNL     1       1.009  -2.059   3.553  0.00  0.00    -0.305 N 
ATOM      4  C   UNL     1      -0.248  -2.419   2.882  0.00  0.00    +0.089 C 
ATOM      5  C   UNL     1      -0.196  -1.954   1.425  0.00  0.00    -0.059 C 
ATOM      6  C   UNL     1       1.028  -2.522   4.841  0.00  0.00    +0.198 A 
ATOM      7  N   UNL     1       2.156  -2.379   5.587  0.00  0.00    -0.295 N 
ATOM      8  H   UNL     1       2.940  -1.952   5.207  0.00  0.00    +0.172 HD
ATOM      9  C   UNL     1       2.180  -2.828   6.860  0.00  0.00    +0.253 A 
ATOM     10  O   UNL     1       3.183  -2.703   7.545  0.00  0.00    -0.268 OA
ATOM     11  C   UNL     1       1.030  -3.447   7.380  0.00  0.00    +0.094 A 
ATOM     12  C   UNL     1      -0.071  -3.569   6.583  0.00  0.00    +0.060 A 
ATOM     13  N   UNL     1      -0.047  -3.104   5.335  0.00  0.00    -0.220 NA
ATOM     14  N   UNL     1       0.001  -0.489   1.399  0.00  0.00    +0.384 N 
ATOM     15  H   UNL     1      -0.769  -0.040   1.907  0.00  0.00    -0.081 HD
ENDROOT
BRANCH  14  16
ATOM     16  C   UNL     1       0.002  -0.004   0.002  0.00  0.00    -0.043 C 
BRANCH  16  20
ATOM     17  C   UNL     1      -0.056   4.267   0.025  0.00  0.00    +0.000 A 
ATOM     18  C   UNL     1       1.151   3.592   0.010  0.00  0.00    +0.000 A 
ATOM     19  C   UNL     1       1.169   2.210   0.003  0.00  0.00    +0.002 A 
ATOM     20  C   UNL     1      -0.018   1.503   0.010  0.00  0.00    -0.064 A 
ATOM     21  C   UNL     1      -1.225   2.178   0.020  0.00  0.00    +0.002 A 
ATOM     22  C   UNL     1      -1.244   3.560   0.032  0.00  0.00    +0.000 A 
ENDBRANCH  16  20
ENDBRANCH  14  16
BRANCH  12  23
ATOM     23  C   UNL     1      -1.316  -4.229   7.116  0.00  0.00    +0.132 C 
BRANCH  23  24
ATOM     24  S   UNL     1      -2.565  -2.963   7.475  0.00  0.00    -0.091 S 
BRANCH  24  25
ATOM     25  C   UNL     1      -3.941  -3.881   8.081  0.00  0.00    +0.160 A 
ATOM     26  N   UNL     1      -4.069  -5.184   8.248  0.00  0.00    -0.133 NA
ATOM     27  N   UNL     1      -5.245  -5.699   8.742  0.00  0.00    -0.125 NA
ATOM     28  C   UNL     1      -6.239  -4.888   9.047  0.00  0.00    +0.180 A 
ATOM     29  S   UNL     1      -5.534  -3.298   8.641  0.00  0.00    -0.025 S 
ATOM     30  N   UNL     1      -7.498  -5.189   9.553  0.00  0.00    -0.336 N 
ATOM     31  H   UNL     1      -7.742  -6.112   9.729  0.00  0.00    +0.144 HD
ATOM     32  H   UNL     1      -8.133  -4.478   9.730  0.00  0.00    +0.144 HD
ENDBRANCH  24  25
ENDBRANCH  23  24
ENDBRANCH  12  23
TORSDOF 5
