REMARK  Name = ZINC23596608
REMARK  9 active torsions:
REMARK  status: ('A' for Active; 'I' for Inactive)
REMARK    1  A    between atoms: C_1  and  C_2
REMARK    2  A    between atoms: C_2  and  C_4
REMARK    3  A    between atoms: C_2  and  S_17
REMARK    4  A    between atoms: N_6  and  C_7
REMARK    5  A    between atoms: C_10  and  N_13
REMARK    6  A    between atoms: C_14  and  C_16
REMARK    7  A    between atoms: S_17  and  C_18
REMARK    8  A    between atoms: C_22  and  C_25
REMARK    9  A    between atoms: N_32  and  C_33
REMARK                            x       y       z     vdW  Elec       q    Type
REMARK                         _______ _______ _______ _____ _____    ______ ____
ROOT
ATOM      1  C   UNL     1       3.708   9.631   3.377  0.00  0.00    +0.029 C 
ATOM      2  C   UNL     1       5.082   9.102   2.961  0.00  0.00    +0.137 C 
ENDROOT
BRANCH   2   3
ATOM      3  C   UNL     1       6.158   9.923   3.624  0.00  0.00    +0.230 C 
ATOM      4  O   UNL     1       6.715   9.505   4.618  0.00  0.00    -0.274 OA
ATOM      5  N   UNL     1       6.502  11.122   3.113  0.00  0.00    -0.285 N 
ATOM      6  H   UNL     1       6.059  11.464   2.167  0.00  0.00    +0.155 HD
BRANCH   5   7
ATOM      7  C   UNL     1       7.425  11.932   3.788  0.00  0.00    +0.034 A 
ATOM      8  C   UNL     1       7.470  11.926   5.176  0.00  0.00    +0.025 A 
ATOM      9  C   UNL     1       8.382  12.721   5.840  0.00  0.00    +0.025 A 
ATOM     10  C   UNL     1       9.248  13.534   5.121  0.00  0.00    +0.033 A 
ATOM     11  C   UNL     1       9.200  13.543   3.733  0.00  0.00    +0.025 A 
ATOM     12  C   UNL     1       8.291  12.745   3.068  0.00  0.00    +0.025 A 
BRANCH  10  13
ATOM     13  N   UNL     1      10.171  14.344   5.795  0.00  0.00    -0.286 N 
ATOM     14  C   UNL     1      10.747  13.907   6.932  0.00  0.00    +0.214 C 
ATOM     15  O   UNL     1      10.405  12.849   7.417  0.00  0.00    -0.276 OA
ATOM     16  C   UNL     1      11.815  14.732   7.602  0.00  0.00    +0.109 C 
ATOM     17  H   UNL     1      10.426  15.337   5.396  0.00  0.00    +0.155 HD
ENDBRANCH  10  13
ENDBRANCH   5   7
ENDBRANCH   2   3
BRANCH   2  18
ATOM     18  S   UNL     1       5.242   7.373   3.471  0.00  0.00    -0.075 S 
BRANCH  18  19
ATOM     19  C   UNL     1       3.998   6.640   2.461  0.00  0.00    +0.173 A 
ATOM     20  N   UNL     1       3.300   7.396   1.638  0.00  0.00    -0.216 NA
ATOM     21  C   UNL     1       2.352   6.871   0.869  0.00  0.00    +0.117 A 
ATOM     22  C   UNL     1       2.056   5.497   0.884  0.00  0.00    +0.080 A 
ATOM     23  C   UNL     1       0.990   5.086  -0.025  0.00  0.00    +0.010 A 
ATOM     24  C   UNL     1       0.381   6.029  -0.783  0.00  0.00    +0.057 A 
ATOM     25  S   UNL     1       1.215   7.535  -0.320  0.00  0.00    -0.076 S 
ATOM     26  C   UNL     1       2.836   4.701   1.778  0.00  0.00    +0.263 A 
ATOM     27  O   UNL     1       2.651   3.499   1.855  0.00  0.00    -0.267 OA
ATOM     28  N   UNL     1       3.777   5.295   2.534  0.00  0.00    -0.290 N 
ATOM     29  C   UNL     1       4.579   4.483   3.453  0.00  0.00    +0.154 C 
BRANCH  23  30
ATOM     30  C   UNL     1       0.580   3.668  -0.113  0.00  0.00    +0.021 A 
ATOM     31  C   UNL     1      -0.676   3.127  -0.042  0.00  0.00    +0.016 A 
ATOM     32  C   UNL     1      -0.815   1.760  -0.156  0.00  0.00    +0.008 A 
ATOM     33  C   UNL     1       0.292   0.995  -0.326  0.00  0.00    +0.046 A 
ATOM     34  S   UNL     1       1.594   2.216  -0.341  0.00  0.00    -0.097 S 
ENDBRANCH  23  30
ENDBRANCH  18  19
ENDBRANCH   2  18
TORSDOF 6
