REMARK  Name = ZINC09410256
REMARK  9 active torsions:
REMARK  status: ('A' for Active; 'I' for Inactive)
REMARK    1  A    between atoms: C_1  and  C_2
REMARK    2  A    between atoms: C_3  and  C_23
REMARK    3  A    between atoms: C_4  and  C_7
REMARK    4  A    between atoms: C_10  and  O_14
REMARK    5  A    between atoms: C_12  and  O_13
REMARK    6  A    between atoms: O_14  and  C_15
REMARK    7  A    between atoms: C_15  and  C_16
REMARK    8  A    between atoms: C_28  and  O_29
REMARK    9  A    between atoms: O_29  and  C_30
REMARK                            x       y       z     vdW  Elec       q    Type
REMARK                         _______ _______ _______ _____ _____    ______ ____
ROOT
ATOM      1  C   UNL     1       0.083  -4.588   1.858  0.00  0.00    +0.062 A 
ATOM      2  C   UNL     1       0.062  -4.040   0.572  0.00  0.00    +0.019 A 
ATOM      3  C   UNL     1       0.042  -2.673   0.408  0.00  0.00    +0.046 A 
ATOM      4  C   UNL     1       0.041  -1.835   1.517  0.00  0.00    +0.124 A 
ATOM      5  C   UNL     1       0.067  -2.369   2.797  0.00  0.00    +0.091 A 
ATOM      6  C   UNL     1       0.082  -3.741   2.975  0.00  0.00    +0.131 A 
ENDROOT
BRANCH   1  10
ATOM      7  C   UNL     1       0.147  -9.633   1.190  0.00  0.00    +0.070 C 
ATOM      8  C   UNL     1       0.133  -8.241   1.766  0.00  0.00    +0.089 A 
ATOM      9  C   UNL     1       0.108  -7.021   1.040  0.00  0.00    +0.055 A 
ATOM     10  C   UNL     1       0.105  -6.051   2.038  0.00  0.00    +0.179 A 
ATOM     11  O   UNL     1       0.131  -6.726   3.203  0.00  0.00    -0.354 OA
ATOM     12  N   UNL     1       0.142  -7.921   3.027  0.00  0.00    -0.082 NA
BRANCH   9  13
ATOM     13  C   UNL     1       0.091  -6.827  -0.429  0.00  0.00    +0.029 A 
ATOM     14  C   UNL     1       1.288  -6.718  -1.135  0.00  0.00    +0.012 A 
ATOM     15  C   UNL     1       1.266  -6.538  -2.503  0.00  0.00    +0.001 A 
ATOM     16  C   UNL     1       0.060  -6.465  -3.177  0.00  0.00    +0.004 A 
ATOM     17  C   UNL     1      -1.133  -6.571  -2.487  0.00  0.00    +0.046 A 
ATOM     18  C   UNL     1      -1.126  -6.758  -1.114  0.00  0.00    +0.128 A 
BRANCH  18  19
ATOM     19  O   UNL     1      -2.298  -6.868  -0.435  0.00  0.00    -0.495 OA
ATOM     20  C   UNL     1      -3.502  -6.788  -1.202  0.00  0.00    +0.277 C 
ENDBRANCH  18  19
ENDBRANCH   9  13
ENDBRANCH   1  10
BRANCH   6  21
ATOM     21  O   UNL     1       0.102  -4.265   4.228  0.00  0.00    -0.506 OA
ATOM     22  H   UNL     1       0.991  -4.405   4.582  0.00  0.00    +0.292 HD
ENDBRANCH   6  21
BRANCH   4  23
ATOM     23  O   UNL     1       0.021  -0.488   1.347  0.00  0.00    -0.487 OA
BRANCH  23  24
ATOM     24  C   UNL     1       0.002  -0.004   0.002  0.00  0.00    +0.264 C 
BRANCH  24  25
ATOM     25  C   UNL     1      -0.018   1.503   0.010  0.00  0.00    -0.009 A 
ATOM     26  C   UNL     1       1.170   2.210   0.003  0.00  0.00    +0.007 A 
ATOM     27  C   UNL     1       1.152   3.592   0.009  0.00  0.00    +0.002 A 
ATOM     28  C   UNL     1      -0.054   4.268   0.024  0.00  0.00    +0.020 A 
ATOM     29  C   UNL     1      -1.243   3.561   0.032  0.00  0.00    +0.041 A 
ATOM     30  C   UNL     1      -1.224   2.177   0.020  0.00  0.00    +0.027 A 
ATOM     31 CL   UNL     1      -2.758   4.409   0.050  0.00  0.00    -0.084 Cl
ENDBRANCH  24  25
ENDBRANCH  23  24
ENDBRANCH   4  23
TORSDOF 7
