REMARK  Name = ZINC14252948
REMARK  3 active torsions:
REMARK  status: ('A' for Active; 'I' for Inactive)
REMARK    1  A    between atoms: C_6  and  C_7
REMARK    2  A    between atoms: C_9  and  S_13
REMARK    3  A    between atoms: S_13  and  C_14
REMARK                            x       y       z     vdW  Elec       q    Type
REMARK                         _______ _______ _______ _____ _____    ______ ____
ROOT
ATOM      1  C   UNL     1      -1.766  -5.122   0.009  0.00  0.00    +0.116 A 
ATOM      2  C   UNL     1      -1.858  -6.542   0.002  0.00  0.00    +0.043 A 
ATOM      3  C   UNL     1      -3.063  -7.379   0.003  0.00  0.00    -0.025 A 
ATOM      4  C   UNL     1      -2.873  -8.714  -0.002  0.00  0.00    -0.004 A 
ATOM      5  S   UNL     1      -1.113  -8.934  -0.020  0.00  0.00    -0.073 S 
ATOM      6  C   UNL     1      -0.629  -7.229  -0.009  0.00  0.00    +0.113 A 
ATOM      7  N   UNL     1       0.522  -6.584  -0.010  0.00  0.00    -0.228 NA
ATOM      8  C   UNL     1       0.545  -5.265  -0.002  0.00  0.00    +0.223 A 
ATOM      9  N   UNL     1      -0.570  -4.556   0.001  0.00  0.00    -0.228 NA
ATOM     10  C   UNL     1      -3.915  -9.789   0.016  0.00  0.00    +0.043 C 
ATOM     11  C   UNL     1      -4.970  -9.492  -1.058  0.00  0.00    +0.005 C 
ATOM     12  C   UNL     1      -6.062  -8.631  -0.433  0.00  0.00    +0.001 C 
ATOM     13  C   UNL     1      -5.460  -7.712   0.628  0.00  0.00    +0.005 C 
ATOM     14  C   UNL     1      -4.456  -6.755  -0.002  0.00  0.00    +0.037 C 
ENDROOT
BRANCH   1  15
ATOM     15  S   UNL     1      -3.224  -4.132   0.021  0.00  0.00    -0.030 S 
BRANCH  15  18
ATOM     16  C   UNL     1      -1.260  -0.783   0.010  0.00  0.00    +0.182 A 
ATOM     17  N   UNL     1      -1.351  -2.121   0.009  0.00  0.00    -0.201 NA
ATOM     18  C   UNL     1      -2.616  -2.479   0.019  0.00  0.00    +0.191 A 
ATOM     19  N   UNL     1      -3.369  -1.356   0.026  0.00  0.00    -0.253 N 
ATOM     20  H   UNL     1      -4.337  -1.307   0.034  0.00  0.00    +0.191 HD
ATOM     21  N   UNL     1      -2.472  -0.275   0.026  0.00  0.00    -0.152 NA
BRANCH  16  27
ATOM     22  C   UNL     1      -0.017   1.393   0.010  0.00  0.00    +0.031 A 
ATOM     23  C   UNL     1       1.180   2.079   0.002  0.00  0.00    +0.111 A 
ATOM     24  N   UNL     1       2.331   1.433  -0.013  0.00  0.00    -0.263 NA
ATOM     25  C   UNL     1       2.392   0.115  -0.020  0.00  0.00    +0.111 A 
ATOM     26  C   UNL     1       1.243  -0.647  -0.013  0.00  0.00    +0.031 A 
ATOM     27  C   UNL     1       0.002  -0.004   0.002  0.00  0.00    +0.024 A 
ENDBRANCH  16  27
ENDBRANCH  15  18
ENDBRANCH   1  15
TORSDOF 3
