REMARK  Name = ZINC04066383
REMARK  7 active torsions:
REMARK  status: ('A' for Active; 'I' for Inactive)
REMARK    1  A    between atoms: C_1  and  C_2
REMARK    2  A    between atoms: C_6  and  O_12
REMARK    3  A    between atoms: C_9  and  C_11
REMARK    4  A    between atoms: O_12  and  C_13
REMARK    5  A    between atoms: C_13  and  C_15
REMARK    6  A    between atoms: C_16  and  C_30
REMARK    7  A    between atoms: C_21  and  C_23
REMARK                            x       y       z     vdW  Elec       q    Type
REMARK                         _______ _______ _______ _____ _____    ______ ____
ROOT
ATOM      1  C   UNL     1      -1.863  -6.060   1.700  0.00  0.00    +0.078 C 
ATOM      2  C   UNL     1      -2.687  -6.697   2.560  0.00  0.00    +0.021 C 
ATOM      3  N   UNL     1      -2.589  -8.043   2.763  0.00  0.00    -0.273 N 
ATOM      4  C   UNL     1      -1.695  -8.825   2.146  0.00  0.00    +0.304 C 
ATOM      5  O   UNL     1      -1.684 -10.015   2.392  0.00  0.00    -0.252 OA
ATOM      6  N   UNL     1      -0.805  -8.335   1.260  0.00  0.00    -0.288 N 
ATOM      7  C   UNL     1      -0.832  -6.892   0.965  0.00  0.00    +0.143 C 
ATOM      8  C   UNL     1      -3.730  -5.907   3.308  0.00  0.00    +0.061 C 
ATOM      9  H   UNL     1      -3.203  -8.457   3.391  0.00  0.00    +0.156 HD
ATOM     10  H   UNL     1      -0.165  -8.919   0.824  0.00  0.00    +0.151 HD
ENDROOT
BRANCH   7  11
ATOM     11  C   UNL     1       0.530  -6.333   1.284  0.00  0.00    -0.022 A 
ATOM     12  C   UNL     1       1.149  -6.658   2.477  0.00  0.00    +0.007 A 
ATOM     13  C   UNL     1       2.398  -6.145   2.771  0.00  0.00    +0.020 A 
ATOM     14  C   UNL     1       3.030  -5.306   1.871  0.00  0.00    +0.041 A 
ATOM     15  C   UNL     1       2.411  -4.981   0.677  0.00  0.00    +0.020 A 
ATOM     16  C   UNL     1       1.164  -5.499   0.382  0.00  0.00    +0.007 A 
ATOM     17 CL   UNL     1       4.599  -4.661   2.240  0.00  0.00    -0.084 Cl
ENDBRANCH   7  11
BRANCH   1  18
ATOM     18  C   UNL     1      -1.963  -4.665   1.487  0.00  0.00    +0.339 C 
ATOM     19  O   UNL     1      -2.872  -4.036   1.996  0.00  0.00    -0.245 OA
BRANCH  18  20
ATOM     20  O   UNL     1      -1.050  -4.032   0.721  0.00  0.00    -0.458 OA
BRANCH  20  25
ATOM     21  C   UNL     1      -1.064   1.313  -1.243  0.00  0.00    +0.008 C 
ATOM     22  C   UNL     1      -0.890  -0.196  -1.059  0.00  0.00    -0.011 C 
ATOM     23  C   UNL     1      -2.260  -0.847  -0.861  0.00  0.00    +0.007 C 
ATOM     24  C   UNL     1      -2.087  -2.356  -0.678  0.00  0.00    +0.045 C 
ATOM     25  C   UNL     1      -1.213  -2.623   0.550  0.00  0.00    +0.177 C 
ATOM     26  C   UNL     1       0.158  -1.972   0.351  0.00  0.00    +0.048 C 
ATOM     27  C   UNL     1      -0.016  -0.463   0.168  0.00  0.00    -0.008 C 
ATOM     28  C   UNL     1      -0.687   0.128   1.410  0.00  0.00    +0.008 C 
ENDBRANCH  20  25
ENDBRANCH  18  20
ENDBRANCH   1  18
TORSDOF 4
