REMARK  Name = ZINC13495965
REMARK  11 active torsions:
REMARK  status: ('A' for Active; 'I' for Inactive)
REMARK    1  A    between atoms: C_1  and  C_2
REMARK    2  A    between atoms: C_2  and  C_3
REMARK    3  A    between atoms: C_3  and  C_5
REMARK    4  A    between atoms: C_3  and  N_72
REMARK    5  A    between atoms: N_9  and  C_10
REMARK    6  A    between atoms: C_15  and  C_16
REMARK    7  A    between atoms: C_15  and  N_72
REMARK    8  A    between atoms: C_16  and  C_17
REMARK    9  A    between atoms: C_21  and  C_23
REMARK   10  A    between atoms: C_24  and  C_25
REMARK   11  A    between atoms: C_24  and  N_72
REMARK                            x       y       z     vdW  Elec       q    Type
REMARK                         _______ _______ _______ _____ _____    ______ ____
ROOT
ATOM      1  N   UNL     1      -5.465   0.781   1.770  0.00  0.00    +0.389 N 
ATOM      2  H   UNL     1      -4.854   0.363   2.480  0.00  0.00    -0.080 HD
ENDROOT
BRANCH   1   3
ATOM      3  C   UNL     1      -6.745   0.043   1.742  0.00  0.00    +0.003 C 
BRANCH   3   4
ATOM      4  C   UNL     1      -6.469  -1.409   2.035  0.00  0.00    +0.138 A 
ATOM      5  N   UNL     1      -5.479  -2.128   1.564  0.00  0.00    -0.115 NA
ATOM      6  N   UNL     1      -5.587  -3.318   2.045  0.00  0.00    -0.023 NA
ATOM      7  N   UNL     1      -6.619  -3.377   2.812  0.00  0.00    -0.044 NA
ATOM      8  N   UNL     1      -7.187  -2.219   2.835  0.00  0.00    -0.228 N 
BRANCH   8   9
ATOM      9  C   UNL     1      -8.389  -1.854   3.589  0.00  0.00    +0.111 C 
ATOM     10  C   UNL     1      -8.169  -2.114   5.093  0.00  0.00    +0.027 C 
ATOM     11  C   UNL     1      -9.541  -2.630   5.594  0.00  0.00    +0.002 C 
ATOM     12  C   UNL     1     -10.028  -3.508   4.414  0.00  0.00    +0.002 C 
ATOM     13  C   UNL     1      -9.571  -2.740   3.157  0.00  0.00    +0.027 C 
ENDBRANCH   8   9
ENDBRANCH   3   4
BRANCH   3  15
ATOM     14  C   UNL     1      -7.815   1.625   0.131  0.00  0.00    +0.002 C 
ATOM     15  C   UNL     1      -7.406   0.170   0.368  0.00  0.00    -0.011 C 
ENDBRANCH   3  15
ENDBRANCH   1   3
BRANCH   1  16
ATOM     16  C   UNL     1      -5.707   2.198   2.118  0.00  0.00    -0.073 C 
BRANCH  16  17
ATOM     17  C   UNL     1      -6.187   2.274   3.568  0.00  0.00    +0.016 C 
BRANCH  17  18
ATOM     18  C   UNL     1      -6.299   3.718   3.985  0.00  0.00    -0.049 A 
ATOM     19  C   UNL     1      -5.216   4.359   4.558  0.00  0.00    +0.003 A 
ATOM     20  C   UNL     1      -5.319   5.684   4.936  0.00  0.00    +0.001 A 
ATOM     21  C   UNL     1      -6.506   6.367   4.749  0.00  0.00    +0.003 A 
ATOM     22  C   UNL     1      -7.590   5.725   4.180  0.00  0.00    -0.050 A 
ATOM     23  C   UNL     1      -7.487   4.401   3.799  0.00  0.00    +0.007 A 
ATOM     24  C   UNL     1      -8.885   6.470   3.977  0.00  0.00    +0.044 C 
ENDBRANCH  17  18
ENDBRANCH  16  17
ENDBRANCH   1  16
BRANCH   1  25
ATOM     25  C   UNL     1      -4.802   0.691   0.452  0.00  0.00    -0.037 C 
BRANCH  25  26
ATOM     26  C   UNL     1      -3.375   1.153   0.596  0.00  0.00    +0.001 A 
ATOM     27  C   UNL     1      -2.390   0.246   0.819  0.00  0.00    +0.017 A 
ATOM     28  C   UNL     1      -1.014   0.725   0.950  0.00  0.00    +0.002 A 
ATOM     29  C   UNL     1       0.041  -0.165   1.188  0.00  0.00    +0.059 A 
ATOM     30  C   UNL     1       1.325   0.316   1.314  0.00  0.00    +0.167 A 
ATOM     31  C   UNL     1       1.577   1.690   1.208  0.00  0.00    +0.168 A 
ATOM     32  C   UNL     1       0.541   2.576   0.977  0.00  0.00    +0.075 A 
ATOM     33  C   UNL     1      -0.760   2.106   0.850  0.00  0.00    +0.053 A 
ATOM     34  N   UNL     1      -1.807   2.976   0.621  0.00  0.00    -0.322 N 
ATOM     35  H   UNL     1      -1.631   3.927   0.548  0.00  0.00    +0.169 HD
ATOM     36  C   UNL     1      -3.067   2.525   0.498  0.00  0.00    +0.251 A 
ATOM     37  O   UNL     1      -3.967   3.323   0.297  0.00  0.00    -0.268 OA
ATOM     38  O   UNL     1       2.916   1.897   1.368  0.00  0.00    -0.453 OA
ATOM     39  C   UNL     1       3.422   0.697   1.980  0.00  0.00    +0.466 C 
ATOM     40  O   UNL     1       2.509  -0.326   1.540  0.00  0.00    -0.453 OA
ENDBRANCH  25  26
ENDBRANCH   1  25
TORSDOF 9
