REMARK  Name = ZINC11730456
REMARK  6 active torsions:
REMARK  status: ('A' for Active; 'I' for Inactive)
REMARK    1  A    between atoms: C_1  and  C_2
REMARK    2  A    between atoms: C_5  and  S_8
REMARK    3  A    between atoms: S_8  and  C_11
REMARK    4  A    between atoms: C_12  and  C_23
REMARK    5  A    between atoms: N_13  and  C_16
REMARK    6  A    between atoms: C_19  and  N_22
REMARK                            x       y       z     vdW  Elec       q    Type
REMARK                         _______ _______ _______ _____ _____    ______ ____
ROOT
ATOM      1  C   UNL     1      -4.477   0.423   0.392  0.00  0.00    +0.226 A 
ATOM      2  C   UNL     1      -3.574   1.395   0.662  0.00  0.00    +0.088 A 
ATOM      3  N   UNL     1      -2.430   1.035   0.019  0.00  0.00    -0.215 N 
ATOM      4  N   UNL     1      -2.645  -0.082  -0.584  0.00  0.00    -0.059 NA
ATOM      5  N   UNL     1      -3.853  -0.472  -0.381  0.00  0.00    -0.110 NA
ATOM      6  C   UNL     1      -3.792   2.627   1.503  0.00  0.00    +0.069 C 
ENDROOT
BRANCH   3   7
ATOM      7  C   UNL     1      -1.224   1.754   0.017  0.00  0.00    +0.067 A 
ATOM      8  C   UNL     1      -0.013   1.076   0.008  0.00  0.00    +0.029 A 
ATOM      9  C   UNL     1       1.173   1.782   0.000  0.00  0.00    +0.025 A 
ATOM     10  C   UNL     1       1.154   3.171   0.008  0.00  0.00    +0.025 A 
ATOM     11  C   UNL     1      -0.058   3.849   0.023  0.00  0.00    +0.025 A 
ATOM     12  C   UNL     1      -1.244   3.142   0.031  0.00  0.00    +0.029 A 
BRANCH  10  13
ATOM     13  N   UNL     1       2.355   3.887   0.000  0.00  0.00    -0.358 N 
ATOM     14  H   UNL     1       3.202   3.413  -0.011  0.00  0.00    +0.142 HD
ATOM     15  H   UNL     1       2.342   4.857   0.005  0.00  0.00    +0.142 HD
ENDBRANCH  10  13
ENDBRANCH   3   7
BRANCH   1  16
ATOM     16  S   UNL     1      -6.145   0.349   0.955  0.00  0.00    +0.046 S 
ATOM     17  O   UNL     1      -6.538   1.685   1.237  0.00  0.00    -0.163 OA
ATOM     18  O   UNL     1      -6.848  -0.474   0.034  0.00  0.00    -0.163 OA
BRANCH  16  23
ATOM     19  C   UNL     1      -6.120  -2.589   6.225  0.00  0.00    +0.044 C 
ATOM     20  C   UNL     1      -6.127  -1.855   4.909  0.00  0.00    -0.050 A 
ATOM     21  C   UNL     1      -5.981  -0.481   4.883  0.00  0.00    +0.005 A 
ATOM     22  C   UNL     1      -5.986   0.192   3.675  0.00  0.00    +0.028 A 
ATOM     23  C   UNL     1      -6.138  -0.509   2.494  0.00  0.00    +0.095 A 
ATOM     24  C   UNL     1      -6.290  -1.883   2.520  0.00  0.00    +0.028 A 
ATOM     25  C   UNL     1      -6.280  -2.556   3.727  0.00  0.00    +0.005 A 
ENDBRANCH  16  23
ENDBRANCH   1  16
TORSDOF 4
