REMARK  Name = ZINC15503819
REMARK  4 active torsions:
REMARK  status: ('A' for Active; 'I' for Inactive)
REMARK    1  A    between atoms: C_5  and  C_7
REMARK    2  A    between atoms: N_9  and  N_10
REMARK    3  A    between atoms: N_10  and  C_11
REMARK    4  A    between atoms: C_16  and  N_17
REMARK                            x       y       z     vdW  Elec       q    Type
REMARK                         _______ _______ _______ _____ _____    ______ ____
ROOT
ATOM      1  C   UNL     1      -2.511   4.029   0.238  0.00  0.00    +0.261 C 
ATOM      2  O   UNL     1      -3.540   3.388   0.151  0.00  0.00    -0.269 OA
ATOM      3  N   UNL     1      -1.320   3.400   0.205  0.00  0.00    -0.232 N 
ATOM      4  H   UNL     1      -0.499   3.911   0.275  0.00  0.00    +0.173 HD
ENDROOT
BRANCH   1   9
ATOM      5  C   UNL     1      -1.446   7.610   0.616  0.00  0.00    +0.001 A 
ATOM      6  C   UNL     1      -2.670   8.254   0.650  0.00  0.00    +0.001 A 
ATOM      7  C   UNL     1      -3.843   7.528   0.550  0.00  0.00    +0.015 A 
ATOM      8  C   UNL     1      -3.799   6.154   0.416  0.00  0.00    +0.026 A 
ATOM      9  C   UNL     1      -2.567   5.499   0.381  0.00  0.00    +0.051 A 
ATOM     10  C   UNL     1      -1.387   6.238   0.487  0.00  0.00    +0.014 A 
ATOM     11  I   UNL     1      -5.577   5.056   0.266  0.00  0.00    -0.043 I 
ENDBRANCH   1   9
BRANCH   3  12
ATOM     12  N   UNL     1      -1.268   2.006   0.069  0.00  0.00    -0.262 N 
ATOM     13  H   UNL     1      -2.089   1.494  -0.001  0.00  0.00    +0.170 HD
BRANCH  12  14
ATOM     14  C   UNL     1      -0.033   1.354   0.035  0.00  0.00    +0.075 A 
ATOM     15  C   UNL     1       1.139   2.070   0.246  0.00  0.00    +0.027 A 
ATOM     16  C   UNL     1       2.358   1.423   0.205  0.00  0.00    +0.002 A 
ATOM     17  C   UNL     1       2.413   0.064  -0.045  0.00  0.00    +0.002 A 
ATOM     18  C   UNL     1       1.249  -0.652  -0.256  0.00  0.00    +0.034 A 
ATOM     19  C   UNL     1       0.026  -0.011  -0.217  0.00  0.00    +0.148 A 
BRANCH  19  20
ATOM     20  N   UNL     1      -1.220  -0.778  -0.443  0.00  0.00    +0.058 N 
ATOM     21  O   UNL     1      -1.315  -1.920  -0.031  0.00  0.00    -0.126 OA
ATOM     22  O   UNL     1      -2.150  -0.266  -1.041  0.00  0.00    -0.126 OA
ENDBRANCH  19  20
ENDBRANCH  12  14
ENDBRANCH   3  12
TORSDOF 4
