REMARK  Name = ZINC39372978
REMARK  10 active torsions:
REMARK  status: ('A' for Active; 'I' for Inactive)
REMARK    1  A    between atoms: C_1  and  C_2
REMARK    2  A    between atoms: C_2  and  C_3
REMARK    3  A    between atoms: C_2  and  C_4
REMARK    4  A    between atoms: C_2  and  C_5
REMARK    5  A    between atoms: N_7  and  C_8
REMARK    6  A    between atoms: C_11  and  C_14
REMARK    7  A    between atoms: C_25  and  C_27
REMARK    8  A    between atoms: C_27  and  C_28
REMARK    9  A    between atoms: C_27  and  C_29
REMARK   10  A    between atoms: C_27  and  C_30
REMARK                            x       y       z     vdW  Elec       q    Type
REMARK                         _______ _______ _______ _____ _____    ______ ____
ROOT
ATOM      1  C   UNL     1       4.190  -3.545  -6.140  0.00  0.00    +0.218 C 
ATOM      2  N   UNL     1       3.736  -4.820  -6.702  0.00  0.00    -0.360 N 
ATOM      3  C   UNL     1       3.244  -4.609  -7.888  0.00  0.00    +0.060 C 
ATOM      4  C   UNL     1       2.656  -5.533  -8.880  0.00  0.00    +0.029 C 
ATOM      5  C   UNL     1       2.214  -5.047 -10.052  0.00  0.00    +0.025 C 
ATOM      6  C   UNL     1       2.312  -3.614 -10.348  0.00  0.00    +0.035 C 
ATOM      7  C   UNL     1       2.870  -2.720  -9.415  0.00  0.00    +0.050 C 
ATOM      8  C   UNL     1       3.329  -3.168  -8.216  0.00  0.00    +0.075 C 
ATOM      9  N   UNL     1       3.909  -2.515  -7.148  0.00  0.00    -0.220 NA
ATOM     10  N   UNL     1       1.868  -3.151 -11.519  0.00  0.00    -0.285 N 
ATOM     11  C   UNL     1       1.235  -3.966 -12.359  0.00  0.00    +0.223 C 
ATOM     12  O   UNL     1       0.250  -4.576 -11.990  0.00  0.00    -0.275 OA
ATOM     13  H   UNL     1       2.006  -2.221 -11.757  0.00  0.00    +0.155 HD
ATOM     14  H   UNL     1       3.794  -5.682  -6.261  0.00  0.00    +0.162 HD
ENDROOT
BRANCH   1  18
ATOM     15  C   UNL     1       2.054  -2.691  -2.539  0.00  0.00    +0.033 A 
ATOM     16  C   UNL     1       2.503  -1.653  -3.344  0.00  0.00    +0.024 A 
ATOM     17  C   UNL     1       3.193  -1.932  -4.508  0.00  0.00    +0.009 A 
ATOM     18  C   UNL     1       3.437  -3.244  -4.870  0.00  0.00    -0.006 A 
ATOM     19  C   UNL     1       2.991  -4.280  -4.071  0.00  0.00    +0.009 A 
ATOM     20  C   UNL     1       2.305  -4.007  -2.903  0.00  0.00    +0.024 A 
BRANCH  15  23
ATOM     21  C   UNL     1       1.522  -3.194  -0.275  0.00  0.00    +0.223 C 
ATOM     22  O   UNL     1       2.214  -4.187  -0.345  0.00  0.00    -0.275 OA
ATOM     23  N   UNL     1       1.355  -2.411  -1.359  0.00  0.00    -0.285 N 
ATOM     24  H   UNL     1       0.749  -1.654  -1.323  0.00  0.00    +0.155 HD
BRANCH  21  26
ATOM     25  C   UNL     1       1.199  -3.879   2.086  0.00  0.00    +0.020 C 
ATOM     26  C   UNL     1       0.848  -2.835   1.024  0.00  0.00    +0.039 C 
ATOM     27  C   UNL     1      -0.668  -2.804   0.821  0.00  0.00    +0.020 C 
ATOM     28  C   UNL     1       1.329  -1.457   1.485  0.00  0.00    +0.020 C 
ENDBRANCH  21  26
ENDBRANCH  15  23
ENDBRANCH   1  18
BRANCH  11  29
ATOM     29  C   UNL     1       1.740  -4.134 -13.769  0.00  0.00    +0.039 C 
ATOM     30  C   UNL     1       0.840  -5.118 -14.520  0.00  0.00    +0.020 C 
ATOM     31  C   UNL     1       1.721  -2.780 -14.482  0.00  0.00    +0.020 C 
ATOM     32  C   UNL     1       3.171  -4.674 -13.738  0.00  0.00    +0.020 C 
ENDBRANCH  11  29
TORSDOF 4
