REMARK  Name = ZINC16957061
REMARK  9 active torsions:
REMARK  status: ('A' for Active; 'I' for Inactive)
REMARK    1  A    between atoms: C_1  and  O_2
REMARK    2  A    between atoms: O_2  and  C_3
REMARK    3  A    between atoms: C_3  and  C_5
REMARK    4  A    between atoms: C_11  and  C_24
REMARK    5  A    between atoms: C_12  and  C_19
REMARK    6  A    between atoms: C_14  and  C_17
REMARK    7  A    between atoms: C_15  and  N_16
REMARK    8  A    between atoms: N_26  and  C_27
REMARK    9  A    between atoms: C_27  and  C_28
REMARK                            x       y       z     vdW  Elec       q    Type
REMARK                         _______ _______ _______ _____ _____    ______ ____
ROOT
ATOM      1  C   UNL     1      -1.297   1.923   0.292  0.00  0.00    +0.112 C 
ATOM      2  C   UNL     1      -2.463   1.229   0.222  0.00  0.00    +0.086 A 
ATOM      3  C   UNL     1      -3.856   1.731   0.163  0.00  0.00    +0.272 A 
ATOM      4  O   UNL     1      -4.091   2.922   0.173  0.00  0.00    -0.266 OA
ATOM      5  N   UNL     1      -4.854   0.826   0.098  0.00  0.00    -0.257 N 
ATOM      6  C   UNL     1      -4.510  -0.511   0.090  0.00  0.00    +0.099 A 
ATOM      7  C   UNL     1      -5.404  -1.529   0.028  0.00  0.00    +0.058 C 
ATOM      8  C   UNL     1      -6.879  -1.189  -0.038  0.00  0.00    +0.107 C 
ATOM      9  C   UNL     1      -7.215   0.288  -0.028  0.00  0.00    +0.080 C 
ATOM     10  C   UNL     1      -6.206   1.184   0.038  0.00  0.00    +0.119 C 
ATOM     11  S   UNL     1      -2.731  -0.536   0.169  0.00  0.00    -0.065 S 
ENDROOT
BRANCH   8  12
ATOM     12  C   UNL     1      -7.566  -1.837   1.137  0.00  0.00    +0.003 A 
ATOM     13  C   UNL     1      -8.565  -2.753   1.143  0.00  0.00    +0.012 A 
ATOM     14  C   UNL     1      -9.044  -3.213   2.355  0.00  0.00    +0.008 A 
ATOM     15  C   UNL     1      -8.501  -2.735   3.501  0.00  0.00    +0.045 A 
ATOM     16  S   UNL     1      -7.268  -1.603   2.881  0.00  0.00    -0.101 S 
ENDBRANCH   8  12
BRANCH   7  17
ATOM     17  C   UNL     1      -4.971  -2.869   0.024  0.00  0.00    +0.244 C 
ATOM     18  O   UNL     1      -3.781  -3.126   0.077  0.00  0.00    -0.270 OA
ATOM     19  N   UNL     1      -5.874  -3.869  -0.038  0.00  0.00    -0.307 N 
ATOM     20  H   UNL     1      -6.821  -3.664  -0.081  0.00  0.00    +0.149 HD
BRANCH  19  21
ATOM     21  C   UNL     1      -5.424  -5.263  -0.042  0.00  0.00    +0.139 C 
BRANCH  21  22
ATOM     22  C   UNL     1      -6.620  -6.176  -0.117  0.00  0.00    -0.030 A 
ATOM     23  C   UNL     1      -7.223  -6.622   1.044  0.00  0.00    +0.005 A 
ATOM     24  C   UNL     1      -8.323  -7.457   0.975  0.00  0.00    +0.000 A 
ATOM     25  C   UNL     1      -8.814  -7.853  -0.256  0.00  0.00    +0.000 A 
ATOM     26  C   UNL     1      -8.207  -7.411  -1.417  0.00  0.00    +0.000 A 
ATOM     27  C   UNL     1      -7.110  -6.573  -1.347  0.00  0.00    +0.005 A 
ENDBRANCH  21  22
ENDBRANCH  19  21
ENDBRANCH   7  17
BRANCH  10  28
ATOM     28  N   UNL     1      -6.525   2.520   0.047  0.00  0.00    -0.343 N 
ATOM     29  H   UNL     1      -5.898   3.170  -0.308  0.00  0.00    +0.144 HD
ATOM     30  H   UNL     1      -7.376   2.813   0.408  0.00  0.00    +0.144 HD
ENDBRANCH  10  28
BRANCH   1  31
ATOM     31  C   UNL     1      -0.022   1.208   0.342  0.00  0.00    +0.333 C 
ATOM     32  O   UNL     1      -0.005  -0.008   0.320  0.00  0.00    -0.246 OA
BRANCH  31  34
ATOM     33  C   UNL     1       2.344   1.135   0.445  0.00  0.00    +0.280 C 
ATOM     34  O   UNL     1       1.136   1.898   0.405  0.00  0.00    -0.465 OA
ENDBRANCH  31  34
ENDBRANCH   1  31
BRANCH   9  35
ATOM     35  C   UNL     1      -8.577   0.727  -0.087  0.00  0.00    +0.099 C 
ATOM     36  N   UNL     1      -9.658   1.075  -0.133  0.00  0.00    -0.191 NA
ENDBRANCH   9  35
TORSDOF 8
