REMARK  Name = ZINC09331910
REMARK  4 active torsions:
REMARK  status: ('A' for Active; 'I' for Inactive)
REMARK    1  A    between atoms: C_1  and  C_2
REMARK    2  A    between atoms: C_12  and  C_29
REMARK    3  A    between atoms: C_29  and  C_31
REMARK    4  A    between atoms: C_35  and  N_37
REMARK                            x       y       z     vdW  Elec       q    Type
REMARK                         _______ _______ _______ _____ _____    ______ ____
ROOT
ATOM      1  C   UNL     1       0.374  -5.115  -2.827  0.00  0.00    +0.045 C 
ATOM      2  C   UNL     1       0.491  -3.615  -2.752  0.00  0.00    -0.029 A 
ATOM      3  C   UNL     1      -0.078  -2.830  -3.734  0.00  0.00    +0.005 A 
ATOM      4  C   UNL     1       0.025  -1.453  -3.673  0.00  0.00    +0.001 A 
ATOM      5  C   UNL     1       0.701  -0.858  -2.622  0.00  0.00    +0.004 A 
ATOM      6  C   UNL     1       1.269  -1.637  -1.640  0.00  0.00    -0.027 A 
ATOM      7  C   UNL     1       1.173  -3.024  -1.691  0.00  0.00    +0.039 A 
ATOM      8  N   UNL     1       1.824  -3.593  -0.595  0.00  0.00    -0.286 N 
ATOM      9  C   UNL     1       2.366  -2.663   0.213  0.00  0.00    +0.212 C 
ATOM     10  O   UNL     1       2.987  -2.868   1.235  0.00  0.00    -0.277 OA
ATOM     11  C   UNL     1       2.052  -1.318  -0.394  0.00  0.00    +0.052 C 
ATOM     12  C   UNL     1       3.346  -0.570  -0.740  0.00  0.00    +0.080 C 
ATOM     13  C   UNL     1       3.471   0.491   0.361  0.00  0.00    +0.071 C 
ATOM     14  C   UNL     1       4.111   1.749  -0.151  0.00  0.00    -0.012 A 
ATOM     15  C   UNL     1       3.786   2.641  -1.150  0.00  0.00    +0.006 A 
ATOM     16  C   UNL     1       4.595   3.737  -1.389  0.00  0.00    +0.000 A 
ATOM     17  C   UNL     1       5.730   3.935  -0.624  0.00  0.00    +0.002 A 
ATOM     18  C   UNL     1       6.060   3.045   0.377  0.00  0.00    +0.023 A 
ATOM     19  C   UNL     1       5.250   1.939   0.625  0.00  0.00    +0.038 A 
ATOM     20  N   UNL     1       5.370   0.913   1.566  0.00  0.00    -0.285 N 
ATOM     21  C   UNL     1       4.363   0.022   1.477  0.00  0.00    +0.227 C 
ATOM     22  O   UNL     1       4.207  -0.965   2.164  0.00  0.00    -0.275 OA
ATOM     23  C   UNL     1       2.040   0.737   0.847  0.00  0.00    -0.046 C 
ATOM     24  C   UNL     1      -0.025  -0.110  -0.047  0.00  0.00    -0.076 C 
ATOM     25  C   UNL     1      -0.093   1.432  -0.035  0.00  0.00    -0.020 C 
ATOM     26  C   UNL     1       1.401   1.847  -0.024  0.00  0.00    -0.016 C 
ATOM     27  H   UNL     1       1.879  -4.548  -0.434  0.00  0.00    +0.155 HD
ATOM     28  H   UNL     1       6.093   0.851   2.209  0.00  0.00    +0.155 HD
ATOM     29  N   UNL     1       1.282  -0.486   0.544  0.00  0.00    +0.395 N 
ATOM     30  H   UNL     1       1.122  -1.014   1.410  0.00  0.00    -0.079 HD
ENDROOT
BRANCH  12  31
ATOM     31  C   UNL     1       3.232   0.084  -2.093  0.00  0.00    +0.167 C 
ATOM     32  O   UNL     1       2.335   0.870  -2.313  0.00  0.00    -0.292 OA
BRANCH  31  33
ATOM     33  C   UNL     1       4.209  -0.231  -3.148  0.00  0.00    +0.020 A 
ATOM     34  C   UNL     1       5.245  -1.137  -2.898  0.00  0.00    +0.011 A 
ATOM     35  C   UNL     1       6.156  -1.427  -3.892  0.00  0.00    +0.003 A 
ATOM     36  C   UNL     1       6.048  -0.824  -5.133  0.00  0.00    +0.033 A 
ATOM     37  C   UNL     1       5.025   0.073  -5.388  0.00  0.00    +0.127 A 
ATOM     38  C   UNL     1       4.103   0.370  -4.406  0.00  0.00    +0.044 A 
BRANCH  37  39
ATOM     39  N   UNL     1       4.918   0.712  -6.718  0.00  0.00    +0.056 N 
ATOM     40  O   UNL     1       5.730   0.448  -7.587  0.00  0.00    -0.126 OA
ATOM     41  O   UNL     1       4.019   1.502  -6.944  0.00  0.00    -0.126 OA
ENDBRANCH  37  39
ENDBRANCH  31  33
ENDBRANCH  12  31
TORSDOF 3
