REMARK  Name = ZINC32985905
REMARK  12 active torsions:
REMARK  status: ('A' for Active; 'I' for Inactive)
REMARK    1  A    between atoms: C_1  and  C_2
REMARK    2  A    between atoms: C_5  and  C_8
REMARK    3  A    between atoms: C_8  and  N_9
REMARK    4  A    between atoms: C_11  and  C_16
REMARK    5  A    between atoms: N_18  and  C_19
REMARK    6  A    between atoms: N_18  and  C_23
REMARK    7  A    between atoms: C_19  and  C_20
REMARK    8  A    between atoms: C_20  and  C_21
REMARK    9  A    between atoms: C_20  and  C_22
REMARK   10  A    between atoms: C_24  and  N_39
REMARK   11  A    between atoms: N_25  and  C_32
REMARK   12  A    between atoms: C_32  and  C_33
REMARK                            x       y       z     vdW  Elec       q    Type
REMARK                         _______ _______ _______ _____ _____    ______ ____
ROOT
ATOM      1  C   UNL     1      -2.361  -3.452  -3.925  0.00  0.00    +0.225 C 
ATOM      2  O   UNL     1      -2.831  -4.535  -3.647  0.00  0.00    -0.275 OA
ATOM      3  N   UNL     1      -2.521  -2.946  -5.165  0.00  0.00    -0.264 N 
ENDROOT
BRANCH   3   4
ATOM      4  C   UNL     1      -3.311  -3.633  -6.111  0.00  0.00    +0.140 A 
ATOM      5  C   UNL     1      -2.973  -4.908  -6.514  0.00  0.00    +0.128 A 
ATOM      6  N   UNL     1      -3.765  -5.554  -7.435  0.00  0.00    -0.276 N 
ATOM      7  C   UNL     1      -4.852  -4.946  -7.943  0.00  0.00    +0.331 A 
ATOM      8  O   UNL     1      -5.537  -5.532  -8.759  0.00  0.00    -0.246 OA
ATOM      9  N   UNL     1      -5.194  -3.701  -7.567  0.00  0.00    -0.273 N 
ATOM     10  H   UNL     1      -6.087  -3.222  -7.996  0.00  0.00    +0.173 HD
ATOM     11  C   UNL     1      -4.455  -3.026  -6.665  0.00  0.00    +0.277 A 
ATOM     12  O   UNL     1      -4.774  -1.898  -6.330  0.00  0.00    -0.266 OA
BRANCH   5  13
ATOM     13  N   UNL     1      -1.860  -5.528  -5.998  0.00  0.00    -0.343 N 
ATOM     14  H   UNL     1      -1.597  -6.545  -6.324  0.00  0.00    +0.144 HD
ATOM     15  H   UNL     1      -1.233  -5.007  -5.259  0.00  0.00    +0.144 HD
ENDBRANCH   5  13
BRANCH   6  16
ATOM     16  C   UNL     1      -3.421  -6.911  -7.867  0.00  0.00    +0.163 C 
BRANCH  16  17
ATOM     17  C   UNL     1      -2.510  -6.840  -9.066  0.00  0.00    -0.028 A 
ATOM     18  C   UNL     1      -3.046  -6.824 -10.341  0.00  0.00    +0.005 A 
ATOM     19  C   UNL     1      -2.211  -6.754 -11.440  0.00  0.00    +0.000 A 
ATOM     20  C   UNL     1      -0.841  -6.710 -11.266  0.00  0.00    +0.000 A 
ATOM     21  C   UNL     1      -0.305  -6.731  -9.992  0.00  0.00    +0.000 A 
ATOM     22  C   UNL     1      -1.140  -6.796  -8.892  0.00  0.00    +0.005 A 
ENDBRANCH  16  17
ENDBRANCH   6  16
ENDBRANCH   3   4
BRANCH   1  25
ATOM     23  N   UNL     1      -1.403  -2.657  -0.496  0.00  0.00    -0.296 N 
ATOM     24  C   UNL     1      -1.286  -3.551  -1.654  0.00  0.00    +0.121 C 
ATOM     25  C   UNL     1      -1.598  -2.672  -2.886  0.00  0.00    +0.101 C 
ATOM     26  C   UNL     1      -2.481  -1.564  -2.267  0.00  0.00    +0.110 C 
ATOM     27  C   UNL     1      -2.079  -1.538  -0.808  0.00  0.00    +0.217 C 
ATOM     28  O   UNL     1      -2.329  -0.638  -0.035  0.00  0.00    -0.276 OA
BRANCH  23  29
ATOM     29  C   UNL     1      -0.858  -2.949   0.832  0.00  0.00    +0.142 C 
BRANCH  29  34
ATOM     30  C   UNL     1       4.541  -0.919   1.188  0.00  0.00    +0.044 C 
ATOM     31  C   UNL     1       3.133  -1.448   1.095  0.00  0.00    -0.050 A 
ATOM     32  C   UNL     1       2.067  -0.645   1.456  0.00  0.00    +0.003 A 
ATOM     33  C   UNL     1       0.776  -1.131   1.370  0.00  0.00    +0.005 A 
ATOM     34  C   UNL     1       0.550  -2.420   0.925  0.00  0.00    -0.030 A 
ATOM     35  C   UNL     1       1.616  -3.223   0.565  0.00  0.00    +0.005 A 
ATOM     36  C   UNL     1       2.907  -2.737   0.650  0.00  0.00    +0.003 A 
ENDBRANCH  29  34
ENDBRANCH  23  29
ENDBRANCH   1  25
BRANCH   3  37
ATOM     37  C   UNL     1      -1.875  -1.682  -5.530  0.00  0.00    +0.117 C 
BRANCH  37  38
ATOM     38  C   UNL     1      -0.434  -1.954  -5.966  0.00  0.00    +0.001 C 
ATOM     39  C   UNL     1      -0.438  -2.785  -7.251  0.00  0.00    +0.009 C 
ATOM     40  C   UNL     1       0.281  -0.625  -6.221  0.00  0.00    +0.009 C 
ENDBRANCH  37  38
ENDBRANCH   3  37
TORSDOF 9
