REMARK  Name = ZINC35172559
REMARK  7 active torsions:
REMARK  status: ('A' for Active; 'I' for Inactive)
REMARK    1  A    between atoms: C_4  and  C_7
REMARK    2  A    between atoms: C_7  and  C_8
REMARK    3  A    between atoms: C_8  and  C_10
REMARK    4  A    between atoms: C_8  and  N_16
REMARK    5  A    between atoms: C_17  and  C_19
REMARK    6  A    between atoms: C_19  and  N_20
REMARK    7  A    between atoms: C_29  and  C_31
REMARK                            x       y       z     vdW  Elec       q    Type
REMARK                         _______ _______ _______ _____ _____    ______ ____
ROOT
ATOM      1  C   UNL     1       4.313   1.676   4.159  0.00  0.00    +0.020 C 
ENDROOT
BRANCH   1   2
ATOM      2  N   UNL     1       4.326   1.584   5.625  0.00  0.00    +0.394 N 
ATOM      3  C   UNL     1       5.211   0.491   6.035  0.00  0.00    -0.075 C 
ATOM      4  C   UNL     1       5.201   0.317   7.549  0.00  0.00    +0.003 C 
ATOM      5  C   UNL     1       3.810   0.646   8.099  0.00  0.00    +0.119 C 
ATOM      6  N   UNL     1       3.739   2.084   8.385  0.00  0.00    -0.352 N 
ATOM      7  C   UNL     1       3.243   2.659   9.515  0.00  0.00    +0.086 A 
ATOM      8  C   UNL     1       3.340   3.998   9.383  0.00  0.00    +0.019 A 
ATOM      9  C   UNL     1       3.922   4.258   8.126  0.00  0.00    +0.021 A 
ATOM     10  C   UNL     1       4.162   3.070   7.540  0.00  0.00    +0.010 A 
ATOM     11  C   UNL     1       4.800   2.855   6.189  0.00  0.00    +0.014 C 
ATOM     12  H   UNL     1       3.392   1.398   5.957  0.00  0.00    -0.080 HD
BRANCH  11  13
ATOM     13  C   UNL     1       4.422   3.986   5.268  0.00  0.00    -0.020 A 
ATOM     14  C   UNL     1       3.099   4.176   4.914  0.00  0.00    +0.008 A 
ATOM     15  C   UNL     1       2.750   5.213   4.070  0.00  0.00    +0.039 A 
ATOM     16  C   UNL     1       3.726   6.064   3.578  0.00  0.00    +0.126 A 
ATOM     17  C   UNL     1       5.050   5.875   3.932  0.00  0.00    +0.077 A 
ATOM     18  C   UNL     1       5.398   4.839   4.782  0.00  0.00    +0.128 A 
ATOM     19  F   UNL     1       6.690   4.657   5.132  0.00  0.00    -0.205 F 
ATOM     20  F   UNL     1       3.385   7.077   2.752  0.00  0.00    -0.205 F 
ENDBRANCH  11  13
ENDBRANCH   1   2
BRANCH   1  22
ATOM     21  N   UNL     1       3.560   0.297   2.248  0.00  0.00    -0.310 N 
ATOM     22  C   UNL     1       3.680   0.435   3.583  0.00  0.00    +0.197 C 
ATOM     23  O   UNL     1       3.280  -0.440   4.322  0.00  0.00    -0.278 OA
ATOM     24  H   UNL     1       3.880   0.997   1.657  0.00  0.00    +0.149 HD
BRANCH  21  25
ATOM     25  C   UNL     1       2.944  -0.909   1.688  0.00  0.00    +0.107 C 
BRANCH  25  26
ATOM     26  C   UNL     1       3.986  -1.991   1.561  0.00  0.00    -0.027 A 
ATOM     27  C   UNL     1       5.264  -1.674   1.141  0.00  0.00    +0.005 A 
ATOM     28  C   UNL     1       6.219  -2.666   1.024  0.00  0.00    +0.000 A 
ATOM     29  C   UNL     1       5.896  -3.976   1.326  0.00  0.00    +0.000 A 
ATOM     30  C   UNL     1       4.618  -4.293   1.747  0.00  0.00    +0.000 A 
ATOM     31  C   UNL     1       3.664  -3.300   1.868  0.00  0.00    +0.005 A 
ENDBRANCH  25  26
BRANCH  25  32
ATOM     32  C   UNL     1       2.365  -0.593   0.308  0.00  0.00    +0.062 C 
BRANCH  32  36
ATOM     33  C   UNL     1      -0.825   2.220   0.710  0.00  0.00    +0.000 A 
ATOM     34  C   UNL     1       0.470   2.666   0.525  0.00  0.00    +0.000 A 
ATOM     35  C   UNL     1       1.503   1.755   0.396  0.00  0.00    +0.004 A 
ATOM     36  C   UNL     1       1.240   0.399   0.451  0.00  0.00    -0.045 A 
ATOM     37  C   UNL     1      -0.055  -0.047   0.636  0.00  0.00    +0.004 A 
ATOM     38  C   UNL     1      -1.088   0.864   0.764  0.00  0.00    +0.000 A 
ENDBRANCH  32  36
ENDBRANCH  25  32
ENDBRANCH  21  25
ENDBRANCH   1  22
TORSDOF 7
