REMARK  Name = ZINC03199683
REMARK  4 active torsions:
REMARK  status: ('A' for Active; 'I' for Inactive)
REMARK    1  A    between atoms: C_6  and  N_7
REMARK    2  A    between atoms: N_7  and  C_8
REMARK    3  A    between atoms: C_13  and  N_15
REMARK    4  A    between atoms: N_15  and  C_16
REMARK                            x       y       z     vdW  Elec       q    Type
REMARK                         _______ _______ _______ _____ _____    ______ ____
ROOT
ATOM      1  C   UNL     1       5.442   0.009  -0.420  0.00  0.00    +0.103 C 
ATOM      2  C   UNL     1       6.766  -0.642  -0.857  0.00  0.00    +0.107 C 
ATOM      3  C   UNL     1       7.576  -0.731   0.419  0.00  0.00    +0.179 C 
ATOM      4  O   UNL     1       8.695  -1.186   0.527  0.00  0.00    -0.291 OA
ATOM      5  C   UNL     1       6.761  -0.169   1.498  0.00  0.00    +0.072 C 
ATOM      6  C   UNL     1       5.575   0.249   1.063  0.00  0.00    +0.022 C 
ENDROOT
BRANCH   1   7
ATOM      7  N   UNL     1       4.321  -0.896  -0.687  0.00  0.00    -0.337 N 
ATOM      8  H   UNL     1       4.471  -1.853  -0.734  0.00  0.00    +0.147 HD
BRANCH   7  14
ATOM      9  C   UNL     1       1.973  -1.237  -1.129  0.00  0.00    +0.024 A 
ATOM     10  C   UNL     1       0.704  -0.724  -1.314  0.00  0.00    +0.017 A 
ATOM     11  C   UNL     1       0.492   0.642  -1.247  0.00  0.00    +0.018 A 
ATOM     12  C   UNL     1       1.549   1.497  -0.995  0.00  0.00    +0.017 A 
ATOM     13  C   UNL     1       2.820   0.990  -0.809  0.00  0.00    +0.024 A 
ATOM     14  C   UNL     1       3.037  -0.380  -0.875  0.00  0.00    +0.028 A 
ATOM     15 BR   UNL     1      -1.246   1.340  -1.509  0.00  0.00    -0.050 Br
ENDBRANCH   7  14
ENDBRANCH   1   7
BRANCH   5  16
ATOM     16  N   UNL     1       7.181  -0.080   2.830  0.00  0.00    -0.312 N 
ATOM     17  H   UNL     1       7.256   0.787   3.259  0.00  0.00    +0.152 HD
BRANCH  16  18
ATOM     18  C   UNL     1       7.493  -1.241   3.543  0.00  0.00    +0.031 A 
ATOM     19  C   UNL     1       7.222  -2.488   2.994  0.00  0.00    +0.024 A 
ATOM     20  C   UNL     1       7.537  -3.634   3.698  0.00  0.00    +0.017 A 
ATOM     21  C   UNL     1       8.111  -3.540   4.954  0.00  0.00    +0.018 A 
ATOM     22  C   UNL     1       8.376  -2.299   5.506  0.00  0.00    +0.017 A 
ATOM     23  C   UNL     1       8.069  -1.150   4.804  0.00  0.00    +0.024 A 
ATOM     24 BR   UNL     1       8.534  -5.111   5.918  0.00  0.00    -0.050 Br
ENDBRANCH  16  18
ENDBRANCH   5  16
TORSDOF 4
