REMARK  Name = ZINC08567395
REMARK  9 active torsions:
REMARK  status: ('A' for Active; 'I' for Inactive)
REMARK    1  A    between atoms: C_1  and  O_2
REMARK    2  A    between atoms: O_2  and  C_3
REMARK    3  A    between atoms: C_6  and  C_9
REMARK    4  A    between atoms: C_16  and  N_37
REMARK    5  A    between atoms: C_17  and  C_35
REMARK    6  A    between atoms: C_18  and  C_20
REMARK    7  A    between atoms: C_23  and  O_26
REMARK    8  A    between atoms: O_26  and  C_27
REMARK    9  A    between atoms: C_27  and  C_28
REMARK                            x       y       z     vdW  Elec       q    Type
REMARK                         _______ _______ _______ _____ _____    ______ ____
ROOT
ATOM      1  C   UNL     1      -5.263  -2.867   0.182  0.00  0.00    +0.100 A 
ATOM      2  C   UNL     1      -5.431  -3.953  -0.683  0.00  0.00    +0.054 A 
ATOM      3  C   UNL     1      -6.713  -4.402  -0.553  0.00  0.00    +0.223 A 
ATOM      4  N   UNL     1      -7.329  -3.626   0.363  0.00  0.00    -0.246 N 
ATOM      5  H   UNL     1      -8.248  -3.714   0.660  0.00  0.00    +0.192 HD
ATOM      6  N   UNL     1      -6.403  -2.673   0.816  0.00  0.00    -0.171 NA
ATOM      7  O   UNL     1      -7.197  -5.451  -1.264  0.00  0.00    -0.423 OA
ATOM      8  C   UNL     1      -6.470  -5.883  -2.314  0.00  0.00    +0.200 C 
ATOM      9  C   UNL     1      -5.188  -5.520  -2.541  0.00  0.00    +0.098 C 
ATOM     10  C   UNL     1      -4.438  -4.585  -1.625  0.00  0.00    +0.102 C 
ENDROOT
BRANCH   1  14
ATOM     11  C   UNL     1      -1.698  -0.601   0.692  0.00  0.00    +0.120 A 
ATOM     12  C   UNL     1      -2.103  -0.979  -0.582  0.00  0.00    +0.046 A 
ATOM     13  C   UNL     1      -3.258  -1.714  -0.750  0.00  0.00    +0.013 A 
ATOM     14  C   UNL     1      -4.019  -2.077   0.360  0.00  0.00    +0.003 A 
ATOM     15  C   UNL     1      -3.610  -1.697   1.636  0.00  0.00    +0.013 A 
ATOM     16  C   UNL     1      -2.451  -0.967   1.799  0.00  0.00    +0.046 A 
BRANCH  11  18
ATOM     17  C   UNL     1       0.166   0.464  -0.328  0.00  0.00    +0.277 C 
ATOM     18  O   UNL     1      -0.560   0.123   0.854  0.00  0.00    -0.495 OA
ENDBRANCH  11  18
ENDBRANCH   1  14
BRANCH  10  19
ATOM     19  C   UNL     1      -3.412  -5.358  -0.837  0.00  0.00    -0.034 A 
ATOM     20  C   UNL     1      -3.817  -6.350   0.037  0.00  0.00    +0.008 A 
ATOM     21  C   UNL     1      -2.878  -7.060   0.760  0.00  0.00    +0.046 A 
ATOM     22  C   UNL     1      -1.529  -6.778   0.608  0.00  0.00    +0.121 A 
ATOM     23  C   UNL     1      -1.125  -5.783  -0.270  0.00  0.00    +0.046 A 
ATOM     24  C   UNL     1      -2.067  -5.079  -0.995  0.00  0.00    +0.008 A 
BRANCH  22  25
ATOM     25  O   UNL     1      -0.603  -7.475   1.319  0.00  0.00    -0.487 OA
BRANCH  25  26
ATOM     26  C   UNL     1       0.768  -7.131   1.111  0.00  0.00    +0.267 C 
BRANCH  26  27
ATOM     27  C   UNL     1       1.641  -8.002   1.977  0.00  0.00    +0.025 A 
ATOM     28  C   UNL     1       1.069  -8.956   2.797  0.00  0.00    +0.010 A 
ATOM     29  C   UNL     1       1.869  -9.756   3.592  0.00  0.00    +0.001 A 
ATOM     30  C   UNL     1       3.243  -9.602   3.567  0.00  0.00    +0.003 A 
ATOM     31  C   UNL     1       3.817  -8.649   2.747  0.00  0.00    +0.039 A 
ATOM     32  C   UNL     1       3.017  -7.851   1.947  0.00  0.00    +0.130 A 
ATOM     33  F   UNL     1       3.578  -6.923   1.142  0.00  0.00    -0.205 F 
ENDBRANCH  26  27
ENDBRANCH  25  26
ENDBRANCH  22  25
ENDBRANCH  10  19
BRANCH   8  34
ATOM     34  N   UNL     1      -7.065  -6.743  -3.203  0.00  0.00    -0.328 N 
ATOM     35  H   UNL     1      -7.984  -7.022  -3.067  0.00  0.00    +0.145 HD
ATOM     36  H   UNL     1      -6.567  -7.071  -3.968  0.00  0.00    +0.145 HD
ENDBRANCH   8  34
BRANCH   9  37
ATOM     37  C   UNL     1      -4.516  -6.042  -3.693  0.00  0.00    +0.101 C 
ATOM     38  N   UNL     1      -3.984  -6.455  -4.607  0.00  0.00    -0.191 NA
ENDBRANCH   9  37
TORSDOF 8
