REMARK  Name = ZINC66702659
REMARK  11 active torsions:
REMARK  status: ('A' for Active; 'I' for Inactive)
REMARK    1  A    between atoms: C_1  and  C_2
REMARK    2  A    between atoms: C_2  and  C_3
REMARK    3  A    between atoms: C_3  and  N_4
REMARK    4  A    between atoms: N_4  and  C_5
REMARK    5  A    between atoms: C_5  and  C_6
REMARK    6  A    between atoms: C_11  and  O_12
REMARK    7  A    between atoms: N_15  and  C_16
REMARK    8  A    between atoms: C_16  and  C_17
REMARK    9  A    between atoms: C_17  and  C_19
REMARK   10  A    between atoms: C_17  and  N_25
REMARK   11  A    between atoms: C_22  and  C_24
REMARK                            x       y       z     vdW  Elec       q    Type
REMARK                         _______ _______ _______ _____ _____    ______ ____
ROOT
ATOM      1  N   UNL     1      -1.420  -1.928   0.009  0.00  0.00    -0.281 N 
ATOM      2  C   UNL     1      -1.520  -2.612  -1.148  0.00  0.00    +0.302 C 
ATOM      3  O   UNL     1      -1.659  -3.820  -1.131  0.00  0.00    -0.253 OA
ATOM      4  N   UNL     1      -1.466  -1.957  -2.325  0.00  0.00    -0.300 N 
ATOM      5  H   UNL     1      -1.355  -0.993  -2.339  0.00  0.00    +0.150 HD
ENDROOT
BRANCH   1   6
ATOM      6  C   UNL     1      -1.253  -0.473  -0.012  0.00  0.00    +0.109 C 
BRANCH   6   8
ATOM      7  C   UNL     1       0.412   1.388  -0.067  0.00  0.00    +0.005 C 
ATOM      8  C   UNL     1       0.238  -0.132  -0.045  0.00  0.00    +0.016 C 
ENDBRANCH   6   8
ENDBRANCH   1   6
BRANCH   1   9
ATOM      9  C   UNL     1      -1.479  -2.640   1.288  0.00  0.00    +0.148 C 
BRANCH   9  10
ATOM     10  C   UNL     1      -2.911  -2.722   1.752  0.00  0.00    +0.011 A 
ATOM     11  C   UNL     1      -3.380  -1.839   2.705  0.00  0.00    +0.009 A 
ATOM     12  C   UNL     1      -4.693  -1.913   3.131  0.00  0.00    +0.001 A 
ATOM     13  C   UNL     1      -5.540  -2.872   2.605  0.00  0.00    +0.004 A 
ATOM     14  C   UNL     1      -5.075  -3.757   1.652  0.00  0.00    +0.046 A 
ATOM     15  C   UNL     1      -3.760  -3.681   1.219  0.00  0.00    +0.122 A 
BRANCH  15  16
ATOM     16  O   UNL     1      -3.302  -4.547   0.277  0.00  0.00    -0.506 OA
ATOM     17  H   UNL     1      -2.931  -5.363   0.640  0.00  0.00    +0.292 HD
ENDBRANCH  15  16
ENDBRANCH   9  10
ENDBRANCH   1   9
BRANCH   4  18
ATOM     18  C   UNL     1      -1.574  -2.700  -3.583  0.00  0.00    +0.098 C 
BRANCH  18  19
ATOM     19  C   UNL     1      -1.588  -1.718  -4.756  0.00  0.00    +0.016 C 
BRANCH  19  20
ATOM     20  C   UNL     1      -0.259  -1.013  -4.836  0.00  0.00    +0.093 A 
ATOM     21  C   UNL     1       0.006   0.222  -4.374  0.00  0.00    +0.043 A 
ATOM     22  C   UNL     1       1.366   0.483  -4.658  0.00  0.00    +0.044 A 
ATOM     23  C   UNL     1       1.851  -0.608  -5.277  0.00  0.00    +0.102 A 
ATOM     24  O   UNL     1       0.864  -1.513  -5.377  0.00  0.00    -0.466 OA
ATOM     25  C   UNL     1       3.264  -0.787  -5.769  0.00  0.00    +0.086 C 
ENDBRANCH  19  20
BRANCH  19  26
ATOM     26  N   UNL     1      -1.830  -2.451  -6.005  0.00  0.00    +0.387 N 
ATOM     27  C   UNL     1      -3.170  -3.090  -5.973  0.00  0.00    -0.078 C 
ATOM     28  C   UNL     1      -3.496  -3.308  -7.472  0.00  0.00    -0.020 C 
ATOM     29  C   UNL     1      -2.913  -2.041  -8.139  0.00  0.00    -0.020 C 
ATOM     30  C   UNL     1      -1.859  -1.514  -7.149  0.00  0.00    -0.078 C 
ATOM     31  H   UNL     1      -1.114  -3.148  -6.144  0.00  0.00    -0.081 HD
ENDBRANCH  19  26
ENDBRANCH  18  19
ENDBRANCH   4  18
TORSDOF 9
