REMARK  Name = ZINC41153369
REMARK  4 active torsions:
REMARK  status: ('A' for Active; 'I' for Inactive)
REMARK    1  A    between atoms: C_6  and  C_7
REMARK    2  A    between atoms: C_7  and  C_8
REMARK    3  A    between atoms: C_10  and  C_13
REMARK    4  A    between atoms: C_13  and  N_19
REMARK                            x       y       z     vdW  Elec       q    Type
REMARK                         _______ _______ _______ _____ _____    ______ ____
ROOT
ATOM      1  C   UNL     1      -1.738  -1.024  -1.408  0.00  0.00    +0.232 A 
ATOM      2  N   UNL     1      -1.427  -2.061  -2.135  0.00  0.00    -0.197 NA
ATOM      3  C   UNL     1      -1.992  -1.960  -3.343  0.00  0.00    +0.161 A 
ATOM      4  N   UNL     1      -2.673  -0.852  -3.400  0.00  0.00    -0.063 NA
ATOM      5  O   UNL     1      -2.525  -0.222  -2.136  0.00  0.00    -0.338 OA
ENDROOT
BRANCH   3   6
ATOM      6  C   UNL     1      -1.862  -2.966  -4.458  0.00  0.00    -0.006 C 
ATOM      7  C   UNL     1      -0.388  -3.117  -4.839  0.00  0.00    -0.005 C 
ATOM      8  C   UNL     1      -0.256  -4.138  -5.971  0.00  0.00    -0.001 C 
ATOM      9  C   UNL     1      -1.050  -3.657  -7.187  0.00  0.00    -0.000 C 
ATOM     10  C   UNL     1      -2.524  -3.506  -6.806  0.00  0.00    -0.001 C 
ATOM     11  C   UNL     1      -2.656  -2.485  -5.675  0.00  0.00    -0.005 C 
BRANCH   6  12
ATOM     12  N   UNL     1      -2.388  -4.263  -4.012  0.00  0.00    +0.387 N 
ATOM     13  H   UNL     1      -3.360  -4.163  -3.761  0.00  0.00    -0.089 HD
ATOM     14  H   UNL     1      -2.301  -4.936  -4.758  0.00  0.00    -0.089 HD
ATOM     15  H   UNL     1      -1.864  -4.580  -3.210  0.00  0.00    -0.089 HD
ENDBRANCH   6  12
ENDBRANCH   3   6
BRANCH   1  16
ATOM     16  C   UNL     1      -1.293  -0.775   0.010  0.00  0.00    +0.134 C 
BRANCH  16  22
ATOM     17  C   UNL     1      -0.017   1.378   0.010  0.00  0.00    +0.005 A 
ATOM     18  C   UNL     1       1.171   2.086   0.002  0.00  0.00    +0.015 A 
ATOM     19  C   UNL     1       2.378   1.411  -0.013  0.00  0.00    +0.018 A 
ATOM     20  C   UNL     1       2.396   0.027  -0.021  0.00  0.00    +0.015 A 
ATOM     21  C   UNL     1       1.208  -0.679  -0.013  0.00  0.00    +0.005 A 
ATOM     22  C   UNL     1       0.002  -0.004   0.002  0.00  0.00    -0.038 A 
ATOM     23 BR   UNL     1       4.003   2.378  -0.024  0.00  0.00    -0.050 Br
ENDBRANCH  16  22
ENDBRANCH   1  16
TORSDOF 4
