REMARK  Name = ZINC18471676
REMARK  10 active torsions:
REMARK  status: ('A' for Active; 'I' for Inactive)
REMARK    1  A    between atoms: C_1  and  C_2
REMARK    2  A    between atoms: C_2  and  C_3
REMARK    3  A    between atoms: C_2  and  C_4
REMARK    4  A    between atoms: C_4  and  C_6
REMARK    5  A    between atoms: C_4  and  N_17
REMARK    6  A    between atoms: C_18  and  C_20
REMARK    7  A    between atoms: C_20  and  S_21
REMARK    8  A    between atoms: S_21  and  C_22
REMARK    9  A    between atoms: C_24  and  C_28
REMARK   10  A    between atoms: N_26  and  N_27
REMARK                            x       y       z     vdW  Elec       q    Type
REMARK                         _______ _______ _______ _____ _____    ______ ____
ROOT
ATOM      1  N   UNL     1       1.386   1.579   2.496  0.00  0.00    -0.308 N 
ATOM      2  C   UNL     1       2.342   0.919   1.814  0.00  0.00    +0.224 C 
ATOM      3  O   UNL     1       2.065  -0.095   1.208  0.00  0.00    -0.275 OA
ATOM      4  H   UNL     1       1.607   2.390   2.980  0.00  0.00    +0.149 HD
ENDROOT
BRANCH   1   5
ATOM      5  C   UNL     1       0.011   1.072   2.506  0.00  0.00    +0.106 C 
BRANCH   5   6
ATOM      6  C   UNL     1      -0.694   1.558   3.746  0.00  0.00    -0.023 A 
ATOM      7  C   UNL     1      -0.490   2.850   4.194  0.00  0.00    +0.009 A 
ATOM      8  C   UNL     1      -1.133   3.304   5.331  0.00  0.00    +0.050 A 
ATOM      9  C   UNL     1      -1.984   2.457   6.022  0.00  0.00    +0.162 A 
ATOM     10  C   UNL     1      -2.190   1.161   5.572  0.00  0.00    +0.162 A 
ATOM     11  C   UNL     1      -1.549   0.712   4.430  0.00  0.00    +0.055 A 
ATOM     12  O   UNL     1      -3.031   0.334   6.259  0.00  0.00    -0.488 OA
ATOM     13  C   UNL     1      -4.417   0.680   6.220  0.00  0.00    +0.232 C 
ATOM     14  C   UNL     1      -4.745   1.715   7.285  0.00  0.00    +0.082 C 
ATOM     15  C   UNL     1      -4.042   3.041   7.039  0.00  0.00    +0.232 C 
ATOM     16  O   UNL     1      -2.625   2.891   7.146  0.00  0.00    -0.488 OA
ENDBRANCH   5   6
BRANCH   5  18
ATOM     17  C   UNL     1      -0.013   1.086   0.008  0.00  0.00    +0.009 C 
ATOM     18  C   UNL     1      -0.729   1.579   1.267  0.00  0.00    +0.008 C 
ATOM     19  C   UNL     1      -2.164   1.050   1.278  0.00  0.00    +0.009 C 
ENDBRANCH   5  18
ENDBRANCH   1   5
BRANCH   2  20
ATOM     20  C   UNL     1       3.756   1.441   1.803  0.00  0.00    +0.173 C 
BRANCH  20  21
ATOM     21  S   UNL     1       4.796   0.344   0.808  0.00  0.00    -0.077 S 
BRANCH  21  22
ATOM     22  C   UNL     1       6.346   1.167   0.964  0.00  0.00    +0.187 A 
ATOM     23  N   UNL     1       6.562   2.268   1.644  0.00  0.00    -0.221 NA
ATOM     24  C   UNL     1       7.871   2.607   1.537  0.00  0.00    +0.092 A 
ATOM     25  C   UNL     1       8.481   1.676   0.762  0.00  0.00    +0.138 A 
ATOM     26  N   UNL     1       7.520   0.762   0.404  0.00  0.00    -0.251 N 
BRANCH  24  27
ATOM     27  C   UNL     1       8.520   3.787   2.159  0.00  0.00    +0.002 A 
ATOM     28  C   UNL     1       9.883   4.015   1.972  0.00  0.00    +0.010 A 
ATOM     29  C   UNL     1      10.480   5.117   2.547  0.00  0.00    +0.001 A 
ATOM     30  C   UNL     1       9.732   5.989   3.319  0.00  0.00    +0.000 A 
ATOM     31  C   UNL     1       8.381   5.764   3.512  0.00  0.00    +0.001 A 
ATOM     32  C   UNL     1       7.772   4.668   2.937  0.00  0.00    +0.010 A 
ENDBRANCH  24  27
BRANCH  26  33
ATOM     33  N   UNL     1       7.706  -0.345  -0.373  0.00  0.00    -0.296 N 
ATOM     34  H   UNL     1       7.563  -0.131  -1.349  0.00  0.00    +0.163 HD
ATOM     35  H   UNL     1       8.620  -0.745  -0.221  0.00  0.00    +0.163 HD
ENDBRANCH  26  33
ENDBRANCH  21  22
ENDBRANCH  20  21
ENDBRANCH   2  20
TORSDOF 8
