REMARK  Name = ZINC02336019
REMARK  4 active torsions:
REMARK  status: ('A' for Active; 'I' for Inactive)
REMARK    1  A    between atoms: C_9  and  O_26
REMARK    2  A    between atoms: C_10  and  C_11
REMARK    3  A    between atoms: N_12  and  N_13
REMARK    4  A    between atoms: C_14  and  C_19
REMARK                            x       y       z     vdW  Elec       q    Type
REMARK                         _______ _______ _______ _____ _____    ______ ____
ROOT
ATOM      1  C   UNL     1       4.982   0.092  -0.044  0.00  0.00    +0.145 C 
ATOM      2  N   UNL     1       6.109  -0.556  -0.058  0.00  0.00    -0.170 NA
ENDROOT
BRANCH   1  12
ATOM      3  C   UNL     1      -0.016   1.357   0.009  0.00  0.00    +0.001 A 
ATOM      4  C   UNL     1       1.167   2.091   0.002  0.00  0.00    +0.001 A 
ATOM      5  C   UNL     1       2.378   1.465  -0.013  0.00  0.00    +0.009 A 
ATOM      6  C   UNL     1       2.435   0.067  -0.021  0.00  0.00    -0.006 A 
ATOM      7  C   UNL     1       1.233  -0.683  -0.013  0.00  0.00    -0.017 A 
ATOM      8  C   UNL     1       0.002  -0.004   0.002  0.00  0.00    +0.008 A 
ATOM      9  C   UNL     1       1.291  -2.087  -0.021  0.00  0.00    +0.012 A 
ATOM     10  C   UNL     1       2.487  -2.734  -0.034  0.00  0.00    +0.046 A 
ATOM     11  C   UNL     1       3.696  -2.041  -0.042  0.00  0.00    +0.126 A 
ATOM     12  C   UNL     1       3.711  -0.645  -0.036  0.00  0.00    +0.044 A 
BRANCH  11  13
ATOM     13  O   UNL     1       4.867  -2.728  -0.056  0.00  0.00    -0.506 OA
ATOM     14  H   UNL     1       5.198  -2.922  -0.943  0.00  0.00    +0.292 HD
ENDBRANCH  11  13
ENDBRANCH   1  12
BRANCH   2  15
ATOM     15  N   UNL     1       7.321   0.147  -0.066  0.00  0.00    -0.186 N 
ATOM     16  C   UNL     1       8.028   0.576  -1.167  0.00  0.00    +0.186 A 
ATOM     17  N   UNL     1       9.100   1.191  -0.722  0.00  0.00    -0.126 NA
ATOM     18  N   UNL     1       9.112   1.178   0.563  0.00  0.00    -0.119 NA
ATOM     19  C   UNL     1       8.046   0.557   1.020  0.00  0.00    +0.223 A 
ATOM     20  S   UNL     1       7.632   0.299   2.712  0.00  0.00    -0.007 SA
BRANCH  16  21
ATOM     21  C   UNL     1       7.653   0.380  -2.583  0.00  0.00    +0.021 A 
ATOM     22  C   UNL     1       6.664  -0.545  -2.925  0.00  0.00    +0.014 A 
ATOM     23  C   UNL     1       6.318  -0.724  -4.247  0.00  0.00    +0.039 A 
ATOM     24  C   UNL     1       6.949   0.013  -5.237  0.00  0.00    +0.123 A 
ATOM     25  C   UNL     1       7.931   0.932  -4.904  0.00  0.00    +0.039 A 
ATOM     26  C   UNL     1       8.282   1.123  -3.584  0.00  0.00    +0.014 A 
ATOM     27  F   UNL     1       6.606  -0.167  -6.532  0.00  0.00    -0.205 F 
ENDBRANCH  16  21
ENDBRANCH   2  15
TORSDOF 4
