REMARK  Name = ZINC10002511
REMARK  11 active torsions:
REMARK  status: ('A' for Active; 'I' for Inactive)
REMARK    1  A    between atoms: C_1  and  C_2
REMARK    2  A    between atoms: C_2  and  C_3
REMARK    3  A    between atoms: C_2  and  C_4
REMARK    4  A    between atoms: C_4  and  C_6
REMARK    5  A    between atoms: C_4  and  N_26
REMARK    6  A    between atoms: N_8  and  N_9
REMARK    7  A    between atoms: C_10  and  C_11
REMARK    8  A    between atoms: C_14  and  O_17
REMARK    9  A    between atoms: O_17  and  C_18
REMARK   10  A    between atoms: C_18  and  C_19
REMARK   11  A    between atoms: C_27  and  C_29
REMARK                            x       y       z     vdW  Elec       q    Type
REMARK                         _______ _______ _______ _____ _____    ______ ____
ROOT
ATOM      1  C   UNL     1       7.449  -3.332   3.005  0.00  0.00    +0.253 C 
ATOM      2  O   UNL     1       6.829  -4.215   2.450  0.00  0.00    -0.272 OA
ATOM      3  N   UNL     1       8.610  -3.614   3.629  0.00  0.00    -0.205 N 
ATOM      4  H   UNL     1       9.142  -2.898   4.010  0.00  0.00    +0.177 HD
ENDROOT
BRANCH   3   5
ATOM      5  N   UNL     1       9.049  -4.941   3.727  0.00  0.00    -0.188 NA
ATOM      6  C   UNL     1      10.167  -5.212   4.327  0.00  0.00    +0.138 C 
BRANCH   6   7
ATOM      7  C   UNL     1      10.628  -6.609   4.430  0.00  0.00    -0.005 A 
ATOM      8  C   UNL     1       9.861  -7.642   3.886  0.00  0.00    +0.013 A 
ATOM      9  C   UNL     1      10.299  -8.945   3.980  0.00  0.00    +0.046 A 
ATOM     10  C   UNL     1      11.496  -9.233   4.623  0.00  0.00    +0.121 A 
ATOM     11  C   UNL     1      12.259  -8.210   5.170  0.00  0.00    +0.046 A 
ATOM     12  C   UNL     1      11.832  -6.903   5.076  0.00  0.00    +0.013 A 
BRANCH  10  13
ATOM     13  O   UNL     1      11.921 -10.520   4.718  0.00  0.00    -0.487 OA
BRANCH  13  14
ATOM     14  C   UNL     1      11.088 -11.523   4.134  0.00  0.00    +0.266 C 
BRANCH  14  15
ATOM     15  C   UNL     1      11.717 -12.878   4.336  0.00  0.00    +0.008 A 
ATOM     16  C   UNL     1      12.925 -12.988   4.999  0.00  0.00    +0.008 A 
ATOM     17  C   UNL     1      13.499 -14.231   5.188  0.00  0.00    +0.000 A 
ATOM     18  C   UNL     1      12.871 -15.364   4.705  0.00  0.00    +0.001 A 
ATOM     19  C   UNL     1      11.666 -15.255   4.037  0.00  0.00    +0.020 A 
ATOM     20  C   UNL     1      11.088 -14.011   3.852  0.00  0.00    +0.047 A 
ATOM     21 CL   UNL     1       9.575 -13.874   3.013  0.00  0.00    -0.083 Cl
ENDBRANCH  14  15
ENDBRANCH  13  14
ENDBRANCH  10  13
ENDBRANCH   6   7
ENDBRANCH   3   5
BRANCH   1  22
ATOM     22  C   UNL     1       6.921  -1.921   2.997  0.00  0.00    +0.163 C 
BRANCH  22  23
ATOM     23  N   UNL     1       5.936  -1.774   1.923  0.00  0.00    -0.300 N 
ATOM     24  C   UNL     1       5.700  -0.561   1.386  0.00  0.00    +0.245 C 
ATOM     25  O   UNL     1       6.305   0.412   1.792  0.00  0.00    -0.270 OA
ATOM     26  H   UNL     1       5.453  -2.550   1.599  0.00  0.00    +0.150 HD
BRANCH  24  27
ATOM     27  C   UNL     1       4.707  -0.413   0.304  0.00  0.00    +0.040 A 
ATOM     28  C   UNL     1       4.010  -1.530  -0.165  0.00  0.00    +0.017 A 
ATOM     29  C   UNL     1       3.083  -1.390  -1.174  0.00  0.00    +0.050 A 
ATOM     30  C   UNL     1       2.838  -0.141  -1.730  0.00  0.00    +0.166 A 
ATOM     31  C   UNL     1       3.530   0.978  -1.267  0.00  0.00    +0.167 A 
ATOM     32  C   UNL     1       4.461   0.844  -0.255  0.00  0.00    +0.062 A 
ATOM     33  O   UNL     1       3.111   2.071  -1.969  0.00  0.00    -0.453 OA
ATOM     34  C   UNL     1       1.867   1.680  -2.579  0.00  0.00    +0.466 C 
ATOM     35  O   UNL     1       1.987   0.253  -2.720  0.00  0.00    -0.453 OA
ENDBRANCH  24  27
ENDBRANCH  22  23
BRANCH  22  37
ATOM     36  C   UNL     1       5.826  -0.149   4.377  0.00  0.00    +0.009 C 
ATOM     37  C   UNL     1       6.259  -1.616   4.342  0.00  0.00    +0.012 C 
ATOM     38  C   UNL     1       5.033  -2.514   4.522  0.00  0.00    +0.009 C 
ENDBRANCH  22  37
ENDBRANCH   1  22
TORSDOF 9
