REMARK  Name = ZINC46892593
REMARK  8 active torsions:
REMARK  status: ('A' for Active; 'I' for Inactive)
REMARK    1  A    between atoms: C_1  and  C_2
REMARK    2  A    between atoms: C_8  and  C_10
REMARK    3  A    between atoms: C_10  and  N_11
REMARK    4  A    between atoms: N_11  and  C_12
REMARK    5  A    between atoms: C_13  and  C_15
REMARK    6  A    between atoms: C_18  and  S_21
REMARK    7  A    between atoms: S_21  and  N_24
REMARK    8  A    between atoms: C_27  and  C_30
REMARK                            x       y       z     vdW  Elec       q    Type
REMARK                         _______ _______ _______ _____ _____    ______ ____
ROOT
ATOM      1  C   UNL     1      -7.107  -3.555   1.186  0.00  0.00    +0.037 A 
ATOM      2  C   UNL     1      -7.822  -3.574  -0.013  0.00  0.00    +0.015 A 
ATOM      3  C   UNL     1      -9.177  -3.311  -0.008  0.00  0.00    +0.029 A 
ATOM      4  C   UNL     1      -9.826  -3.029   1.181  0.00  0.00    +0.106 A 
ATOM      5  C   UNL     1      -9.123  -3.008   2.372  0.00  0.00    +0.029 A 
ATOM      6  C   UNL     1      -7.770  -3.276   2.382  0.00  0.00    +0.015 A 
ENDROOT
BRANCH   1   9
ATOM      7  N   UNL     1      -4.889  -3.430   0.158  0.00  0.00    -0.292 N 
ATOM      8  C   UNL     1      -5.466  -2.600  -0.902  0.00  0.00    +0.133 C 
ATOM      9  C   UNL     1      -5.656  -3.836   1.189  0.00  0.00    +0.247 C 
ATOM     10  O   UNL     1      -5.155  -4.434   2.121  0.00  0.00    -0.270 OA
BRANCH   7  11
ATOM     11  C   UNL     1      -3.477  -3.818   0.098  0.00  0.00    +0.203 C 
BRANCH  11  19
ATOM     12  C   UNL     1      -0.013   1.169   3.414  0.00  0.00    +0.089 C 
ATOM     13  C   UNL     1       0.044  -0.135   2.660  0.00  0.00    +0.136 A 
ATOM     14  C   UNL     1      -1.009  -0.797   2.150  0.00  0.00    +0.091 A 
ATOM     15  C   UNL     1      -0.528  -1.969   1.524  0.00  0.00    +0.168 A 
ATOM     16  N   UNL     1       0.773  -1.994   1.662  0.00  0.00    -0.063 NA
ATOM     17  O   UNL     1       1.155  -0.833   2.378  0.00  0.00    -0.358 OA
ATOM     18  N   UNL     1      -1.303  -2.929   0.872  0.00  0.00    -0.266 N 
ATOM     19  C   UNL     1      -2.640  -2.781   0.801  0.00  0.00    +0.236 C 
ATOM     20  O   UNL     1      -3.171  -1.813   1.304  0.00  0.00    -0.274 OA
ATOM     21  H   UNL     1      -0.879  -3.704   0.471  0.00  0.00    +0.156 HD
ENDBRANCH  11  19
ENDBRANCH   7  11
ENDBRANCH   1   9
BRANCH   4  22
ATOM     22  S   UNL     1     -11.556  -2.694   1.177  0.00  0.00    +0.061 S 
ATOM     23  O   UNL     1     -11.823  -1.923   2.341  0.00  0.00    -0.153 OA
ATOM     24  O   UNL     1     -11.879  -2.237  -0.129  0.00  0.00    -0.153 OA
BRANCH  22  25
ATOM     25  N   UNL     1     -12.335  -4.141   1.378  0.00  0.00    -0.177 NA
ATOM     26  C   UNL     1     -12.711  -4.957   0.215  0.00  0.00    +0.110 C 
ATOM     27  C   UNL     1     -14.207  -5.275   0.298  0.00  0.00    +0.020 C 
ATOM     28  C   UNL     1     -14.512  -5.927   1.648  0.00  0.00    -0.012 C 
ATOM     29  C   UNL     1     -14.162  -4.955   2.777  0.00  0.00    +0.020 C 
ATOM     30  C   UNL     1     -12.660  -4.636   2.723  0.00  0.00    +0.110 C 
ATOM     31  C   UNL     1     -15.999  -6.277   1.721  0.00  0.00    +0.007 C 
ENDBRANCH  22  25
ENDBRANCH   4  22
TORSDOF 5
