REMARK  Name = ZINC22263859
REMARK  7 active torsions:
REMARK  status: ('A' for Active; 'I' for Inactive)
REMARK    1  A    between atoms: C_1  and  C_2
REMARK    2  A    between atoms: C_2  and  C_3
REMARK    3  A    between atoms: C_2  and  N_4
REMARK    4  A    between atoms: C_9  and  C_19
REMARK    5  A    between atoms: C_11  and  C_13
REMARK    6  A    between atoms: N_21  and  C_22
REMARK    7  A    between atoms: C_23  and  O_28
REMARK                            x       y       z     vdW  Elec       q    Type
REMARK                         _______ _______ _______ _____ _____    ______ ____
ROOT
ATOM      1  N   UNL     1      -0.698   1.558   1.213  0.00  0.00    -0.244 N 
ATOM      2  C   UNL     1      -1.243   0.766   2.192  0.00  0.00    +0.160 A 
ATOM      3  C   UNL     1      -1.793   1.642   3.150  0.00  0.00    +0.051 A 
ATOM      4  C   UNL     1      -1.552   2.957   2.699  0.00  0.00    +0.145 A 
ATOM      5  N   UNL     1      -0.906   2.896   1.569  0.00  0.00    -0.177 NA
ATOM      6  C   UNL     1      -2.432   1.102   4.290  0.00  0.00    +0.051 A 
ATOM      7  C   UNL     1      -2.487  -0.283   4.411  0.00  0.00    +0.042 A 
ATOM      8  C   UNL     1      -1.915  -1.079   3.415  0.00  0.00    +0.074 A 
ATOM      9  N   UNL     1      -1.324  -0.544   2.359  0.00  0.00    -0.228 NA
ENDROOT
BRANCH   8  10
ATOM     10  C   UNL     1      -1.973  -2.555   3.544  0.00  0.00    +0.000 A 
ATOM     11  C   UNL     1      -2.587  -3.137   4.652  0.00  0.00    +0.010 A 
ATOM     12  C   UNL     1      -2.642  -4.511   4.764  0.00  0.00    +0.001 A 
ATOM     13  C   UNL     1      -2.080  -5.311   3.785  0.00  0.00    +0.000 A 
ATOM     14  C   UNL     1      -1.466  -4.739   2.686  0.00  0.00    +0.001 A 
ATOM     15  C   UNL     1      -1.409  -3.366   2.560  0.00  0.00    +0.010 A 
ENDBRANCH   8  10
BRANCH   6  16
ATOM     16  C   UNL     1      -3.024   1.981   5.320  0.00  0.00    +0.250 C 
ATOM     17  O   UNL     1      -2.966   3.189   5.195  0.00  0.00    -0.270 OA
ATOM     18  N   UNL     1      -3.629   1.443   6.398  0.00  0.00    -0.265 N 
ATOM     19  H   UNL     1      -3.682   0.350   6.511  0.00  0.00    +0.157 HD
BRANCH  18  20
ATOM     20  C   UNL     1      -4.188   2.273   7.370  0.00  0.00    +0.145 A 
ATOM     21  C   UNL     1      -4.812   1.710   8.484  0.00  0.00    +0.155 A 
ATOM     22  C   UNL     1      -5.362   2.549   9.442  0.00  0.00    +0.050 A 
ATOM     23  C   UNL     1      -5.268   3.921   9.253  0.00  0.00    +0.021 A 
ATOM     24  C   UNL     1      -4.635   4.407   8.126  0.00  0.00    +0.084 A 
ATOM     25  N   UNL     1      -4.116   3.586   7.232  0.00  0.00    -0.347 N 
ATOM     26  H   UNL     1      -3.614   4.020   6.355  0.00  0.00    +0.167 HD
BRANCH  21  27
ATOM     27  O   UNL     1      -4.881   0.360   8.628  0.00  0.00    -0.503 OA
ATOM     28  H   UNL     1      -5.375  -0.075   9.509  0.00  0.00    +0.292 HD
ENDBRANCH  21  27
ENDBRANCH  18  20
ENDBRANCH   6  16
BRANCH   1  30
ATOM     29  C   UNL     1       1.423   1.615  -0.003  0.00  0.00    +0.032 C 
ATOM     30  C   UNL     1      -0.013   1.086   0.008  0.00  0.00    +0.103 C 
ATOM     31  C   UNL     1      -0.753   1.593  -1.232  0.00  0.00    +0.032 C 
ENDBRANCH   1  30
TORSDOF 5
