REMARK  Name = ZINC66924946
REMARK  8 active torsions:
REMARK  status: ('A' for Active; 'I' for Inactive)
REMARK    1  A    between atoms: C_1  and  C_2
REMARK    2  A    between atoms: N_7  and  C_9
REMARK    3  A    between atoms: C_9  and  C_10
REMARK    4  A    between atoms: C_10  and  C_11
REMARK    5  A    between atoms: C_11  and  N_12
REMARK    6  A    between atoms: N_15  and  C_16
REMARK    7  A    between atoms: C_16  and  C_17
REMARK    8  A    between atoms: C_17  and  O_27
REMARK                            x       y       z     vdW  Elec       q    Type
REMARK                         _______ _______ _______ _____ _____    ______ ____
ROOT
ATOM      1  N   UNL     1       2.940  -5.935   3.225  0.00  0.00    -0.299 N 
ATOM      2  C   UNL     1       3.463  -6.603   4.272  0.00  0.00    +0.300 C 
ATOM      3  O   UNL     1       3.844  -5.993   5.253  0.00  0.00    -0.253 OA
ATOM      4  N   UNL     1       3.564  -7.946   4.232  0.00  0.00    -0.296 N 
ATOM      5  H   UNL     1       2.636  -6.421   2.443  0.00  0.00    +0.150 HD
ATOM      6  H   UNL     1       3.261  -8.432   3.450  0.00  0.00    +0.150 HD
ENDROOT
BRANCH   1   7
ATOM      7  C   UNL     1       2.830  -4.475   3.269  0.00  0.00    +0.104 C 
BRANCH   7   8
ATOM      8  C   UNL     1       2.207  -3.971   1.965  0.00  0.00    +0.000 C 
BRANCH   8   9
ATOM      9  C   UNL     1       2.092  -2.446   2.010  0.00  0.00    -0.077 C 
BRANCH   9  15
ATOM     10  C   UNL     1       0.963   1.544  -0.592  0.00  0.00    +0.005 C 
ATOM     11  C   UNL     1       0.956   0.014  -0.586  0.00  0.00    -0.031 C 
ATOM     12  C   UNL     1      -0.478  -0.491  -0.770  0.00  0.00    -0.001 C 
ATOM     13  C   UNL     1      -0.485  -2.020  -0.684  0.00  0.00    -0.018 C 
ATOM     14  C   UNL     1       0.115  -2.453   0.655  0.00  0.00    -0.079 C 
ATOM     15  N   UNL     1       1.495  -1.962   0.759  0.00  0.00    +0.380 N 
ATOM     16  C   UNL     1       1.504  -0.495   0.749  0.00  0.00    -0.076 C 
ATOM     17  H   UNL     1       2.032  -2.306  -0.023  0.00  0.00    -0.082 HD
ENDBRANCH   9  15
ENDBRANCH   8   9
ENDBRANCH   7   8
ENDBRANCH   1   7
BRANCH   4  18
ATOM     18  C   UNL     1       4.133  -8.672   5.370  0.00  0.00    +0.145 C 
BRANCH  18  19
ATOM     19  C   UNL     1       4.013 -10.178   5.127  0.00  0.00    +0.107 C 
ATOM     20  C   UNL     1       2.546 -10.534   4.893  0.00  0.00    +0.041 C 
ATOM     21  C   UNL     1       2.417 -12.062   4.869  0.00  0.00    +0.008 C 
ATOM     22  C   UNL     1       2.653 -12.587   6.283  0.00  0.00    +0.035 C 
ATOM     23  C   UNL     1       3.932 -12.028   6.850  0.00  0.00    -0.041 A 
ATOM     24  C   UNL     1       4.554 -10.919   6.321  0.00  0.00    -0.011 A 
ATOM     25  C   UNL     1       5.729 -10.450   6.895  0.00  0.00    +0.007 A 
ATOM     26  C   UNL     1       6.278 -11.089   7.988  0.00  0.00    +0.000 A 
ATOM     27  C   UNL     1       5.655 -12.204   8.516  0.00  0.00    +0.000 A 
ATOM     28  C   UNL     1       4.487 -12.670   7.949  0.00  0.00    +0.004 A 
BRANCH  19  29
ATOM     29  O   UNL     1       4.773 -10.530   3.969  0.00  0.00    -0.382 OA
ATOM     30  H   UNL     1       5.715 -10.325   4.040  0.00  0.00    +0.211 HD
ENDBRANCH  19  29
ENDBRANCH  18  19
ENDBRANCH   4  18
TORSDOF 7
