REMARK  Name = ZINC26809385
REMARK  7 active torsions:
REMARK  status: ('A' for Active; 'I' for Inactive)
REMARK    1  A    between atoms: C_4  and  C_7
REMARK    2  A    between atoms: C_10  and  S_18
REMARK    3  A    between atoms: N_11  and  C_12
REMARK    4  A    between atoms: S_18  and  C_19
REMARK    5  A    between atoms: C_19  and  C_20
REMARK    6  A    between atoms: N_22  and  N_23
REMARK    7  A    between atoms: C_24  and  C_26
REMARK                            x       y       z     vdW  Elec       q    Type
REMARK                         _______ _______ _______ _____ _____    ______ ____
ROOT
ATOM      1  C   UNL     1      -8.695   0.646   2.110  0.00  0.00    +0.174 C 
ENDROOT
BRANCH   1   2
ATOM      2  C   UNL     1      -7.281   1.168   2.100  0.00  0.00    +0.239 C 
ATOM      3  O   UNL     1      -6.886   1.865   3.009  0.00  0.00    -0.273 OA
ATOM      4  N   UNL     1      -6.457   0.859   1.079  0.00  0.00    -0.234 N 
ATOM      5  H   UNL     1      -6.816   0.226   0.254  0.00  0.00    +0.173 HD
BRANCH   4   6
ATOM      6  N   UNL     1      -5.143   1.344   1.069  0.00  0.00    -0.234 N 
ATOM      7  C   UNL     1      -4.318   1.035   0.049  0.00  0.00    +0.235 C 
ATOM      8  O   UNL     1      -4.714   0.337  -0.861  0.00  0.00    -0.274 OA
ATOM      9  H   UNL     1      -4.784   1.976   1.894  0.00  0.00    +0.173 HD
BRANCH   7  10
ATOM     10  C   UNL     1      -2.904   1.556   0.038  0.00  0.00    +0.049 C 
ATOM     11  C   UNL     1      -2.188   1.063  -1.221  0.00  0.00    +0.019 C 
ATOM     12  C   UNL     1      -0.753   1.593  -1.232  0.00  0.00    -0.009 C 
ATOM     13  C   UNL     1      -0.013   1.086   0.008  0.00  0.00    +0.007 C 
ATOM     14  C   UNL     1      -0.729   1.579   1.267  0.00  0.00    -0.009 C 
ATOM     15  C   UNL     1      -2.164   1.050   1.278  0.00  0.00    +0.019 C 
ATOM     16  C   UNL     1      -0.750   3.109   1.275  0.00  0.00    +0.007 C 
ATOM     17  C   UNL     1      -1.490   3.616   0.036  0.00  0.00    -0.009 C 
ATOM     18  C   UNL     1      -0.773   3.123  -1.223  0.00  0.00    +0.007 C 
ATOM     19  C   UNL     1      -2.925   3.086   0.047  0.00  0.00    +0.019 C 
ENDBRANCH   7  10
ENDBRANCH   4   6
ENDBRANCH   1   2
BRANCH   1  20
ATOM     20  S   UNL     1      -9.542   1.230   3.599  0.00  0.00    -0.076 S 
BRANCH  20  24
ATOM     21  C   UNL     1     -13.205  -0.138   3.599  0.00  0.00    +0.169 A 
ATOM     22  N   UNL     1     -12.713  -0.628   2.485  0.00  0.00    -0.128 NA
ATOM     23  N   UNL     1     -11.490  -0.257   2.344  0.00  0.00    -0.122 NA
ATOM     24  C   UNL     1     -11.125   0.493   3.360  0.00  0.00    +0.197 A 
ATOM     25  N   UNL     1     -12.202   0.592   4.198  0.00  0.00    -0.270 N 
BRANCH  21  29
ATOM     26  C   UNL     1     -17.143  -0.710   5.085  0.00  0.00    +0.000 A 
ATOM     27  C   UNL     1     -16.664  -1.523   4.073  0.00  0.00    +0.001 A 
ATOM     28  C   UNL     1     -15.386  -1.343   3.586  0.00  0.00    +0.011 A 
ATOM     29  C   UNL     1     -14.576  -0.337   4.116  0.00  0.00    +0.020 A 
ATOM     30  C   UNL     1     -15.063   0.476   5.140  0.00  0.00    +0.011 A 
ATOM     31  C   UNL     1     -16.345   0.289   5.615  0.00  0.00    +0.001 A 
ENDBRANCH  21  29
BRANCH  25  32
ATOM     32  C   UNL     1     -12.270   1.290   5.411  0.00  0.00    +0.051 A 
ATOM     33  C   UNL     1     -12.459   0.601   6.601  0.00  0.00    +0.026 A 
ATOM     34  C   UNL     1     -12.521   1.291   7.796  0.00  0.00    +0.002 A 
ATOM     35  C   UNL     1     -12.406   2.669   7.806  0.00  0.00    +0.000 A 
ATOM     36  C   UNL     1     -12.223   3.359   6.622  0.00  0.00    +0.002 A 
ATOM     37  C   UNL     1     -12.155   2.674   5.425  0.00  0.00    +0.026 A 
ENDBRANCH  25  32
ENDBRANCH  20  24
ENDBRANCH   1  20
TORSDOF 7
