REMARK  Name = ZINC45645341
REMARK  7 active torsions:
REMARK  status: ('A' for Active; 'I' for Inactive)
REMARK    1  A    between atoms: C_1  and  C_2
REMARK    2  A    between atoms: C_2  and  C_4
REMARK    3  A    between atoms: C_2  and  O_23
REMARK    4  A    between atoms: N_6  and  C_7
REMARK    5  A    between atoms: O_23  and  C_24
REMARK    6  A    between atoms: C_24  and  C_26
REMARK    7  A    between atoms: C_28  and  C_32
REMARK                            x       y       z     vdW  Elec       q    Type
REMARK                         _______ _______ _______ _____ _____    ______ ____
ROOT
ATOM      1  C   UNL     1       0.730  -0.501   1.224  0.00  0.00    +0.258 C 
ATOM      2  O   UNL     1       0.132  -1.125   2.074  0.00  0.00    -0.271 OA
ATOM      3  N   UNL     1       2.045  -0.246   1.375  0.00  0.00    -0.282 N 
ATOM      4  H   UNL     1       2.538   0.195   0.666  0.00  0.00    +0.155 HD
ENDROOT
BRANCH   3   5
ATOM      5  C   UNL     1       2.696  -0.616   2.551  0.00  0.00    +0.034 A 
ATOM      6  C   UNL     1       3.708   0.187   3.064  0.00  0.00    +0.024 A 
ATOM      7  C   UNL     1       4.360  -0.171   4.228  0.00  0.00    +0.014 A 
ATOM      8  C   UNL     1       4.004  -1.342   4.895  0.00  0.00    +0.033 A 
ATOM      9  C   UNL     1       2.979  -2.157   4.379  0.00  0.00    +0.035 A 
ATOM     10  C   UNL     1       2.326  -1.786   3.210  0.00  0.00    +0.035 A 
ATOM     11  C   UNL     1       2.597  -3.400   5.082  0.00  0.00    +0.195 C 
ATOM     12  O   UNL     1       1.713  -4.104   4.637  0.00  0.00    -0.287 OA
ATOM     13  C   UNL     1       3.294  -3.785   6.328  0.00  0.00    +0.033 A 
ATOM     14  C   UNL     1       2.942  -4.954   6.997  0.00  0.00    +0.012 A 
ATOM     15  C   UNL     1       3.600  -5.307   8.162  0.00  0.00    +0.001 A 
ATOM     16  C   UNL     1       4.607  -4.505   8.668  0.00  0.00    +0.001 A 
ATOM     17  C   UNL     1       4.969  -3.339   8.015  0.00  0.00    +0.012 A 
ATOM     18  C   UNL     1       4.317  -2.970   6.842  0.00  0.00    +0.033 A 
ATOM     19  C   UNL     1       4.698  -1.727   6.139  0.00  0.00    +0.195 C 
ATOM     20  O   UNL     1       5.583  -1.023   6.584  0.00  0.00    -0.287 OA
ENDBRANCH   3   5
BRANCH   1  22
ATOM     21  C   UNL     1      -0.012   1.521  -0.005  0.00  0.00    +0.062 C 
ATOM     22  C   UNL     1       0.004  -0.009  -0.001  0.00  0.00    +0.259 C 
BRANCH  22  23
ATOM     23  O   UNL     1      -1.338  -0.500   0.012  0.00  0.00    -0.448 OA
BRANCH  23  24
ATOM     24  C   UNL     1      -1.923  -0.713  -1.183  0.00  0.00    +0.360 C 
ATOM     25  O   UNL     1      -1.311  -0.489  -2.208  0.00  0.00    -0.243 OA
BRANCH  24  26
ATOM     26  C   UNL     1      -3.309  -1.219  -1.246  0.00  0.00    +0.170 A 
ATOM     27  C   UNL     1      -4.046  -1.494  -2.419  0.00  0.00    +0.064 A 
ATOM     28  C   UNL     1      -5.265  -1.937  -1.987  0.00  0.00    +0.067 A 
ATOM     29  N   UNL     1      -5.231  -1.918  -0.624  0.00  0.00    -0.276 N 
ATOM     30  H   UNL     1      -5.963  -2.183  -0.045  0.00  0.00    +0.189 HD
ATOM     31  N   UNL     1      -4.085  -1.504  -0.218  0.00  0.00    -0.167 NA
BRANCH  28  32
ATOM     32  C   UNL     1      -6.402  -2.357  -2.836  0.00  0.00    -0.000 A 
ATOM     33  C   UNL     1      -6.287  -2.328  -4.225  0.00  0.00    +0.010 A 
ATOM     34  C   UNL     1      -7.352  -2.721  -5.011  0.00  0.00    +0.001 A 
ATOM     35  C   UNL     1      -8.531  -3.143  -4.423  0.00  0.00    +0.000 A 
ATOM     36  C   UNL     1      -8.651  -3.173  -3.045  0.00  0.00    +0.001 A 
ATOM     37  C   UNL     1      -7.592  -2.788  -2.249  0.00  0.00    +0.010 A 
ENDBRANCH  28  32
ENDBRANCH  24  26
ENDBRANCH  23  24
ENDBRANCH  22  23
ENDBRANCH   1  22
TORSDOF 6
