REMARK  Name = ZINC15972854
REMARK  4 active torsions:
REMARK  status: ('A' for Active; 'I' for Inactive)
REMARK    1  A    between atoms: C_1  and  C_2
REMARK    2  A    between atoms: C_13  and  C_16
REMARK    3  A    between atoms: C_16  and  C_17
REMARK    4  A    between atoms: N_29  and  C_32
REMARK                            x       y       z     vdW  Elec       q    Type
REMARK                         _______ _______ _______ _____ _____    ______ ____
ROOT
ATOM      1  C   UNL     1       0.288   1.927   0.626  0.00  0.00    +0.044 C 
ATOM      2  C   UNL     1       0.379   0.432   0.460  0.00  0.00    -0.050 A 
ATOM      3  C   UNL     1       0.575  -0.116  -0.794  0.00  0.00    +0.005 A 
ATOM      4  C   UNL     1       0.658  -1.484  -0.952  0.00  0.00    +0.024 A 
ATOM      5  C   UNL     1       0.548  -2.324   0.153  0.00  0.00    +0.039 A 
ATOM      6  C   UNL     1       0.353  -1.762   1.412  0.00  0.00    +0.004 A 
ATOM      7  C   UNL     1       0.274  -0.396   1.564  0.00  0.00    +0.011 A 
ATOM      8  C   UNL     1       0.281  -2.916   2.370  0.00  0.00    +0.136 C 
ATOM      9  C   UNL     1      -1.053  -2.941   3.126  0.00  0.00    +0.123 C 
ATOM     10  C   UNL     1      -0.737  -2.291   4.502  0.00  0.00    +0.108 C 
ATOM     11  C   UNL     1       0.762  -1.929   4.433  0.00  0.00    +0.072 C 
ATOM     12  N   UNL     1       1.330  -2.828   3.403  0.00  0.00    -0.295 NA
ATOM     13  C   UNL     1      -1.568  -1.028   4.489  0.00  0.00    +0.232 C 
ATOM     14  O   UNL     1      -1.620  -0.215   5.387  0.00  0.00    -0.274 OA
ATOM     15  N   UNL     1      -2.237  -0.948   3.333  0.00  0.00    -0.210 N 
ATOM     16  C   UNL     1      -2.025  -1.979   2.484  0.00  0.00    +0.233 C 
ATOM     17  O   UNL     1      -2.525  -2.115   1.388  0.00  0.00    -0.274 OA
ATOM     18  C   UNL     1       0.452  -4.144   1.518  0.00  0.00    +0.243 C 
ATOM     19  O   UNL     1       0.456  -5.295   1.900  0.00  0.00    -0.273 OA
ATOM     20  N   UNL     1       0.599  -3.717   0.249  0.00  0.00    -0.283 N 
ATOM     21  H   UNL     1       1.527  -3.736   3.797  0.00  0.00    +0.124 HD
ATOM     22  H   UNL     1       0.726  -4.307  -0.509  0.00  0.00    +0.155 HD
ENDROOT
BRANCH  15  23
ATOM     23  C   UNL     1      -3.096   0.118   3.026  0.00  0.00    +0.044 A 
ATOM     24  C   UNL     1      -2.585   1.399   2.870  0.00  0.00    +0.027 A 
ATOM     25  C   UNL     1      -3.432   2.448   2.568  0.00  0.00    +0.040 A 
ATOM     26  C   UNL     1      -4.790   2.221   2.421  0.00  0.00    +0.124 A 
ATOM     27  C   UNL     1      -5.302   0.944   2.576  0.00  0.00    +0.040 A 
ATOM     28  C   UNL     1      -4.457  -0.108   2.873  0.00  0.00    +0.027 A 
ATOM     29  F   UNL     1      -5.617   3.248   2.126  0.00  0.00    -0.205 F 
ENDBRANCH  15  23
BRANCH  11  30
ATOM     30  C   UNL     1       1.428  -2.159   5.791  0.00  0.00    +0.056 C 
BRANCH  30  31
ATOM     31  C   UNL     1       2.858  -1.685   5.736  0.00  0.00    -0.021 A 
ATOM     32  C   UNL     1       3.938  -2.436   5.473  0.00  0.00    +0.087 A 
ATOM     33  N   UNL     1       5.066  -1.662   5.509  0.00  0.00    -0.360 N 
ATOM     34  H   UNL     1       5.967  -1.982   5.351  0.00  0.00    +0.165 HD
ATOM     35  C   UNL     1       4.729  -0.359   5.804  0.00  0.00    +0.047 A 
ATOM     36  C   UNL     1       3.331  -0.316   5.953  0.00  0.00    +0.003 A 
ATOM     37  C   UNL     1       2.700   0.893   6.253  0.00  0.00    +0.010 A 
ATOM     38  C   UNL     1       3.445   2.030   6.398  0.00  0.00    +0.001 A 
ATOM     39  C   UNL     1       4.824   1.992   6.248  0.00  0.00    +0.002 A 
ATOM     40  C   UNL     1       5.468   0.808   5.961  0.00  0.00    +0.026 A 
ENDBRANCH  30  31
ENDBRANCH  11  30
TORSDOF 3
