REMARK  Name = ZINC00337038
REMARK  3 active torsions:
REMARK  status: ('A' for Active; 'I' for Inactive)
REMARK    1  A    between atoms: C_10  and  S_12
REMARK    2  A    between atoms: S_12  and  C_13
REMARK    3  A    between atoms: C_13  and  C_14
REMARK                            x       y       z     vdW  Elec       q    Type
REMARK                         _______ _______ _______ _____ _____    ______ ____
ROOT
ATOM      1  C   UNL     1      -1.816   1.388  -1.767  0.00  0.00    +0.002 C 
ATOM      2  C   UNL     1      -1.316  -0.011  -2.148  0.00  0.00    +0.002 C 
ATOM      3  C   UNL     1      -0.970  -0.747  -0.857  0.00  0.00    +0.029 C 
ATOM      4  C   UNL     1       0.002  -0.004   0.002  0.00  0.00    +0.128 C 
ATOM      5  C   UNL     1      -0.018   1.508   0.010  0.00  0.00    +0.097 C 
ATOM      6  C   UNL     1      -0.660   2.172  -1.192  0.00  0.00    +0.024 C 
ATOM      7  N   UNL     1       1.426   1.848  -0.002  0.00  0.00    -0.319 N 
ATOM      8  C   UNL     1       2.131   0.691  -0.204  0.00  0.00    +0.150 C 
ATOM      9  N   UNL     1       1.396  -0.379  -0.233  0.00  0.00    -0.258 NA
ATOM     10  H   UNL     1       1.805   2.734   0.113  0.00  0.00    +0.148 HD
ENDROOT
BRANCH   8  11
ATOM     11  S   UNL     1       3.881   0.657  -0.406  0.00  0.00    -0.079 S 
BRANCH  11  12
ATOM     12  C   UNL     1       4.138  -1.121  -0.624  0.00  0.00    +0.202 C 
BRANCH  12  13
ATOM     13  C   UNL     1       5.607  -1.396  -0.820  0.00  0.00    +0.366 C 
ATOM     14  O   UNL     1       6.399  -0.484  -0.813  0.00  0.00    -0.245 OA
ATOM     15  O   UNL     1       6.036  -2.655  -1.001  0.00  0.00    -0.245 OA
ENDBRANCH  12  13
ENDBRANCH  11  12
ENDBRANCH   8  11
TORSDOF 3
