REMARK  Name = ZINC39029952
REMARK  5 active torsions:
REMARK  status: ('A' for Active; 'I' for Inactive)
REMARK    1  A    between atoms: C_4  and  C_7
REMARK    2  A    between atoms: C_7  and  C_8
REMARK    3  A    between atoms: C_8  and  C_10
REMARK    4  A    between atoms: C_8  and  N_27
REMARK    5  A    between atoms: C_28  and  C_30
REMARK                            x       y       z     vdW  Elec       q    Type
REMARK                         _______ _______ _______ _____ _____    ______ ____
ROOT
ATOM      1  C   UNL     1       5.543  -1.588   1.383  0.00  0.00    +0.236 C 
ATOM      2  O   UNL     1       5.665  -2.786   1.529  0.00  0.00    -0.274 OA
ATOM      3  N   UNL     1       6.633  -0.816   1.207  0.00  0.00    -0.300 N 
ATOM      4  C   UNL     1       6.502   0.637   1.035  0.00  0.00    +0.106 C 
ATOM      5  C   UNL     1       7.394   1.337   2.065  0.00  0.00    +0.009 C 
ATOM      6  C   UNL     1       8.825   0.814   1.935  0.00  0.00    -0.037 C 
ATOM      7  C   UNL     1       8.854  -0.690   2.211  0.00  0.00    +0.009 C 
ATOM      8  C   UNL     1       7.976  -1.411   1.190  0.00  0.00    +0.106 C 
ATOM      9  C   UNL     1       9.730   1.539   2.932  0.00  0.00    +0.140 C 
ATOM     10  C   UNL     1       9.740   3.000   2.493  0.00  0.00    +0.042 C 
ATOM     11  N   UNL     1       9.360   3.676   3.505  0.00  0.00    -0.243 NA
ATOM     12  C   UNL     1       9.005   2.874   4.539  0.00  0.00    +0.216 C 
ATOM     13  N   UNL     1       9.168   1.593   4.282  0.00  0.00    -0.264 NA
ATOM     14  C   UNL     1      10.034   3.390   1.067  0.00  0.00    +0.034 C 
ATOM     15  C   UNL     1       9.156   2.479   0.188  0.00  0.00    -0.076 C 
ATOM     16  N   UNL     1       9.325   1.077   0.577  0.00  0.00    +0.385 N 
ATOM     17  H   UNL     1      10.306   0.843   0.538  0.00  0.00    -0.085 HD
ATOM     18  H   UNL     1       8.824   0.493  -0.075  0.00  0.00    -0.085 HD
ENDROOT
BRANCH   1  19
ATOM     19  C   UNL     1       4.171  -0.963   1.399  0.00  0.00    +0.164 C 
BRANCH  19  20
ATOM     20  N   UNL     1       3.229  -1.870   2.059  0.00  0.00    -0.299 N 
ATOM     21  C   UNL     1       3.018  -3.104   1.560  0.00  0.00    +0.251 C 
ATOM     22  O   UNL     1       3.611  -3.465   0.560  0.00  0.00    -0.270 OA
ATOM     23  H   UNL     1       2.756  -1.582   2.856  0.00  0.00    +0.150 HD
BRANCH  21  24
ATOM     24  C   UNL     1       2.075  -4.011   2.221  0.00  0.00    +0.074 A 
ATOM     25  C   UNL     1       1.723  -5.307   1.877  0.00  0.00    +0.021 A 
ATOM     26  C   UNL     1       0.801  -5.912   2.697  0.00  0.00    +0.008 A 
ATOM     27  C   UNL     1       0.310  -5.224   3.757  0.00  0.00    +0.046 A 
ATOM     28  S   UNL     1       1.089  -3.738   3.680  0.00  0.00    -0.092 S 
ENDBRANCH  21  24
ENDBRANCH  19  20
BRANCH  19  29
ATOM     29  C   UNL     1       3.711  -0.707  -0.038  0.00  0.00    +0.067 C 
BRANCH  29  33
ATOM     30  C   UNL     1      -0.017   1.378   0.010  0.00  0.00    +0.000 A 
ATOM     31  C   UNL     1       1.171   2.086   0.002  0.00  0.00    +0.000 A 
ATOM     32  C   UNL     1       2.377   1.411  -0.013  0.00  0.00    +0.004 A 
ATOM     33  C   UNL     1       2.396   0.029  -0.020  0.00  0.00    -0.045 A 
ATOM     34  C   UNL     1       1.208  -0.679  -0.012  0.00  0.00    +0.004 A 
ATOM     35  C   UNL     1       0.002  -0.004   0.002  0.00  0.00    +0.000 A 
ENDBRANCH  29  33
ENDBRANCH  19  29
ENDBRANCH   1  19
TORSDOF 5
