REMARK  Name = ZINC40571092
REMARK  8 active torsions:
REMARK  status: ('A' for Active; 'I' for Inactive)
REMARK    1  A    between atoms: C_4  and  C_7
REMARK    2  A    between atoms: C_7  and  C_8
REMARK    3  A    between atoms: C_7  and  N_14
REMARK    4  A    between atoms: N_17  and  C_20
REMARK    5  A    between atoms: C_20  and  C_21
REMARK    6  A    between atoms: C_21  and  C_22
REMARK    7  A    between atoms: N_24  and  N_25
REMARK    8  A    between atoms: C_26  and  C_27
REMARK                            x       y       z     vdW  Elec       q    Type
REMARK                         _______ _______ _______ _____ _____    ______ ____
ROOT
ATOM      1  N   UNL     1       3.538  -1.965  -0.776  0.00  0.00    -0.295 NA
ATOM      2  C   UNL     1       2.517  -2.811  -0.143  0.00  0.00    +0.067 C 
ATOM      3  C   UNL     1       2.324  -4.082  -0.974  0.00  0.00    -0.063 C 
ATOM      4  N   UNL     1       3.599  -4.806  -1.063  0.00  0.00    +0.382 N 
ATOM      5  C   UNL     1       4.602  -3.957  -1.720  0.00  0.00    -0.063 C 
ATOM      6  C   UNL     1       4.813  -2.686  -0.895  0.00  0.00    +0.067 C 
ATOM      7  H   UNL     1       3.916  -5.045  -0.136  0.00  0.00    -0.082 HD
ENDROOT
BRANCH   1   8
ATOM      8  C   UNL     1       3.711  -0.707  -0.038  0.00  0.00    +0.117 C 
BRANCH   8  12
ATOM      9  C   UNL     1       6.585   1.736  -2.043  0.00  0.00    +0.000 A 
ATOM     10  C   UNL     1       6.641   1.588  -0.669  0.00  0.00    +0.000 A 
ATOM     11  C   UNL     1       5.711   0.798  -0.021  0.00  0.00    +0.005 A 
ATOM     12  C   UNL     1       4.725   0.155  -0.745  0.00  0.00    -0.026 A 
ATOM     13  C   UNL     1       4.668   0.304  -2.118  0.00  0.00    +0.005 A 
ATOM     14  C   UNL     1       5.599   1.093  -2.767  0.00  0.00    +0.000 A 
ENDBRANCH   8  12
BRANCH   8  15
ATOM     15  C   UNL     1       2.393   0.021   0.032  0.00  0.00    -0.026 A 
ATOM     16  C   UNL     1       1.600   0.122  -1.096  0.00  0.00    +0.005 A 
ATOM     17  C   UNL     1       0.391   0.789  -1.032  0.00  0.00    +0.000 A 
ATOM     18  C   UNL     1      -0.025   1.355   0.159  0.00  0.00    +0.000 A 
ATOM     19  C   UNL     1       0.768   1.253   1.286  0.00  0.00    +0.000 A 
ATOM     20  C   UNL     1       1.975   0.582   1.224  0.00  0.00    +0.005 A 
ENDBRANCH   8  15
ENDBRANCH   1   8
BRANCH   4  21
ATOM     21  C   UNL     1       3.410  -6.035  -1.846  0.00  0.00    -0.069 C 
BRANCH  21  22
ATOM     22  C   UNL     1       4.704  -6.851  -1.835  0.00  0.00    +0.079 C 
BRANCH  22  23
ATOM     23  C   UNL     1       4.509  -8.112  -2.638  0.00  0.00    +0.230 C 
ATOM     24  O   UNL     1       3.441  -8.335  -3.167  0.00  0.00    -0.274 OA
ATOM     25  N   UNL     1       5.523  -8.991  -2.768  0.00  0.00    -0.207 N 
ATOM     26  H   UNL     1       6.377  -8.812  -2.345  0.00  0.00    +0.177 HD
BRANCH  25  27
ATOM     27  N   UNL     1       5.342 -10.162  -3.514  0.00  0.00    -0.188 NA
ATOM     28  C   UNL     1       6.319 -11.010  -3.640  0.00  0.00    +0.140 C 
BRANCH  28  29
ATOM     29  C   UNL     1       6.129 -12.241  -4.424  0.00  0.00    +0.020 A 
ATOM     30  C   UNL     1       7.051 -13.218  -4.638  0.00  0.00    +0.093 A 
ATOM     31  N   UNL     1       6.508 -14.200  -5.412  0.00  0.00    -0.360 N 
ATOM     32  H   UNL     1       6.973 -15.001  -5.699  0.00  0.00    +0.165 HD
ATOM     33  C   UNL     1       5.202 -13.890  -5.731  0.00  0.00    +0.047 A 
ATOM     34  C   UNL     1       4.902 -12.658  -5.125  0.00  0.00    +0.008 A 
ATOM     35  C   UNL     1       3.636 -12.097  -5.274  0.00  0.00    +0.010 A 
ATOM     36  C   UNL     1       2.680 -12.758  -6.014  0.00  0.00    +0.001 A 
ATOM     37  C   UNL     1       2.974 -13.976  -6.610  0.00  0.00    +0.002 A 
ATOM     38  C   UNL     1       4.225 -14.538  -6.479  0.00  0.00    +0.026 A 
ENDBRANCH  28  29
ENDBRANCH  25  27
ENDBRANCH  22  23
ENDBRANCH  21  22
ENDBRANCH   4  21
TORSDOF 8
