REMARK  Name = ZINC06507131
REMARK  9 active torsions:
REMARK  status: ('A' for Active; 'I' for Inactive)
REMARK    1  A    between atoms: C_1  and  C_2
REMARK    2  A    between atoms: C_2  and  C_3
REMARK    3  A    between atoms: C_2  and  C_4
REMARK    4  A    between atoms: C_2  and  C_5
REMARK    5  A    between atoms: C_12  and  N_27
REMARK    6  A    between atoms: C_13  and  C_25
REMARK    7  A    between atoms: C_14  and  C_16
REMARK    8  A    between atoms: C_18  and  O_23
REMARK    9  A    between atoms: O_23  and  C_24
REMARK                            x       y       z     vdW  Elec       q    Type
REMARK                         _______ _______ _______ _____ _____    ______ ____
ROOT
ATOM      1  C   UNL     1       0.835  -0.251  -1.258  0.00  0.00    +0.049 A 
ATOM      2  C   UNL     1       0.942  -1.525  -1.665  0.00  0.00    +0.050 A 
ATOM      3  C   UNL     1       1.662  -1.539  -2.880  0.00  0.00    +0.245 A 
ATOM      4  N   UNL     1       1.972  -0.310  -3.178  0.00  0.00    -0.135 NA
ATOM      5  N   UNL     1       1.458   0.526  -2.174  0.00  0.00    -0.277 N 
ATOM      6  H   UNL     1       1.537   1.492  -2.142  0.00  0.00    +0.189 HD
ATOM      7  O   UNL     1       1.931  -2.694  -3.546  0.00  0.00    -0.421 OA
ATOM      8  C   UNL     1       1.263  -3.800  -3.163  0.00  0.00    +0.201 C 
ATOM      9  C   UNL     1       0.553  -3.909  -2.021  0.00  0.00    +0.098 C 
ATOM     10  C   UNL     1       0.426  -2.787  -1.021  0.00  0.00    +0.104 C 
ENDROOT
BRANCH  10  11
ATOM     11  C   UNL     1       1.242  -3.103   0.205  0.00  0.00    +0.004 A 
ATOM     12  C   UNL     1       2.621  -3.150   0.124  0.00  0.00    +0.053 A 
ATOM     13  C   UNL     1       3.372  -3.441   1.253  0.00  0.00    +0.121 A 
ATOM     14  C   UNL     1       2.738  -3.683   2.463  0.00  0.00    +0.048 A 
ATOM     15  C   UNL     1       1.360  -3.636   2.541  0.00  0.00    +0.042 A 
ATOM     16  C   UNL     1       0.611  -3.340   1.414  0.00  0.00    +0.128 A 
ATOM     17  F   UNL     1      -0.736  -3.288   1.494  0.00  0.00    -0.205 F 
BRANCH  13  18
ATOM     18  O   UNL     1       4.729  -3.488   1.174  0.00  0.00    -0.495 OA
ATOM     19  C   UNL     1       5.438  -3.793   2.377  0.00  0.00    +0.277 C 
ENDBRANCH  13  18
ENDBRANCH  10  11
BRANCH   1  21
ATOM     20  C   UNL     1       0.101   1.758  -0.003  0.00  0.00    +0.017 C 
ATOM     21  C   UNL     1       0.142   0.228  -0.008  0.00  0.00    +0.004 C 
ATOM     22  C   UNL     1       0.907  -0.265   1.221  0.00  0.00    +0.017 C 
ATOM     23  C   UNL     1      -1.286  -0.321   0.025  0.00  0.00    +0.017 C 
ENDBRANCH   1  21
BRANCH   8  24
ATOM     24  N   UNL     1       1.309  -4.893  -3.993  0.00  0.00    -0.328 N 
ATOM     25  H   UNL     1       1.810  -4.851  -4.823  0.00  0.00    +0.145 HD
ATOM     26  H   UNL     1       0.840  -5.707  -3.750  0.00  0.00    +0.145 HD
ENDBRANCH   8  24
BRANCH   9  27
ATOM     27  C   UNL     1      -0.111  -5.147  -1.745  0.00  0.00    +0.101 C 
ATOM     28  N   UNL     1      -0.637  -6.130  -1.526  0.00  0.00    -0.191 NA
ENDBRANCH   9  27
TORSDOF 5
