REMARK  Name = ZINC27432812
REMARK  4 active torsions:
REMARK  status: ('A' for Active; 'I' for Inactive)
REMARK    1  A    between atoms: C_3  and  C_25
REMARK    2  A    between atoms: C_6  and  C_7
REMARK    3  A    between atoms: C_8  and  C_9
REMARK    4  A    between atoms: C_13  and  C_18
REMARK                            x       y       z     vdW  Elec       q    Type
REMARK                         _______ _______ _______ _____ _____    ______ ____
ROOT
ATOM      1  C   UNL     1      -7.250   4.596   0.059  0.00  0.00    +0.083 A 
ATOM      2  C   UNL     1      -8.498   4.087   0.283  0.00  0.00    +0.120 A 
ATOM      3  N   UNL     1      -9.395   5.034  -0.125  0.00  0.00    -0.305 N 
ATOM      4  C   UNL     1     -10.757   5.060  -0.132  0.00  0.00    +0.104 A 
ATOM      5  C   UNL     1     -11.426   6.151  -0.602  0.00  0.00    +0.029 A 
ATOM      6  C   UNL     1     -10.705   7.269  -1.088  0.00  0.00    +0.016 A 
ATOM      7  C   UNL     1      -9.348   7.245  -1.082  0.00  0.00    +0.047 A 
ATOM      8  C   UNL     1      -8.674   6.105  -0.591  0.00  0.00    +0.138 A 
ATOM      9  N   UNL     1      -7.387   5.827  -0.468  0.00  0.00    -0.228 NA
ENDROOT
BRANCH   5  10
ATOM     10  C   UNL     1     -12.905   6.167  -0.604  0.00  0.00    +0.101 C 
ATOM     11  N   UNL     1     -13.568   5.090  -0.921  0.00  0.00    -0.386 N 
ATOM     12  N   UNL     1     -13.582   7.320  -0.271  0.00  0.00    -0.317 N 
ATOM     13  C   UNL     1     -12.969   8.561   0.224  0.00  0.00    +0.106 C 
ATOM     14  C   UNL     1     -14.112   9.565   0.484  0.00  0.00    +0.020 C 
ATOM     15  C   UNL     1     -15.346   8.643   0.666  0.00  0.00    +0.020 C 
ATOM     16  C   UNL     1     -15.042   7.511  -0.347  0.00  0.00    +0.106 C 
ATOM     17  H   UNL     1     -14.668   5.102  -0.922  0.00  0.00    +0.157 HD
ATOM     18  H   UNL     1     -13.027   4.170  -1.186  0.00  0.00    +0.157 HD
ENDBRANCH   5  10
BRANCH   1  20
ATOM     19  C   UNL     1      -4.810   4.530   0.079  0.00  0.00    +0.010 C 
ATOM     20  C   UNL     1      -5.975   3.917   0.348  0.00  0.00    +0.030 C 
BRANCH  19  26
ATOM     21  C   UNL     1      -2.324   4.490   0.089  0.00  0.00    +0.008 A 
ATOM     22  C   UNL     1      -1.142   3.859   0.358  0.00  0.00    +0.012 A 
ATOM     23  C   UNL     1      -1.145   2.577   0.912  0.00  0.00    +0.013 A 
ATOM     24  C   UNL     1      -2.356   1.937   1.187  0.00  0.00    +0.012 A 
ATOM     25  C   UNL     1      -3.538   2.568   0.924  0.00  0.00    +0.008 A 
ATOM     26  C   UNL     1      -3.537   3.852   0.369  0.00  0.00    -0.025 A 
BRANCH  23  27
ATOM     27  C   UNL     1       0.135   1.895   1.202  0.00  0.00    +0.099 C 
ATOM     28  N   UNL     1       1.128   1.989   0.363  0.00  0.00    -0.386 N 
ATOM     29  N   UNL     1       0.275   1.155   2.356  0.00  0.00    -0.317 N 
ATOM     30  C   UNL     1      -0.711   1.067   3.443  0.00  0.00    +0.106 C 
ATOM     31  C   UNL     1      -0.114   0.149   4.530  0.00  0.00    +0.020 C 
ATOM     32  C   UNL     1       1.410   0.231   4.254  0.00  0.00    +0.020 C 
ATOM     33  C   UNL     1       1.441   0.324   2.708  0.00  0.00    +0.106 C 
ATOM     34  H   UNL     1       2.080   1.481   0.579  0.00  0.00    +0.157 HD
ATOM     35  H   UNL     1       1.014   2.576  -0.560  0.00  0.00    +0.157 HD
ENDBRANCH  23  27
ENDBRANCH  19  26
ENDBRANCH   1  20
TORSDOF 4
