REMARK  Name = ZINC65156683
REMARK  4 active torsions:
REMARK  status: ('A' for Active; 'I' for Inactive)
REMARK    1  A    between atoms: C_4  and  C_7
REMARK    2  A    between atoms: C_9  and  C_13
REMARK    3  A    between atoms: C_18  and  N_19
REMARK    4  A    between atoms: C_20  and  C_22
REMARK                            x       y       z     vdW  Elec       q    Type
REMARK                         _______ _______ _______ _____ _____    ______ ____
ROOT
ATOM      1  C   UNL     1       5.703  -3.692  -0.094  0.00  0.00    +0.040 A 
ATOM      2  C   UNL     1       7.080  -3.878  -0.212  0.00  0.00    +0.013 A 
ATOM      3  C   UNL     1       7.603  -5.154  -0.229  0.00  0.00    +0.001 A 
ATOM      4  C   UNL     1       6.767  -6.254  -0.128  0.00  0.00    +0.002 A 
ATOM      5  C   UNL     1       5.401  -6.083  -0.011  0.00  0.00    +0.024 A 
ATOM      6  C   UNL     1       4.859  -4.806   0.013  0.00  0.00    +0.044 A 
ENDROOT
BRANCH   1   9
ATOM      7  C   UNL     1       3.711  -0.690  -0.044  0.00  0.00    +0.182 A 
ATOM      8  N   UNL     1       3.856  -2.020  -0.057  0.00  0.00    -0.207 NA
ATOM      9  C   UNL     1       5.136  -2.327  -0.076  0.00  0.00    +0.158 A 
ATOM     10  N   UNL     1       5.843  -1.172  -0.076  0.00  0.00    -0.258 N 
ATOM     11  H   UNL     1       6.809  -1.082  -0.088  0.00  0.00    +0.191 HD
ATOM     12  N   UNL     1       4.901  -0.130  -0.061  0.00  0.00    -0.152 NA
BRANCH   7  16
ATOM     13  C   UNL     1       0.003   1.391   0.020  0.00  0.00    +0.000 A 
ATOM     14  C   UNL     1       1.191   2.099   0.005  0.00  0.00    +0.001 A 
ATOM     15  C   UNL     1       2.397   1.429  -0.015  0.00  0.00    +0.011 A 
ATOM     16  C   UNL     1       2.417   0.036  -0.021  0.00  0.00    +0.021 A 
ATOM     17  C   UNL     1       1.218  -0.673  -0.006  0.00  0.00    +0.011 A 
ATOM     18  C   UNL     1       0.017   0.007   0.015  0.00  0.00    +0.001 A 
ENDBRANCH   7  16
ENDBRANCH   1   9
BRANCH   6  19
ATOM     19  N   UNL     1       3.481  -4.632   0.137  0.00  0.00    -0.278 N 
ATOM     20  C   UNL     1       2.759  -5.486   0.890  0.00  0.00    +0.284 C 
ATOM     21  O   UNL     1       3.320  -6.349   1.539  0.00  0.00    -0.266 OA
ATOM     22  H   UNL     1       3.042  -3.896  -0.317  0.00  0.00    +0.155 HD
BRANCH  20  23
ATOM     23  C   UNL     1       1.299  -5.375   0.926  0.00  0.00    +0.191 A 
ATOM     24  C   UNL     1       0.451  -6.168   1.647  0.00  0.00    +0.056 A 
ATOM     25  C   UNL     1      -0.849  -5.711   1.387  0.00  0.00    +0.063 A 
ATOM     26  C   UNL     1      -0.741  -4.670   0.528  0.00  0.00    +0.195 A 
ATOM     27  O   UNL     1       0.555  -4.468   0.258  0.00  0.00    -0.439 OA
ATOM     28 CL   UNL     1      -2.064  -3.746  -0.112  0.00  0.00    -0.043 Cl
ENDBRANCH  20  23
ENDBRANCH   6  19
TORSDOF 4
