REMARK  Name = ZINC35401532
REMARK  10 active torsions:
REMARK  status: ('A' for Active; 'I' for Inactive)
REMARK    1  A    between atoms: C_1  and  C_2
REMARK    2  A    between atoms: C_5  and  C_32
REMARK    3  A    between atoms: N_8  and  C_10
REMARK    4  A    between atoms: C_10  and  C_11
REMARK    5  A    between atoms: C_11  and  N_12
REMARK    6  A    between atoms: N_12  and  C_13
REMARK    7  A    between atoms: N_12  and  S_23
REMARK    8  A    between atoms: C_13  and  C_14
REMARK    9  A    between atoms: C_14  and  C_15
REMARK   10  A    between atoms: S_23  and  C_26
REMARK                            x       y       z     vdW  Elec       q    Type
REMARK                         _______ _______ _______ _____ _____    ______ ____
ROOT
ATOM      1  N   UNL     1       3.766  -2.508   3.387  0.00  0.00    -0.177 NA
ENDROOT
BRANCH   1   2
ATOM      2  S   UNL     1       4.019  -1.516   4.689  0.00  0.00    +0.067 S 
ATOM      3  O   UNL     1       5.267  -1.895   5.252  0.00  0.00    -0.152 OA
ATOM      4  O   UNL     1       3.753  -0.191   4.247  0.00  0.00    -0.152 OA
BRANCH   2   5
ATOM      5  C   UNL     1       2.787  -1.904   5.887  0.00  0.00    +0.144 A 
ATOM      6  C   UNL     1       2.833  -2.808   6.895  0.00  0.00    +0.038 A 
ATOM      7  C   UNL     1       1.734  -2.945   7.724  0.00  0.00    +0.030 A 
ATOM      8  C   UNL     1       0.643  -2.169   7.502  0.00  0.00    +0.080 A 
ATOM      9  S   UNL     1       1.158  -1.203   6.092  0.00  0.00    -0.057 S 
ATOM     10 CL   UNL     1      -0.860  -2.124   8.369  0.00  0.00    -0.076 Cl
ENDBRANCH   2   5
ENDBRANCH   1   2
BRANCH   1  11
ATOM     11  C   UNL     1       2.993  -2.028   2.239  0.00  0.00    +0.091 C 
BRANCH  11  12
ATOM     12  C   UNL     1       1.534  -2.461   2.390  0.00  0.00    -0.061 C 
BRANCH  12  18
ATOM     13  C   UNL     1      -0.019   1.526   0.010  0.00  0.00    +0.005 C 
ATOM     14  C   UNL     1       0.002  -0.004   0.002  0.00  0.00    -0.031 C 
ATOM     15  C   UNL     1      -1.434  -0.535   0.015  0.00  0.00    +0.003 C 
ATOM     16  C   UNL     1      -1.402  -2.064   0.086  0.00  0.00    -0.031 C 
ATOM     17  C   UNL     1      -0.613  -2.496   1.324  0.00  0.00    -0.076 C 
ATOM     18  N   UNL     1       0.758  -1.980   1.239  0.00  0.00    +0.381 N 
ATOM     19  C   UNL     1       0.740  -0.512   1.242  0.00  0.00    -0.076 C 
ATOM     20  C   UNL     1      -2.832  -2.602   0.177  0.00  0.00    +0.005 C 
ATOM     21  H   UNL     1       1.188  -2.307   0.386  0.00  0.00    -0.082 HD
ENDBRANCH  12  18
ENDBRANCH  11  12
ENDBRANCH   1  11
BRANCH   1  22
ATOM     22  C   UNL     1       4.315  -3.866   3.384  0.00  0.00    +0.118 C 
BRANCH  22  23
ATOM     23  C   UNL     1       5.664  -3.869   2.662  0.00  0.00    +0.113 C 
BRANCH  23  24
ATOM     24  C   UNL     1       6.229  -5.266   2.658  0.00  0.00    +0.217 C 
ATOM     25  O   UNL     1       5.614  -6.170   3.183  0.00  0.00    -0.276 OA
ATOM     26  N   UNL     1       7.418  -5.511   2.073  0.00  0.00    -0.305 N 
ATOM     27  C   UNL     1       8.185  -4.428   1.437  0.00  0.00    +0.088 C 
ATOM     28  C   UNL     1       9.621  -4.472   1.969  0.00  0.00    -0.063 C 
ATOM     29  N   UNL     1      10.179  -5.814   1.760  0.00  0.00    +0.381 N 
ATOM     30  C   UNL     1       9.432  -6.796   2.556  0.00  0.00    -0.063 C 
ATOM     31  C   UNL     1       7.989  -6.866   2.058  0.00  0.00    +0.088 C 
ATOM     32  H   UNL     1      10.113  -6.056   0.783  0.00  0.00    -0.086 HD
ATOM     33  H   UNL     1      11.148  -5.822   2.041  0.00  0.00    -0.086 HD
ENDBRANCH  23  24
ENDBRANCH  22  23
ENDBRANCH   1  22
TORSDOF 8
