REMARK  Name = ZINC38877433
REMARK  3 active torsions:
REMARK  status: ('A' for Active; 'I' for Inactive)
REMARK    1  A    between atoms: C_1  and  C_2
REMARK    2  A    between atoms: C_2  and  C_21
REMARK    3  A    between atoms: C_5  and  C_8
REMARK                            x       y       z     vdW  Elec       q    Type
REMARK                         _______ _______ _______ _____ _____    ______ ____
ROOT
ATOM      1  C   UNL     1       2.743  -1.776   1.578  0.00  0.00    +0.212 C 
ATOM      2  C   UNL     1       2.839  -1.277   3.027  0.00  0.00    +0.127 C 
ATOM      3  C   UNL     1       3.497  -2.380   3.838  0.00  0.00    +0.170 C 
ATOM      4  O   UNL     1       4.315  -2.136   4.699  0.00  0.00    -0.292 OA
ATOM      5  C   UNL     1       3.089  -3.760   3.524  0.00  0.00    +0.062 A 
ATOM      6  C   UNL     1       3.439  -4.816   4.368  0.00  0.00    +0.053 A 
ATOM      7  C   UNL     1       3.050  -6.102   4.048  0.00  0.00    +0.124 A 
ATOM      8  C   UNL     1       2.316  -6.341   2.895  0.00  0.00    +0.042 A 
ATOM      9  C   UNL     1       1.963  -5.303   2.057  0.00  0.00    +0.049 A 
ATOM     10  C   UNL     1       2.341  -4.002   2.361  0.00  0.00    +0.132 A 
ATOM     11  O   UNL     1       1.983  -2.985   1.543  0.00  0.00    -0.485 OA
ATOM     12  F   UNL     1       3.386  -7.129   4.859  0.00  0.00    -0.205 F 
ENDROOT
BRANCH   1  17
ATOM     13  C   UNL     1      -0.019   1.526   0.010  0.00  0.00    +0.074 C 
ATOM     14  C   UNL     1       0.002  -0.004   0.002  0.00  0.00    +0.165 C 
ATOM     15  O   UNL     1       0.685  -0.470  -1.169  0.00  0.00    -0.346 OA
ATOM     16  C   UNL     1       1.825  -1.234  -0.725  0.00  0.00    +0.198 C 
ATOM     17  C   UNL     1       2.054  -0.716   0.717  0.00  0.00    +0.188 C 
ATOM     18  O   UNL     1       0.697  -0.484   1.165  0.00  0.00    -0.340 OA
ATOM     19  C   UNL     1      -1.432  -0.537   0.003  0.00  0.00    +0.074 C 
ENDBRANCH   1  17
TORSDOF 1
