REMARK  Name = ZINC21605462
REMARK  15 active torsions:
REMARK  status: ('A' for Active; 'I' for Inactive)
REMARK    1  A    between atoms: C_1  and  C_2
REMARK    2  A    between atoms: C_5  and  C_32
REMARK    3  A    between atoms: C_6  and  O_8
REMARK    4  A    between atoms: O_8  and  C_9
REMARK    5  A    between atoms: C_9  and  C_10
REMARK    6  A    between atoms: C_13  and  S_16
REMARK    7  A    between atoms: N_14  and  N_15
REMARK    8  A    between atoms: S_16  and  C_17
REMARK    9  A    between atoms: C_17  and  C_19
REMARK   10  A    between atoms: C_17  and  C_20
REMARK   11  A    between atoms: N_22  and  C_23
REMARK   12  A    between atoms: C_26  and  O_30
REMARK   13  A    between atoms: O_30  and  C_31
REMARK   14  A    between atoms: C_32  and  C_33
REMARK   15  A    between atoms: C_32  and  C_34
REMARK                            x       y       z     vdW  Elec       q    Type
REMARK                         _______ _______ _______ _____ _____    ______ ____
ROOT
ATOM      1  C   UNL     1       5.842   3.099  -1.014  0.00  0.00    +0.189 A 
ATOM      2  N   UNL     1       5.003   3.936  -0.472  0.00  0.00    -0.128 NA
ATOM      3  N   UNL     1       3.859   3.373  -0.311  0.00  0.00    -0.121 NA
ATOM      4  C   UNL     1       3.906   2.135  -0.746  0.00  0.00    +0.209 A 
ATOM      5  N   UNL     1       5.175   1.920  -1.202  0.00  0.00    -0.225 N 
ENDROOT
BRANCH   5   6
ATOM      6  N   UNL     1       5.674   0.767  -1.739  0.00  0.00    -0.295 N 
ATOM      7  H   UNL     1       5.029  -0.119  -1.837  0.00  0.00    +0.163 HD
ATOM      8  H   UNL     1       6.721   0.724  -2.074  0.00  0.00    +0.163 HD
ENDBRANCH   5   6
BRANCH   1   9
ATOM      9  C   UNL     1       7.282   3.376  -1.362  0.00  0.00    +0.306 C 
BRANCH   9  10
ATOM     10  O   UNL     1       8.113   3.049  -0.246  0.00  0.00    -0.484 OA
BRANCH  10  16
ATOM     11  C   UNL     1      11.856   4.470  -3.038  0.00  0.00    +0.044 C 
ATOM     12  C   UNL     1      11.310   3.933  -1.740  0.00  0.00    -0.047 A 
ATOM     13  C   UNL     1      12.171   3.636  -0.700  0.00  0.00    +0.004 A 
ATOM     14  C   UNL     1      11.674   3.142   0.492  0.00  0.00    +0.008 A 
ATOM     15  C   UNL     1      10.315   2.950   0.649  0.00  0.00    -0.003 A 
ATOM     16  C   UNL     1       9.450   3.242  -0.396  0.00  0.00    +0.125 A 
ATOM     17  C   UNL     1       9.951   3.737  -1.591  0.00  0.00    +0.049 A 
BRANCH  15  18
ATOM     18  C   UNL     1       9.773   2.419   1.950  0.00  0.00    +0.016 C 
ATOM     19  C   UNL     1      10.380   1.043   2.232  0.00  0.00    +0.012 C 
ATOM     20  C   UNL     1      10.138   3.378   3.085  0.00  0.00    +0.012 C 
ENDBRANCH  15  18
ENDBRANCH  10  16
ENDBRANCH   9  10
ENDBRANCH   1   9
BRANCH   4  21
ATOM     21  S   UNL     1       2.585   0.969  -0.736  0.00  0.00    -0.072 S 
BRANCH  21  22
ATOM     22  C   UNL     1       1.280   1.980   0.007  0.00  0.00    +0.137 C 
ATOM     23  C   UNL     1       1.664   2.331   1.446  0.00  0.00    +0.029 C 
BRANCH  22  24
ATOM     24  C   UNL     1      -0.014   1.209   0.007  0.00  0.00    +0.230 C 
ATOM     25  O   UNL     1       0.002  -0.004  -0.008  0.00  0.00    -0.274 OA
ATOM     26  N   UNL     1      -1.191   1.867   0.018  0.00  0.00    -0.285 N 
ATOM     27  H   UNL     1      -1.207   2.963   0.108  0.00  0.00    +0.155 HD
BRANCH  26  28
ATOM     28  C   UNL     1      -2.393   1.154  -0.086  0.00  0.00    +0.035 A 
ATOM     29  C   UNL     1      -3.469   1.704  -0.770  0.00  0.00    +0.027 A 
ATOM     30  C   UNL     1      -4.652   1.000  -0.877  0.00  0.00    +0.049 A 
ATOM     31  C   UNL     1      -4.769  -0.253  -0.292  0.00  0.00    +0.138 A 
ATOM     32  C   UNL     1      -3.696  -0.801   0.396  0.00  0.00    +0.084 A 
ATOM     33  C   UNL     1      -2.510  -0.099   0.499  0.00  0.00    +0.047 A 
ATOM     34 CL   UNL     1      -3.843  -2.368   1.128  0.00  0.00    -0.080 Cl
BRANCH  31  35
ATOM     35  O   UNL     1      -5.936  -0.944  -0.394  0.00  0.00    -0.494 OA
ATOM     36  C   UNL     1      -6.999  -0.319  -1.117  0.00  0.00    +0.277 C 
ENDBRANCH  31  35
ENDBRANCH  26  28
ENDBRANCH  22  24
ENDBRANCH  21  22
ENDBRANCH   4  21
TORSDOF 10
