REMARK  Name = ZINC13065487
REMARK  12 active torsions:
REMARK  status: ('A' for Active; 'I' for Inactive)
REMARK    1  A    between atoms: C_1  and  C_2
REMARK    2  A    between atoms: C_2  and  O_3
REMARK    3  A    between atoms: O_3  and  C_4
REMARK    4  A    between atoms: C_11  and  C_16
REMARK    5  A    between atoms: C_16  and  N_67
REMARK    6  A    between atoms: C_17  and  C_18
REMARK    7  A    between atoms: C_17  and  N_67
REMARK    8  A    between atoms: C_21  and  C_24
REMARK    9  A    between atoms: C_25  and  C_26
REMARK   10  A    between atoms: C_25  and  N_67
REMARK   11  A    between atoms: N_30  and  C_31
REMARK   12  A    between atoms: C_31  and  C_32
REMARK                            x       y       z     vdW  Elec       q    Type
REMARK                         _______ _______ _______ _____ _____    ______ ____
ROOT
ATOM      1  N   UNL     1       1.572  -2.083  -1.322  0.00  0.00    +0.390 N 
ATOM      2  H   UNL     1       0.850  -1.854  -2.014  0.00  0.00    -0.080 HD
ENDROOT
BRANCH   1   3
ATOM      3  C   UNL     1       1.380  -3.478  -0.873  0.00  0.00    -0.036 C 
BRANCH   3  11
ATOM      4  C   UNL     1      -4.406  -5.214  -2.262  0.00  0.00    +0.121 A 
ATOM      5  C   UNL     1      -4.961  -4.889  -1.026  0.00  0.00    +0.047 A 
ATOM      6  C   UNL     1      -4.179  -4.362  -0.022  0.00  0.00    +0.030 A 
ATOM      7  C   UNL     1      -2.821  -4.149  -0.239  0.00  0.00    +0.049 A 
ATOM      8  C   UNL     1      -2.257  -4.476  -1.486  0.00  0.00    +0.002 A 
ATOM      9  C   UNL     1      -3.062  -5.011  -2.497  0.00  0.00    +0.055 A 
ATOM     10  C   UNL     1      -0.827  -4.247  -1.700  0.00  0.00    +0.017 A 
ATOM     11  C   UNL     1      -0.094  -3.726  -0.685  0.00  0.00    +0.001 A 
ATOM     12  C   UNL     1      -0.707  -3.421   0.549  0.00  0.00    +0.251 A 
ATOM     13  O   UNL     1      -0.029  -2.959   1.451  0.00  0.00    -0.268 OA
ATOM     14  N   UNL     1      -2.020  -3.622   0.754  0.00  0.00    -0.322 N 
ATOM     15  H   UNL     1      -2.410  -3.397   1.613  0.00  0.00    +0.169 HD
BRANCH   4  16
ATOM     16  O   UNL     1      -5.194  -5.734  -3.241  0.00  0.00    -0.492 OA
BRANCH  16  18
ATOM     17  C   UNL     1      -7.296  -6.508  -4.146  0.00  0.00    +0.048 C 
ATOM     18  C   UNL     1      -6.577  -5.919  -2.932  0.00  0.00    +0.225 C 
ENDBRANCH  16  18
ENDBRANCH   4  16
ENDBRANCH   3  11
ENDBRANCH   1   3
BRANCH   1  19
ATOM     19  C   UNL     1       2.903  -1.933  -1.949  0.00  0.00    -0.042 C 
BRANCH  19  20
ATOM     20  C   UNL     1       2.881  -2.605  -3.298  0.00  0.00    -0.064 A 
ATOM     21  C   UNL     1       3.357  -3.895  -3.435  0.00  0.00    +0.002 A 
ATOM     22  C   UNL     1       3.333  -4.513  -4.671  0.00  0.00    +0.003 A 
ATOM     23  C   UNL     1       2.842  -3.836  -5.772  0.00  0.00    -0.050 A 
ATOM     24  C   UNL     1       2.371  -2.544  -5.636  0.00  0.00    +0.003 A 
ATOM     25  C   UNL     1       2.391  -1.928  -4.399  0.00  0.00    +0.002 A 
ATOM     26  C   UNL     1       2.821  -4.508  -7.122  0.00  0.00    +0.044 C 
ENDBRANCH  19  20
ENDBRANCH   1  19
BRANCH   1  27
ATOM     27  C   UNL     1       1.448  -1.161  -0.174  0.00  0.00    +0.001 C 
BRANCH  27  28
ATOM     28  C   UNL     1       1.493   0.257  -0.681  0.00  0.00    +0.135 A 
ATOM     29  N   UNL     1       2.567   0.973  -0.910  0.00  0.00    -0.115 NA
ATOM     30  N   UNL     1       2.191   2.130  -1.335  0.00  0.00    -0.023 NA
ATOM     31  N   UNL     1       0.905   2.170  -1.383  0.00  0.00    -0.044 NA
ATOM     32  N   UNL     1       0.438   1.035  -0.988  0.00  0.00    -0.227 N 
BRANCH  32  33
ATOM     33  C   UNL     1      -0.976   0.661  -0.891  0.00  0.00    +0.182 C 
BRANCH  33  34
ATOM     34  C   UNL     1      -1.471   0.216  -2.242  0.00  0.00    -0.026 A 
ATOM     35  C   UNL     1      -1.915   1.151  -3.158  0.00  0.00    +0.008 A 
ATOM     36  C   UNL     1      -2.366   0.744  -4.399  0.00  0.00    +0.038 A 
ATOM     37  C   UNL     1      -2.382  -0.602  -4.722  0.00  0.00    +0.123 A 
ATOM     38  C   UNL     1      -1.942  -1.539  -3.802  0.00  0.00    +0.038 A 
ATOM     39  C   UNL     1      -1.487  -1.129  -2.563  0.00  0.00    +0.008 A 
ATOM     40  F   UNL     1      -2.826  -1.002  -5.934  0.00  0.00    -0.205 F 
ENDBRANCH  33  34
ENDBRANCH  32  33
ENDBRANCH  27  28
ENDBRANCH   1  27
TORSDOF 10
