REMARK  Name = ZINC40021001
REMARK  7 active torsions:
REMARK  status: ('A' for Active; 'I' for Inactive)
REMARK    1  A    between atoms: C_3  and  O_27
REMARK    2  A    between atoms: C_6  and  C_7
REMARK    3  A    between atoms: N_22  and  C_23
REMARK    4  A    between atoms: C_23  and  C_24
REMARK    5  A    between atoms: C_24  and  O_25
REMARK    6  A    between atoms: O_27  and  C_28
REMARK    7  A    between atoms: C_28  and  C_29
REMARK                            x       y       z     vdW  Elec       q    Type
REMARK                         _______ _______ _______ _____ _____    ______ ____
ROOT
ATOM      1  C   UNL     1      -1.293  -0.774   0.011  0.00  0.00    +0.145 C 
ATOM      2  C   UNL     1      -1.595  -1.290  -1.358  0.00  0.00    +0.072 A 
ATOM      3  C   UNL     1      -1.831  -0.589  -2.624  0.00  0.00    +0.199 A 
ATOM      4  O   UNL     1      -1.637   0.605  -2.773  0.00  0.00    -0.287 OA
ATOM      5  C   UNL     1      -2.329  -1.473  -3.709  0.00  0.00    +0.066 A 
ATOM      6  C   UNL     1      -2.788  -0.928  -4.908  0.00  0.00    +0.035 A 
ATOM      7  C   UNL     1      -3.251  -1.763  -5.902  0.00  0.00    +0.042 A 
ATOM      8  C   UNL     1      -3.259  -3.139  -5.707  0.00  0.00    +0.023 A 
ATOM      9  C   UNL     1      -2.807  -3.687  -4.528  0.00  0.00    +0.048 A 
ATOM     10  C   UNL     1      -2.331  -2.863  -3.508  0.00  0.00    +0.140 A 
ATOM     11  O   UNL     1      -1.883  -3.428  -2.364  0.00  0.00    -0.450 OA
ATOM     12  C   UNL     1      -1.637  -2.653  -1.289  0.00  0.00    +0.199 A 
ATOM     13  C   UNL     1      -1.375  -3.054   0.104  0.00  0.00    +0.283 C 
ATOM     14  O   UNL     1      -1.345  -4.201   0.504  0.00  0.00    -0.267 OA
ATOM     15  N   UNL     1      -1.172  -1.962   0.872  0.00  0.00    -0.282 N 
ATOM     16 CL   UNL     1      -3.824  -1.096  -7.398  0.00  0.00    -0.084 Cl
ENDROOT
BRANCH   1  22
ATOM     17  C   UNL     1      -0.017   1.378   0.010  0.00  0.00    +0.009 A 
ATOM     18  C   UNL     1       1.169   2.087   0.002  0.00  0.00    +0.046 A 
ATOM     19  C   UNL     1       2.380   1.409  -0.013  0.00  0.00    +0.121 A 
ATOM     20  C   UNL     1       2.396   0.022  -0.021  0.00  0.00    +0.046 A 
ATOM     21  C   UNL     1       1.207  -0.681  -0.013  0.00  0.00    +0.009 A 
ATOM     22  C   UNL     1       0.002  -0.004   0.002  0.00  0.00    -0.022 A 
BRANCH  19  23
ATOM     23  O   UNL     1       3.548   2.104  -0.021  0.00  0.00    -0.483 OA
BRANCH  23  24
ATOM     24  C   UNL     1       4.756   1.341  -0.036  0.00  0.00    +0.324 C 
BRANCH  24  25
ATOM     25  C   UNL     1       5.940   2.274  -0.043  0.00  0.00    +0.248 C 
ATOM     26  O   UNL     1       5.766   3.474  -0.036  0.00  0.00    -0.272 OA
ATOM     27  N   UNL     1       7.192   1.774  -0.058  0.00  0.00    -0.327 N 
ATOM     28  H   UNL     1       7.331   0.814  -0.064  0.00  0.00    +0.145 HD
ATOM     29  H   UNL     1       7.953   2.375  -0.062  0.00  0.00    +0.145 HD
ENDBRANCH  24  25
ENDBRANCH  23  24
ENDBRANCH  19  23
ENDBRANCH   1  22
BRANCH  15  30
ATOM     30  C   UNL     1      -0.882  -1.958   2.308  0.00  0.00    +0.137 C 
BRANCH  30  31
ATOM     31  C   UNL     1      -2.194  -1.894   3.093  0.00  0.00    +0.175 C 
BRANCH  31  32
ATOM     32  O   UNL     1      -2.946  -3.087   2.862  0.00  0.00    -0.393 OA
ATOM     33  H   UNL     1      -3.792  -3.116   3.330  0.00  0.00    +0.209 HD
ENDBRANCH  31  32
ENDBRANCH  30  31
ENDBRANCH  15  30
TORSDOF 7
