REMARK  Name = ZINC67204988
REMARK  11 active torsions:
REMARK  status: ('A' for Active; 'I' for Inactive)
REMARK    1  A    between atoms: C_1  and  C_2
REMARK    2  A    between atoms: C_2  and  O_3
REMARK    3  A    between atoms: O_3  and  C_4
REMARK    4  A    between atoms: C_4  and  C_6
REMARK    5  A    between atoms: C_7  and  C_22
REMARK    6  A    between atoms: C_12  and  C_14
REMARK    7  A    between atoms: C_17  and  O_20
REMARK    8  A    between atoms: O_20  and  C_21
REMARK    9  A    between atoms: C_22  and  N_23
REMARK   10  A    between atoms: C_26  and  C_29
REMARK   11  A    between atoms: C_26  and  N_32
REMARK                            x       y       z     vdW  Elec       q    Type
REMARK                         _______ _______ _______ _____ _____    ______ ____
ROOT
ATOM      1  C   UNL     1      -4.132  -2.916   1.333  0.00  0.00    +0.079 C 
ATOM      2  C   UNL     1      -4.020  -3.954   0.477  0.00  0.00    +0.038 C 
ATOM      3  N   UNL     1      -5.120  -4.484  -0.135  0.00  0.00    -0.271 N 
ATOM      4  C   UNL     1      -6.366  -4.032   0.056  0.00  0.00    +0.304 C 
ATOM      5  O   UNL     1      -7.283  -4.569  -0.535  0.00  0.00    -0.252 OA
ATOM      6  N   UNL     1      -6.637  -3.002   0.881  0.00  0.00    -0.288 N 
ATOM      7  C   UNL     1      -5.518  -2.364   1.596  0.00  0.00    +0.144 C 
ATOM      8  H   UNL     1      -4.991  -5.229  -0.743  0.00  0.00    +0.156 HD
ATOM      9  H   UNL     1      -7.547  -2.690   1.005  0.00  0.00    +0.151 HD
ENDROOT
BRANCH   7  10
ATOM     10  C   UNL     1      -5.787  -2.466   3.075  0.00  0.00    -0.022 A 
ATOM     11  C   UNL     1      -6.174  -3.674   3.624  0.00  0.00    +0.009 A 
ATOM     12  C   UNL     1      -6.421  -3.771   4.980  0.00  0.00    +0.046 A 
ATOM     13  C   UNL     1      -6.280  -2.654   5.791  0.00  0.00    +0.120 A 
ATOM     14  C   UNL     1      -5.891  -1.443   5.237  0.00  0.00    +0.046 A 
ATOM     15  C   UNL     1      -5.640  -1.353   3.882  0.00  0.00    +0.009 A 
BRANCH  13  16
ATOM     16  O   UNL     1      -6.523  -2.746   7.125  0.00  0.00    -0.495 OA
ATOM     17  C   UNL     1      -6.357  -1.556   7.898  0.00  0.00    +0.277 C 
ENDBRANCH  13  16
ENDBRANCH   7  10
BRANCH   1  18
ATOM     18  C   UNL     1      -2.993  -2.366   1.968  0.00  0.00    +0.339 C 
ATOM     19  O   UNL     1      -1.907  -2.898   1.837  0.00  0.00    -0.245 OA
BRANCH  18  20
ATOM     20  O   UNL     1      -3.112  -1.252   2.721  0.00  0.00    -0.462 OA
BRANCH  20  22
ATOM     21  C   UNL     1      -2.252   0.506   4.139  0.00  0.00    +0.048 C 
ATOM     22  C   UNL     1      -1.922  -0.752   3.333  0.00  0.00    +0.229 C 
ENDBRANCH  20  22
ENDBRANCH  18  20
ENDBRANCH   1  18
BRANCH   2  23
ATOM     23  C   UNL     1      -2.660  -4.536   0.192  0.00  0.00    +0.135 C 
BRANCH  23  24
ATOM     24  N   UNL     1      -2.329  -5.532   1.219  0.00  0.00    -0.297 NA
ATOM     25  C   UNL     1      -3.148  -6.741   1.065  0.00  0.00    +0.084 C 
ATOM     26  C   UNL     1      -2.881  -7.692   2.233  0.00  0.00    +0.013 C 
ATOM     27  C   UNL     1      -1.395  -8.061   2.256  0.00  0.00    +0.015 C 
ATOM     28  C   UNL     1      -0.562  -6.781   2.368  0.00  0.00    +0.013 C 
ATOM     29  C   UNL     1      -0.896  -5.856   1.196  0.00  0.00    +0.084 C 
BRANCH  27  30
ATOM     30  N   UNL     1      -1.122  -8.928   3.409  0.00  0.00    +0.389 N 
ATOM     31  C   UNL     1      -1.493  -8.227   4.645  0.00  0.00    -0.077 C 
ATOM     32  C   UNL     1      -1.286  -9.155   5.844  0.00  0.00    -0.019 C 
ATOM     33  C   UNL     1       0.186  -9.571   5.913  0.00  0.00    -0.004 C 
ATOM     34  C   UNL     1       0.582 -10.234   4.591  0.00  0.00    -0.019 C 
ATOM     35  C   UNL     1       0.306  -9.266   3.438  0.00  0.00    -0.077 C 
ATOM     36  H   UNL     1      -1.665  -9.774   3.329  0.00  0.00    -0.080 HD
ENDBRANCH  27  30
BRANCH  27  37
ATOM     37  C   UNL     1      -1.036  -8.785   0.984  0.00  0.00    +0.200 C 
ATOM     38  O   UNL     1      -0.490  -8.189   0.080  0.00  0.00    -0.278 OA
ATOM     39  N   UNL     1      -1.323 -10.095   0.850  0.00  0.00    -0.330 N 
ATOM     40  H   UNL     1      -1.823 -10.555   1.543  0.00  0.00    +0.145 HD
ATOM     41  H   UNL     1      -1.029 -10.578   0.062  0.00  0.00    +0.145 HD
ENDBRANCH  27  37
ENDBRANCH  23  24
ENDBRANCH   2  23
TORSDOF 9
