REMARK  Name = ZINC37572210
REMARK  7 active torsions:
REMARK  status: ('A' for Active; 'I' for Inactive)
REMARK    1  A    between atoms: C_1  and  C_2
REMARK    2  A    between atoms: C_6  and  N_8
REMARK    3  A    between atoms: N_8  and  C_9
REMARK    4  A    between atoms: N_8  and  S_23
REMARK    5  A    between atoms: N_12  and  C_15
REMARK    6  A    between atoms: C_15  and  C_16
REMARK    7  A    between atoms: S_23  and  C_26
REMARK                            x       y       z     vdW  Elec       q    Type
REMARK                         _______ _______ _______ _____ _____    ______ ____
ROOT
ATOM      1  N   UNL     1       0.051  -2.796   2.390  0.00  0.00    -0.200 N 
ENDROOT
BRANCH   1   7
ATOM      2  C   UNL     1      -1.134  -1.729  -2.258  0.00  0.00    +0.044 C 
ATOM      3  C   UNL     1      -0.311  -1.478  -1.021  0.00  0.00    -0.049 A 
ATOM      4  C   UNL     1       0.641  -0.476  -1.016  0.00  0.00    +0.003 A 
ATOM      5  C   UNL     1       1.399  -0.243   0.117  0.00  0.00    +0.002 A 
ATOM      6  C   UNL     1       1.206  -1.011   1.249  0.00  0.00    +0.025 A 
ATOM      7  C   UNL     1       0.249  -2.018   1.248  0.00  0.00    +0.052 A 
ATOM      8  C   UNL     1      -0.513  -2.246   0.109  0.00  0.00    +0.028 A 
ENDBRANCH   1   7
BRANCH   1   9
ATOM      9  C   UNL     1       0.493  -4.193   2.411  0.00  0.00    +0.095 C 
ATOM     10  C   UNL     1      -0.314  -5.001   1.390  0.00  0.00    +0.006 C 
ATOM     11  C   UNL     1       0.206  -6.439   1.360  0.00  0.00    -0.077 C 
ATOM     12  N   UNL     1       1.623  -6.443   0.978  0.00  0.00    +0.382 N 
ATOM     13  C   UNL     1       2.414  -5.731   1.990  0.00  0.00    -0.077 C 
ATOM     14  C   UNL     1       1.978  -4.266   2.044  0.00  0.00    +0.006 C 
ATOM     15  H   UNL     1       1.731  -5.985   0.085  0.00  0.00    -0.081 HD
BRANCH  12  16
ATOM     16  C   UNL     1       2.098  -7.830   0.875  0.00  0.00    -0.043 C 
BRANCH  16  17
ATOM     17  C   UNL     1       3.516  -7.839   0.364  0.00  0.00    -0.063 A 
ATOM     18  C   UNL     1       3.760  -7.892  -0.996  0.00  0.00    +0.002 A 
ATOM     19  C   UNL     1       5.061  -7.901  -1.464  0.00  0.00    +0.002 A 
ATOM     20  C   UNL     1       6.117  -7.856  -0.574  0.00  0.00    +0.020 A 
ATOM     21  C   UNL     1       5.873  -7.803   0.786  0.00  0.00    +0.041 A 
ATOM     22  C   UNL     1       4.571  -7.788   1.255  0.00  0.00    +0.021 A 
ATOM     23 CL   UNL     1       7.199  -7.747   1.905  0.00  0.00    -0.084 Cl
ENDBRANCH  16  17
ENDBRANCH  12  16
ENDBRANCH   1   9
BRANCH   1  24
ATOM     24  S   UNL     1      -0.683  -2.141   3.722  0.00  0.00    +0.075 S 
ATOM     25  O   UNL     1      -0.158  -2.823   4.852  0.00  0.00    -0.150 OA
ATOM     26  O   UNL     1      -0.602  -0.730   3.577  0.00  0.00    -0.150 OA
BRANCH  24  27
ATOM     27  C   UNL     1      -2.393  -2.558   3.632  0.00  0.00    +0.109 A 
ATOM     28  C   UNL     1      -3.276  -1.719   2.979  0.00  0.00    +0.029 A 
ATOM     29  C   UNL     1      -4.617  -2.046   2.909  0.00  0.00    +0.002 A 
ATOM     30  C   UNL     1      -5.075  -3.213   3.491  0.00  0.00    +0.000 A 
ATOM     31  C   UNL     1      -4.192  -4.053   4.143  0.00  0.00    +0.002 A 
ATOM     32  C   UNL     1      -2.850  -3.728   4.210  0.00  0.00    +0.029 A 
ENDBRANCH  24  27
ENDBRANCH   1  24
TORSDOF 6
