REMARK  Name = ZINC25244048
REMARK  9 active torsions:
REMARK  status: ('A' for Active; 'I' for Inactive)
REMARK    1  A    between atoms: C_1  and  C_2
REMARK    2  A    between atoms: C_2  and  C_3
REMARK    3  A    between atoms: C_3  and  C_5
REMARK    4  A    between atoms: C_3  and  C_6
REMARK    5  A    between atoms: C_6  and  C_7
REMARK    6  A    between atoms: C_8  and  C_34
REMARK    7  A    between atoms: C_16  and  S_18
REMARK    8  A    between atoms: S_18  and  C_19
REMARK    9  A    between atoms: C_19  and  C_20
REMARK                            x       y       z     vdW  Elec       q    Type
REMARK                         _______ _______ _______ _____ _____    ______ ____
ROOT
ATOM      1  C   UNL     1       1.661  -2.496  -2.382  0.00  0.00    -0.023 A 
ATOM      2  C   UNL     1       1.059  -2.809  -3.539  0.00  0.00    -0.007 A 
ATOM      3  S   UNL     1       2.412  -3.301  -4.590  0.00  0.00    -0.073 S 
ATOM      4  C   UNL     1       3.748  -3.073  -3.445  0.00  0.00    +0.117 A 
ATOM      5  C   UNL     1       3.106  -2.614  -2.279  0.00  0.00    +0.075 A 
ATOM      6  C   UNL     1       3.959  -2.336  -1.166  0.00  0.00    +0.261 A 
ATOM      7  O   UNL     1       3.491  -1.939  -0.113  0.00  0.00    -0.267 OA
ATOM      8  N   UNL     1       5.286  -2.520  -1.296  0.00  0.00    -0.301 N 
ATOM      9  H   UNL     1       5.868  -2.333  -0.543  0.00  0.00    +0.171 HD
ATOM     10  C   UNL     1       5.828  -2.964  -2.467  0.00  0.00    +0.170 A 
ATOM     11  N   UNL     1       5.064  -3.237  -3.505  0.00  0.00    -0.216 NA
ATOM     12  C   UNL     1      -0.410  -2.757  -3.871  0.00  0.00    +0.052 C 
ENDROOT
BRANCH   1  13
ATOM     13  C   UNL     1       0.849  -2.021  -1.205  0.00  0.00    +0.040 C 
BRANCH  13  14
ATOM     14  C   UNL     1       0.718  -0.497  -1.257  0.00  0.00    -0.010 C 
ATOM     15  C   UNL     1      -0.089  -0.097  -2.493  0.00  0.00    +0.008 C 
BRANCH  14  17
ATOM     16  C   UNL     1      -0.019   1.526   0.010  0.00  0.00    +0.004 C 
ATOM     17  C   UNL     1       0.002  -0.004   0.002  0.00  0.00    +0.000 C 
ENDBRANCH  14  17
ENDBRANCH  13  14
ENDBRANCH   1  13
BRANCH  10  18
ATOM     18  S   UNL     1       7.572  -3.188  -2.588  0.00  0.00    -0.080 S 
BRANCH  18  19
ATOM     19  C   UNL     1       7.822  -3.776  -4.286  0.00  0.00    +0.151 C 
BRANCH  19  20
ATOM     20  C   UNL     1       9.291  -4.010  -4.525  0.00  0.00    +0.121 A 
ATOM     21  N   UNL     1       9.706  -4.450  -5.741  0.00  0.00    -0.310 N 
ATOM     22  H   UNL     1       9.051  -4.606  -6.439  0.00  0.00    +0.170 HD
ATOM     23  C   UNL     1      11.009  -4.672  -5.997  0.00  0.00    +0.260 A 
ATOM     24  O   UNL     1      11.368  -5.067  -7.093  0.00  0.00    -0.267 OA
ATOM     25  C   UNL     1      11.967  -4.436  -4.958  0.00  0.00    +0.075 A 
ATOM     26  C   UNL     1      13.426  -4.610  -5.012  0.00  0.00    -0.023 A 
ATOM     27  C   UNL     1      14.114  -4.321  -3.894  0.00  0.00    -0.004 A 
ATOM     28  S   UNL     1      12.884  -3.805  -2.718  0.00  0.00    -0.073 S 
ATOM     29  C   UNL     1      11.445  -3.984  -3.739  0.00  0.00    +0.116 A 
ATOM     30  N   UNL     1      10.142  -3.781  -3.561  0.00  0.00    -0.226 NA
ATOM     31  C   UNL     1      15.593  -4.540  -4.065  0.00  0.00    +0.043 C 
ATOM     32  C   UNL     1      15.711  -5.424  -5.326  0.00  0.00    +0.010 C 
ATOM     33  C   UNL     1      14.421  -5.060  -6.086  0.00  0.00    +0.037 C 
ENDBRANCH  19  20
ENDBRANCH  18  19
ENDBRANCH  10  18
TORSDOF 6
