REMARK  Name = ZINC40815294
REMARK  9 active torsions:
REMARK  status: ('A' for Active; 'I' for Inactive)
REMARK    1  A    between atoms: C_1  and  C_2
REMARK    2  A    between atoms: C_5  and  C_8
REMARK    3  A    between atoms: N_10  and  N_11
REMARK    4  A    between atoms: C_12  and  C_14
REMARK    5  A    between atoms: C_15  and  C_35
REMARK    6  A    between atoms: N_23  and  N_24
REMARK    7  A    between atoms: N_24  and  S_25
REMARK    8  A    between atoms: S_25  and  C_28
REMARK    9  A    between atoms: C_31  and  C_34
REMARK                            x       y       z     vdW  Elec       q    Type
REMARK                         _______ _______ _______ _____ _____    ______ ____
ROOT
ATOM      1  C   UNL     1       0.127  -8.479   2.290  0.00  0.00    +0.194 A 
ATOM      2  C   UNL     1       0.137  -9.284   3.395  0.00  0.00    +0.009 A 
ATOM      3  C   UNL     1       0.154 -10.601   2.921  0.00  0.00    +0.042 A 
ATOM      4  C   UNL     1       0.155 -10.545   1.548  0.00  0.00    +0.115 A 
ATOM      5  O   UNL     1       0.131  -9.263   1.188  0.00  0.00    -0.454 OA
ATOM      6  C   UNL     1       0.177 -11.776   0.677  0.00  0.00    +0.075 C 
ATOM      7  C   UNL     1       0.705 -12.963   1.486  0.00  0.00    +0.014 C 
ATOM      8  C   UNL     1      -0.083 -13.121   2.791  0.00  0.00    +0.058 C 
ATOM      9  C   UNL     1       0.168 -11.890   3.650  0.00  0.00    +0.071 C 
ATOM     10  N   UNL     1       0.378 -11.964   4.928  0.00  0.00    -0.170 NA
ATOM     11  C   UNL     1       0.132  -8.842   4.836  0.00  0.00    +0.048 C 
ENDROOT
BRANCH   1  13
ATOM     12  N   UNL     1       0.092  -6.332   1.134  0.00  0.00    -0.228 N 
ATOM     13  C   UNL     1       0.107  -7.013   2.298  0.00  0.00    +0.296 C 
ATOM     14  O   UNL     1       0.104  -6.410   3.355  0.00  0.00    -0.265 OA
ATOM     15  H   UNL     1       0.095  -6.813   0.292  0.00  0.00    +0.173 HD
BRANCH  12  18
ATOM     16  C   UNL     1       0.059  -4.251  -0.021  0.00  0.00    +0.260 C 
ATOM     17  O   UNL     1       0.062  -4.853  -1.077  0.00  0.00    -0.269 OA
ATOM     18  N   UNL     1       0.074  -4.931   1.142  0.00  0.00    -0.230 N 
ATOM     19  H   UNL     1       0.072  -4.451   1.985  0.00  0.00    +0.173 HD
BRANCH  16  24
ATOM     20  C   UNL     1      -0.018   1.503   0.010  0.00  0.00    +0.044 C 
ATOM     21  C   UNL     1       0.002  -0.004   0.002  0.00  0.00    -0.050 A 
ATOM     22  C   UNL     1       0.006  -0.686  -1.202  0.00  0.00    +0.004 A 
ATOM     23  C   UNL     1       0.024  -2.066  -1.216  0.00  0.00    +0.013 A 
ATOM     24  C   UNL     1       0.040  -2.773  -0.013  0.00  0.00    +0.038 A 
ATOM     25  C   UNL     1       0.036  -2.079   1.198  0.00  0.00    +0.013 A 
ATOM     26  C   UNL     1       0.023  -0.699   1.198  0.00  0.00    +0.004 A 
ENDBRANCH  16  24
ENDBRANCH  12  18
ENDBRANCH   1  13
BRANCH  10  27
ATOM     27  N   UNL     1       0.380 -13.211   5.566  0.00  0.00    -0.136 N 
ATOM     28  H   UNL     1       0.224 -14.019   5.052  0.00  0.00    +0.197 HD
BRANCH  27  29
ATOM     29  S   UNL     1       0.649 -13.306   7.197  0.00  0.00    +0.086 S 
ATOM     30  O   UNL     1       0.447 -14.664   7.564  0.00  0.00    -0.149 OA
ATOM     31  O   UNL     1       1.869 -12.623   7.448  0.00  0.00    -0.149 OA
BRANCH  29  32
ATOM     32  C   UNL     1      -0.621 -12.376   7.989  0.00  0.00    +0.110 A 
ATOM     33  C   UNL     1      -0.437 -11.029   8.239  0.00  0.00    +0.029 A 
ATOM     34  C   UNL     1      -1.433 -10.300   8.861  0.00  0.00    +0.005 A 
ATOM     35  C   UNL     1      -2.613 -10.917   9.232  0.00  0.00    -0.050 A 
ATOM     36  C   UNL     1      -2.797 -12.264   8.981  0.00  0.00    +0.005 A 
ATOM     37  C   UNL     1      -1.803 -12.992   8.356  0.00  0.00    +0.029 A 
ATOM     38  C   UNL     1      -3.699 -10.122   9.911  0.00  0.00    +0.044 C 
ENDBRANCH  29  32
ENDBRANCH  27  29
ENDBRANCH  10  27
TORSDOF 6
