REMARK  Name = ZINC06732539
REMARK  5 active torsions:
REMARK  status: ('A' for Active; 'I' for Inactive)
REMARK    1  A    between atoms: C_1  and  C_2
REMARK    2  A    between atoms: C_6  and  C_8
REMARK    3  A    between atoms: C_13  and  C_25
REMARK    4  A    between atoms: C_19  and  C_23
REMARK    5  A    between atoms: C_19  and  C_24
REMARK                            x       y       z     vdW  Elec       q    Type
REMARK                         _______ _______ _______ _____ _____    ______ ____
ROOT
ATOM      1  C   UNL     1      -0.018   1.480   0.010  0.00  0.00    +0.183 A 
ATOM      2  N   UNL     1       1.065   2.276   0.004  0.00  0.00    -0.193 NA
ATOM      3  C   UNL     1       0.688   3.523   0.011  0.00  0.00    +0.219 A 
ATOM      4  N   UNL     1      -0.668   3.557   0.029  0.00  0.00    -0.220 N 
ATOM      5  N   UNL     1      -1.101   2.231   0.019  0.00  0.00    -0.147 NA
ATOM      6  C   UNL     1      -1.440   4.793   0.051  0.00  0.00    +0.175 C 
ATOM      7  C   UNL     1      -0.548   5.966  -0.289  0.00  0.00    +0.041 C 
ATOM      8  C   UNL     1       0.798   5.867  -0.296  0.00  0.00    +0.020 C 
ATOM      9  N   UNL     1       1.439   4.688   0.002  0.00  0.00    -0.287 N 
ATOM     10  C   UNL     1       1.663   7.056  -0.641  0.00  0.00    +0.058 C 
ATOM     11  C   UNL     1       0.962   8.345  -0.208  0.00  0.00    -0.023 C 
ATOM     12  C   UNL     1      -0.393   8.421  -0.920  0.00  0.00    +0.086 C 
ATOM     13  C   UNL     1      -1.183   7.183  -0.598  0.00  0.00    +0.164 C 
ATOM     14  O   UNL     1      -2.397   7.235  -0.605  0.00  0.00    -0.292 OA
ATOM     15  C   UNL     1       0.748   8.331   1.307  0.00  0.00    +0.011 C 
ATOM     16  C   UNL     1       1.817   9.553  -0.596  0.00  0.00    +0.011 C 
ATOM     17  H   UNL     1       2.388   4.672   0.200  0.00  0.00    +0.155 HD
ENDROOT
BRANCH   1  23
ATOM     18  C   UNL     1       2.542  -2.807  -0.035  0.00  0.00    +0.044 C 
ATOM     19  C   UNL     1       1.230  -2.067  -0.020  0.00  0.00    -0.050 A 
ATOM     20  C   UNL     1       0.040  -2.772  -0.012  0.00  0.00    +0.003 A 
ATOM     21  C   UNL     1      -1.169  -2.100   0.002  0.00  0.00    +0.001 A 
ATOM     22  C   UNL     1      -1.193  -0.720   0.015  0.00  0.00    +0.011 A 
ATOM     23  C   UNL     1       0.002  -0.004   0.002  0.00  0.00    +0.021 A 
ATOM     24  C   UNL     1       1.217  -0.687  -0.013  0.00  0.00    +0.015 A 
ENDBRANCH   1  23
BRANCH   6  25
ATOM     25  C   UNL     1      -2.026   4.992   1.425  0.00  0.00    -0.018 A 
ATOM     26  C   UNL     1      -1.193   5.103   2.522  0.00  0.00    +0.006 A 
ATOM     27  C   UNL     1      -1.730   5.289   3.782  0.00  0.00    +0.000 A 
ATOM     28  C   UNL     1      -3.101   5.356   3.946  0.00  0.00    +0.000 A 
ATOM     29  C   UNL     1      -3.935   5.240   2.849  0.00  0.00    +0.000 A 
ATOM     30  C   UNL     1      -3.397   5.058   1.589  0.00  0.00    +0.006 A 
ENDBRANCH   6  25
TORSDOF 2
