REMARK  Name = ZINC63212972
REMARK  6 active torsions:
REMARK  status: ('A' for Active; 'I' for Inactive)
REMARK    1  A    between atoms: C_1  and  O_2
REMARK    2  A    between atoms: O_2  and  C_3
REMARK    3  A    between atoms: C_6  and  N_19
REMARK    4  A    between atoms: C_7  and  N_9
REMARK    5  A    between atoms: N_9  and  S_10
REMARK    6  A    between atoms: S_10  and  C_13
REMARK                            x       y       z     vdW  Elec       q    Type
REMARK                         _______ _______ _______ _____ _____    ______ ____
ROOT
ATOM      1  C   UNL     1      -1.201  -0.638   0.010  0.00  0.00    +0.122 A 
ATOM      2  C   UNL     1      -2.374   0.102   0.019  0.00  0.00    +0.047 A 
ATOM      3  C   UNL     1      -3.599  -0.538   0.028  0.00  0.00    +0.028 A 
ATOM      4  C   UNL     1      -3.658  -1.923   0.027  0.00  0.00    +0.050 A 
ATOM      5  C   UNL     1      -2.481  -2.670   0.017  0.00  0.00    +0.098 A 
ATOM      6  C   UNL     1      -1.254  -2.024   0.003  0.00  0.00    +0.074 A 
ENDROOT
BRANCH   4   7
ATOM      7  N   UNL     1      -4.902  -2.573   0.036  0.00  0.00    -0.356 N 
ATOM      8  H   UNL     1      -5.721  -2.053   0.043  0.00  0.00    +0.142 HD
ATOM      9  H   UNL     1      -4.942  -3.542   0.035  0.00  0.00    +0.142 HD
ENDBRANCH   4   7
BRANCH   1  11
ATOM     10  C   UNL     1      -0.017   1.425   0.010  0.00  0.00    +0.277 C 
ATOM     11  O   UNL     1       0.002  -0.004   0.002  0.00  0.00    -0.495 OA
ENDBRANCH   1  11
BRANCH   5  12
ATOM     12  N   UNL     1      -2.537  -4.069   0.016  0.00  0.00    -0.095 NA
BRANCH  12  13
ATOM     13  S   UNL     1      -1.137  -4.953   0.004  0.00  0.00    +0.098 S 
ATOM     14  O   UNL     1      -0.509  -4.704  -1.246  0.00  0.00    -0.148 OA
ATOM     15  O   UNL     1      -0.490  -4.706   1.245  0.00  0.00    -0.148 OA
BRANCH  13  16
ATOM     16  C   UNL     1      -1.596  -6.654   0.007  0.00  0.00    +0.149 A 
ATOM     17  C   UNL     1      -1.821  -7.479  -1.045  0.00  0.00    +0.038 A 
ATOM     18  C   UNL     1      -2.175  -8.793  -0.803  0.00  0.00    +0.030 A 
ATOM     19  C   UNL     1      -2.287  -9.218   0.480  0.00  0.00    +0.080 A 
ATOM     20  S   UNL     1      -1.877  -7.741   1.395  0.00  0.00    -0.057 S 
ATOM     21 CL   UNL     1      -2.710 -10.792   1.078  0.00  0.00    -0.076 Cl
ENDBRANCH  13  16
ENDBRANCH  12  13
ENDBRANCH   5  12
TORSDOF 5
