REMARK  Name = ZINC36304996
REMARK  12 active torsions:
REMARK  status: ('A' for Active; 'I' for Inactive)
REMARK    1  A    between atoms: C_1  and  C_2
REMARK    2  A    between atoms: C_2  and  C_3
REMARK    3  A    between atoms: C_3  and  C_5
REMARK    4  A    between atoms: C_3  and  O_31
REMARK    5  A    between atoms: C_5  and  N_6
REMARK    6  A    between atoms: N_6  and  C_7
REMARK    7  A    between atoms: N_6  and  C_28
REMARK    8  A    between atoms: C_7  and  C_8
REMARK    9  A    between atoms: C_9  and  C_22
REMARK   10  A    between atoms: N_11  and  C_21
REMARK   11  A    between atoms: C_12  and  O_13
REMARK   12  A    between atoms: O_13  and  C_14
REMARK                            x       y       z     vdW  Elec       q    Type
REMARK                         _______ _______ _______ _____ _____    ______ ____
ROOT
ATOM      1  C   UNL     1      -4.056  -4.551  -0.024  0.00  0.00    +0.025 A 
ATOM      2  C   UNL     1      -4.814  -5.150   1.000  0.00  0.00    +0.098 A 
ATOM      3  N   UNL     1      -5.821  -5.788   0.444  0.00  0.00    -0.168 NA
ATOM      4  N   UNL     1      -5.737  -5.618  -0.944  0.00  0.00    -0.235 N 
ATOM      5  C   UNL     1      -4.649  -4.850  -1.208  0.00  0.00    +0.221 A 
ATOM      6  C   UNL     1      -6.664  -6.167  -1.936  0.00  0.00    +0.176 C 
ENDROOT
BRANCH   2   7
ATOM      7  C   UNL     1      -4.527  -5.074   2.454  0.00  0.00    +0.002 A 
ATOM      8  C   UNL     1      -5.561  -4.852   3.361  0.00  0.00    +0.010 A 
ATOM      9  C   UNL     1      -5.288  -4.782   4.712  0.00  0.00    +0.001 A 
ATOM     10  C   UNL     1      -3.991  -4.934   5.167  0.00  0.00    +0.000 A 
ATOM     11  C   UNL     1      -2.960  -5.155   4.271  0.00  0.00    +0.001 A 
ATOM     12  C   UNL     1      -3.222  -5.232   2.918  0.00  0.00    +0.010 A 
ENDBRANCH   2   7
BRANCH   1  13
ATOM     13  C   UNL     1      -2.812  -3.720   0.162  0.00  0.00    -0.035 C 
BRANCH  13  14
ATOM     14  N   UNL     1      -3.170  -2.296   0.164  0.00  0.00    +0.386 N 
ATOM     15  H   UNL     1      -3.679  -2.076  -0.679  0.00  0.00    -0.081 HD
BRANCH  14  16
ATOM     16  C   UNL     1      -4.011  -2.004   1.333  0.00  0.00    -0.068 C 
ATOM     17  C   UNL     1      -5.500  -1.755   1.087  0.00  0.00    -0.017 C 
ATOM     18  C   UNL     1      -4.581  -0.589   1.457  0.00  0.00    -0.017 C 
ENDBRANCH  14  16
BRANCH  14  19
ATOM     19  C   UNL     1      -1.948  -1.484   0.225  0.00  0.00    -0.046 C 
BRANCH  19  20
ATOM     20  C   UNL     1      -1.106  -1.918   1.426  0.00  0.00    +0.098 C 
BRANCH  20  22
ATOM     21  C   UNL     1       1.130  -1.717   2.524  0.00  0.00    +0.006 C 
ATOM     22  C   UNL     1       0.240  -1.191   1.395  0.00  0.00    +0.026 C 
ENDBRANCH  20  22
BRANCH  20  23
ATOM     23  O   UNL     1      -1.796  -1.592   2.634  0.00  0.00    -0.394 OA
ATOM     24  H   UNL     1      -1.979  -0.649   2.740  0.00  0.00    +0.210 HD
ENDBRANCH  20  23
ENDBRANCH  19  20
ENDBRANCH  14  19
ENDBRANCH  13  14
ENDBRANCH   1  13
BRANCH   5  25
ATOM     25  O   UNL     1      -4.227  -4.455  -2.436  0.00  0.00    -0.437 OA
BRANCH  25  26
ATOM     26  C   UNL     1      -3.453  -5.313  -3.151  0.00  0.00    +0.149 A 
ATOM     27  C   UNL     1      -3.203  -6.590  -2.669  0.00  0.00    +0.048 A 
ATOM     28  C   UNL     1      -2.415  -7.460  -3.398  0.00  0.00    +0.004 A 
ATOM     29  C   UNL     1      -1.877  -7.060  -4.607  0.00  0.00    +0.002 A 
ATOM     30  C   UNL     1      -2.124  -5.789  -5.091  0.00  0.00    +0.024 A 
ATOM     31  C   UNL     1      -2.916  -4.916  -4.369  0.00  0.00    +0.083 A 
ATOM     32 CL   UNL     1      -3.233  -3.322  -4.979  0.00  0.00    -0.080 Cl
ENDBRANCH  25  26
ENDBRANCH   5  25
TORSDOF 10
