REMARK  Name = ZINC09542477
REMARK  9 active torsions:
REMARK  status: ('A' for Active; 'I' for Inactive)
REMARK    1  A    between atoms: C_1  and  C_2
REMARK    2  A    between atoms: C_2  and  C_3
REMARK    3  A    between atoms: C_6  and  C_9
REMARK    4  A    between atoms: C_11  and  C_26
REMARK    5  A    between atoms: C_13  and  C_16
REMARK    6  A    between atoms: C_20  and  O_23
REMARK    7  A    between atoms: C_21  and  O_22
REMARK    8  A    between atoms: O_23  and  C_24
REMARK    9  A    between atoms: C_24  and  C_25
REMARK                            x       y       z     vdW  Elec       q    Type
REMARK                         _______ _______ _______ _____ _____    ______ ____
ROOT
ATOM      1  C   UNL     1       2.055   1.387   1.340  0.00  0.00    +0.040 C 
ATOM      2  N   UNL     1       1.383   1.095   2.389  0.00  0.00    -0.299 NA
ATOM      3  C   UNL     1      -0.067   0.945   2.415  0.00  0.00    +0.081 C 
ATOM      4  C   UNL     1      -0.013   1.086   0.008  0.00  0.00    -0.028 C 
ATOM      5  C   UNL     1       1.422   1.622  -0.003  0.00  0.00    +0.044 C 
ATOM      6  N   UNL     1      -0.678   1.571   1.233  0.00  0.00    +0.401 N 
ATOM      7  H   UNL     1      -0.575   2.590   1.296  0.00  0.00    -0.081 HD
ATOM      8  H   UNL     1      -1.675   1.329   1.197  0.00  0.00    -0.081 HD
ENDROOT
BRANCH   3   9
ATOM      9  C   UNL     1      -0.413  -0.522   2.436  0.00  0.00    -0.039 A 
ATOM     10  C   UNL     1      -1.594  -0.961   1.867  0.00  0.00    +0.006 A 
ATOM     11  C   UNL     1      -1.911  -2.306   1.881  0.00  0.00    +0.040 A 
ATOM     12  C   UNL     1      -1.050  -3.213   2.475  0.00  0.00    +0.137 A 
ATOM     13  C   UNL     1       0.130  -2.772   3.050  0.00  0.00    +0.053 A 
ATOM     14  C   UNL     1       0.447  -1.426   3.030  0.00  0.00    +0.022 A 
ATOM     15 BR   UNL     1       1.308  -4.010   3.861  0.00  0.00    -0.047 Br
ATOM     16  F   UNL     1      -1.362  -4.528   2.494  0.00  0.00    -0.204 F 
ENDBRANCH   3   9
BRANCH   1  20
ATOM     17  C   UNL     1       6.276   1.707   1.670  0.00  0.00    -0.048 A 
ATOM     18  C   UNL     1       5.520   1.393   2.785  0.00  0.00    +0.004 A 
ATOM     19  C   UNL     1       4.149   1.287   2.685  0.00  0.00    +0.010 A 
ATOM     20  C   UNL     1       3.523   1.498   1.455  0.00  0.00    -0.004 A 
ATOM     21  C   UNL     1       4.293   1.810   0.332  0.00  0.00    +0.010 A 
ATOM     22  C   UNL     1       5.663   1.918   0.447  0.00  0.00    +0.004 A 
BRANCH  17  24
ATOM     23  C   UNL     1       8.412   0.457   1.519  0.00  0.00    +0.009 C 
ATOM     24  C   UNL     1       7.774   1.821   1.787  0.00  0.00    +0.032 C 
ENDBRANCH  17  24
ENDBRANCH   1  20
BRANCH   4  25
ATOM     25  C   UNL     1      -0.753   1.591  -1.203  0.00  0.00    -0.016 A 
ATOM     26  C   UNL     1      -1.527   2.734  -1.114  0.00  0.00    +0.006 A 
ATOM     27  C   UNL     1      -2.204   3.202  -2.224  0.00  0.00    +0.004 A 
ATOM     28  C   UNL     1      -2.119   2.524  -3.426  0.00  0.00    +0.049 A 
ATOM     29  C   UNL     1      -1.350   1.376  -3.521  0.00  0.00    +0.162 A 
ATOM     30  C   UNL     1      -0.664   0.907  -2.405  0.00  0.00    +0.160 A 
BRANCH  30  31
ATOM     31  O   UNL     1       0.092  -0.220  -2.493  0.00  0.00    -0.503 OA
ATOM     32  H   UNL     1      -0.391  -1.034  -2.293  0.00  0.00    +0.292 HD
ENDBRANCH  30  31
BRANCH  29  33
ATOM     33  O   UNL     1      -1.265   0.709  -4.703  0.00  0.00    -0.489 OA
BRANCH  33  34
ATOM     34  C   UNL     1      -1.996   1.248  -5.807  0.00  0.00    +0.226 C 
ATOM     35  C   UNL     1      -1.780   0.368  -7.040  0.00  0.00    +0.048 C 
ENDBRANCH  33  34
ENDBRANCH  29  33
ENDBRANCH   4  25
TORSDOF 7
