REMARK  Name = ZINC10059378
REMARK  11 active torsions:
REMARK  status: ('A' for Active; 'I' for Inactive)
REMARK    1  A    between atoms: C_1  and  C_2
REMARK    2  A    between atoms: C_2  and  C_3
REMARK    3  A    between atoms: C_2  and  C_4
REMARK    4  A    between atoms: C_2  and  C_5
REMARK    5  A    between atoms: C_14  and  O_35
REMARK    6  A    between atoms: C_16  and  C_19
REMARK    7  A    between atoms: C_22  and  O_27
REMARK    8  A    between atoms: C_23  and  O_25
REMARK    9  A    between atoms: O_25  and  C_26
REMARK   10  A    between atoms: O_27  and  C_28
REMARK   11  A    between atoms: C_28  and  C_30
REMARK                            x       y       z     vdW  Elec       q    Type
REMARK                         _______ _______ _______ _____ _____    ______ ____
ROOT
ATOM      1  C   UNL     1       0.599  -0.653  -1.310  0.00  0.00    -0.000 C 
ATOM      2  C   UNL     1       0.648  -2.184  -1.338  0.00  0.00    +0.009 C 
ATOM      3  C   UNL     1       1.165  -2.663  -2.695  0.00  0.00    +0.037 C 
ATOM      4  C   UNL     1       2.478  -1.953  -3.002  0.00  0.00    -0.023 A 
ATOM      5  C   UNL     1       2.823  -0.820  -2.348  0.00  0.00    -0.004 A 
ATOM      6  S   UNL     1       4.403  -0.370  -3.017  0.00  0.00    -0.078 S 
ATOM      7  C   UNL     1       4.595  -1.652  -4.132  0.00  0.00    +0.080 A 
ATOM      8  C   UNL     1       3.433  -2.423  -3.990  0.00  0.00    +0.068 A 
ATOM      9  C   UNL     1       3.312  -3.633  -4.843  0.00  0.00    +0.220 C 
ATOM     10  N   UNL     1       4.176  -3.785  -5.809  0.00  0.00    -0.223 NA
ATOM     11  C   UNL     1       5.194  -2.807  -6.173  0.00  0.00    +0.224 C 
ATOM     12  N   UNL     1       5.592  -1.980  -5.019  0.00  0.00    -0.313 N 
ATOM     13  C   UNL     1       2.035  -0.110  -1.291  0.00  0.00    +0.046 C 
ATOM     14  H   UNL     1       6.507  -1.684  -4.893  0.00  0.00    +0.149 HD
ENDROOT
BRANCH  11  15
ATOM     15  C   UNL     1       4.650  -1.911  -7.256  0.00  0.00    -0.002 A 
ATOM     16  C   UNL     1       5.082  -0.601  -7.349  0.00  0.00    +0.011 A 
ATOM     17  C   UNL     1       4.590   0.223  -8.343  0.00  0.00    +0.050 A 
ATOM     18  C   UNL     1       3.654  -0.260  -9.244  0.00  0.00    +0.173 A 
ATOM     19  C   UNL     1       3.216  -1.577  -9.147  0.00  0.00    +0.163 A 
ATOM     20  C   UNL     1       3.717  -2.400  -8.151  0.00  0.00    +0.056 A 
BRANCH  19  21
ATOM     21  O   UNL     1       2.297  -2.055 -10.028  0.00  0.00    -0.491 OA
ATOM     22  C   UNL     1       1.893  -3.417  -9.868  0.00  0.00    +0.277 C 
ENDBRANCH  19  21
BRANCH  18  23
ATOM     23  O   UNL     1       3.165   0.552 -10.219  0.00  0.00    -0.418 OA
BRANCH  23  24
ATOM     24  C   UNL     1       1.964   1.123  -9.995  0.00  0.00    +0.351 C 
ATOM     25  O   UNL     1       1.415   0.983  -8.919  0.00  0.00    -0.244 OA
BRANCH  24  26
ATOM     26  C   UNL     1       1.321   1.912 -11.048  0.00  0.00    +0.097 A 
ATOM     27  C   UNL     1       0.103   2.575 -11.023  0.00  0.00    +0.022 A 
ATOM     28  C   UNL     1      -0.265   3.248 -12.160  0.00  0.00    +0.008 A 
ATOM     29  C   UNL     1       0.564   3.235 -13.237  0.00  0.00    +0.046 A 
ATOM     30  S   UNL     1       1.904   2.279 -12.694  0.00  0.00    -0.090 S 
ENDBRANCH  24  26
ENDBRANCH  23  24
ENDBRANCH  18  23
ENDBRANCH  11  15
BRANCH   1  32
ATOM     31  C   UNL     1      -0.184   1.342  -0.026  0.00  0.00    +0.011 C 
ATOM     32  C   UNL     1      -0.142  -0.187  -0.055  0.00  0.00    -0.035 C 
ATOM     33  C   UNL     1       0.586  -0.701   1.188  0.00  0.00    +0.011 C 
ATOM     34  C   UNL     1      -1.571  -0.735  -0.073  0.00  0.00    +0.011 C 
ENDBRANCH   1  32
BRANCH   9  35
ATOM     35  O   UNL     1       2.339  -4.547  -4.625  0.00  0.00    -0.492 OA
ATOM     36  H   UNL     1       2.355  -5.293  -5.240  0.00  0.00    +0.294 HD
ENDBRANCH   9  35
TORSDOF 7
