REMARK  Name = ZINC44516750
REMARK  5 active torsions:
REMARK  status: ('A' for Active; 'I' for Inactive)
REMARK    1  A    between atoms: C_1  and  C_2
REMARK    2  A    between atoms: C_7  and  C_8
REMARK    3  A    between atoms: C_8  and  O_10
REMARK    4  A    between atoms: O_10  and  C_11
REMARK    5  A    between atoms: C_16  and  N_17
REMARK                            x       y       z     vdW  Elec       q    Type
REMARK                         _______ _______ _______ _____ _____    ______ ____
ROOT
ATOM      1  C   UNL     1      -0.034  -0.391   2.500  0.00  0.00    +0.361 C 
ATOM      2  O   UNL     1      -0.105   0.791   2.775  0.00  0.00    -0.243 OA
ENDROOT
BRANCH   1   9
ATOM      3  C   UNL     1      -0.228   1.509   0.026  0.00  0.00    +0.047 C 
ATOM      4  C   UNL     1      -0.128   0.006   0.010  0.00  0.00    -0.008 A 
ATOM      5  C   UNL     1      -0.098  -0.818  -1.121  0.00  0.00    +0.042 A 
ATOM      6  C   UNL     1      -0.002  -2.139  -0.681  0.00  0.00    +0.027 A 
ATOM      7  N   UNL     1       0.029  -2.126   0.652  0.00  0.00    -0.352 N 
ATOM      8  H   UNL     1       0.095  -2.910   1.219  0.00  0.00    +0.166 HD
ATOM      9  C   UNL     1      -0.044  -0.820   1.098  0.00  0.00    +0.129 A 
ATOM     10  C   UNL     1       0.049  -3.314  -1.624  0.00  0.00    +0.054 C 
ATOM     11  C   UNL     1      -0.518  -2.894  -2.984  0.00  0.00    +0.014 C 
ATOM     12  C   UNL     1       0.182  -1.631  -3.496  0.00  0.00    +0.080 C 
ATOM     13  C   UNL     1      -0.148  -0.484  -2.553  0.00  0.00    +0.165 C 
ATOM     14  O   UNL     1      -0.431   0.626  -2.952  0.00  0.00    -0.292 OA
ENDBRANCH   1   9
BRANCH   1  15
ATOM     15  O   UNL     1       0.054  -1.308   3.485  0.00  0.00    -0.419 OA
BRANCH  15  16
ATOM     16  C   UNL     1       0.166  -0.863   4.764  0.00  0.00    +0.165 A 
ATOM     17  C   UNL     1       1.419  -0.696   5.335  0.00  0.00    +0.087 A 
ATOM     18  C   UNL     1       1.530  -0.242   6.637  0.00  0.00    +0.127 A 
ATOM     19  C   UNL     1       0.389   0.045   7.370  0.00  0.00    +0.041 A 
ATOM     20  C   UNL     1      -0.859  -0.121   6.801  0.00  0.00    +0.039 A 
ATOM     21  C   UNL     1      -0.974  -0.569   5.499  0.00  0.00    +0.168 A 
ATOM     22  F   UNL     1       2.749  -0.079   7.194  0.00  0.00    -0.205 F 
BRANCH  21  23
ATOM     23  N   UNL     1      -2.312  -0.740   4.890  0.00  0.00    +0.060 N 
ATOM     24  O   UNL     1      -3.305  -0.484   5.530  0.00  0.00    -0.126 OA
ATOM     25  O   UNL     1      -2.412  -1.136   3.752  0.00  0.00    -0.126 OA
ENDBRANCH  21  23
ENDBRANCH  15  16
ENDBRANCH   1  15
TORSDOF 4
