REMARK  Name = ZINC11666945
REMARK  11 active torsions:
REMARK  status: ('A' for Active; 'I' for Inactive)
REMARK    1  A    between atoms: C_3  and  C_25
REMARK    2  A    between atoms: C_4  and  O_24
REMARK    3  A    between atoms: C_6  and  O_7
REMARK    4  A    between atoms: O_7  and  C_8
REMARK    5  A    between atoms: C_10  and  O_23
REMARK    6  A    between atoms: C_12  and  O_22
REMARK    7  A    between atoms: C_14  and  O_21
REMARK    8  A    between atoms: C_16  and  C_19
REMARK    9  A    between atoms: C_19  and  O_20
REMARK   10  A    between atoms: C_25  and  C_27
REMARK   11  A    between atoms: C_27  and  C_28
REMARK                            x       y       z     vdW  Elec       q    Type
REMARK                         _______ _______ _______ _____ _____    ______ ____
ROOT
ATOM      1  C   UNL     1      -1.250   3.146   0.030  0.00  0.00    +0.046 A 
ATOM      2  C   UNL     1      -0.086   3.859   0.023  0.00  0.00    +0.018 A 
ATOM      3  C   UNL     1       1.146   3.191   0.008  0.00  0.00    +0.059 A 
ATOM      4  C   UNL     1       1.176   1.785   0.000  0.00  0.00    +0.131 A 
ATOM      5  C   UNL     1      -0.013   1.076   0.008  0.00  0.00    +0.091 A 
ATOM      6  C   UNL     1      -1.223   1.754   0.017  0.00  0.00    +0.128 A 
ENDROOT
BRANCH   4   7
ATOM      7  O   UNL     1       2.362   1.127  -0.013  0.00  0.00    -0.506 OA
ATOM      8  H   UNL     1       2.698   0.941  -0.901  0.00  0.00    +0.292 HD
ENDBRANCH   4   7
BRANCH   3   9
ATOM      9  C   UNL     1       2.397   3.954  -0.001  0.00  0.00    +0.172 C 
ATOM     10  O   UNL     1       3.462   3.373  -0.014  0.00  0.00    -0.292 OA
BRANCH   9  11
ATOM     11  C   UNL     1       2.361   5.460   0.007  0.00  0.00    +0.135 C 
BRANCH  11  12
ATOM     12  C   UNL     1       3.769   5.997  -0.004  0.00  0.00    +0.056 A 
ATOM     13  C   UNL     1       4.173   6.870  -0.961  0.00  0.00    +0.070 A 
ATOM     14  S   UNL     1       5.869   7.137  -0.467  0.00  0.00    -0.084 S 
ATOM     15  C   UNL     1       5.869   6.085   0.914  0.00  0.00    +0.156 A 
ATOM     16  N   UNL     1       4.639   5.626   0.912  0.00  0.00    -0.252 NA
ENDBRANCH  11  12
ENDBRANCH   9  11
ENDBRANCH   3   9
BRANCH   6  17
ATOM     17  O   UNL     1      -2.387   1.057   0.019  0.00  0.00    -0.461 OA
BRANCH  17  18
ATOM     18  C   UNL     1      -3.598   1.816   0.029  0.00  0.00    +0.339 C 
ATOM     19  C   UNL     1      -4.795   0.870  -0.095  0.00  0.00    +0.214 C 
ATOM     20  C   UNL     1      -6.090   1.685  -0.023  0.00  0.00    +0.180 C 
ATOM     21  C   UNL     1      -6.109   2.478   1.287  0.00  0.00    +0.177 C 
ATOM     22  C   UNL     1      -4.861   3.362   1.358  0.00  0.00    +0.179 C 
ATOM     23  O   UNL     1      -3.693   2.545   1.254  0.00  0.00    -0.331 OA
BRANCH  21  24
ATOM     24  O   UNL     1      -7.279   3.298   1.332  0.00  0.00    -0.386 OA
ATOM     25  H   UNL     1      -8.108   2.803   1.292  0.00  0.00    +0.210 HD
ENDBRANCH  21  24
BRANCH  20  26
ATOM     26  O   UNL     1      -7.213   0.802  -0.064  0.00  0.00    -0.386 OA
ATOM     27  H   UNL     1      -7.264   0.268  -0.868  0.00  0.00    +0.210 HD
ENDBRANCH  20  26
BRANCH  19  28
ATOM     28  O   UNL     1      -4.767  -0.078   0.974  0.00  0.00    -0.383 OA
ATOM     29  H   UNL     1      -3.971  -0.626   0.993  0.00  0.00    +0.210 HD
ENDBRANCH  19  28
BRANCH  22  30
ATOM     30  C   UNL     1      -4.842   4.113   2.691  0.00  0.00    +0.190 C 
BRANCH  30  31
ATOM     31  O   UNL     1      -3.741   5.024   2.709  0.00  0.00    -0.392 OA
ATOM     32  H   UNL     1      -3.667   5.535   3.526  0.00  0.00    +0.210 HD
ENDBRANCH  30  31
ENDBRANCH  22  30
ENDBRANCH  17  18
ENDBRANCH   6  17
TORSDOF 11
