REMARK  Name = ZINC33365617
REMARK  4 active torsions:
REMARK  status: ('A' for Active; 'I' for Inactive)
REMARK    1  A    between atoms: C_3  and  C_25
REMARK    2  A    between atoms: C_6  and  C_7
REMARK    3  A    between atoms: N_8  and  N_9
REMARK    4  A    between atoms: C_12  and  C_15
REMARK                            x       y       z     vdW  Elec       q    Type
REMARK                         _______ _______ _______ _____ _____    ______ ____
ROOT
ATOM      1  N   UNL     1      -0.119  -2.693  -0.110  0.00  0.00    -0.124 NA
ATOM      2  C   UNL     1      -0.103  -4.016  -0.218  0.00  0.00    +0.192 A 
ATOM      3  N   UNL     1       0.970  -4.871  -0.247  0.00  0.00    -0.332 N 
ATOM      4  C   UNL     1       0.739  -6.211  -0.364  0.00  0.00    +0.055 A 
ATOM      5  C   UNL     1      -0.530  -6.666  -0.449  0.00  0.00    +0.075 A 
ATOM      6  S   UNL     1      -1.474  -5.153  -0.355  0.00  0.00    -0.056 S 
ATOM      7  H   UNL     1       1.875  -4.529  -0.185  0.00  0.00    +0.168 HD
ENDROOT
BRANCH   4   8
ATOM      8  C   UNL     1       1.873  -7.160  -0.399  0.00  0.00    +0.003 A 
ATOM      9  C   UNL     1       3.183  -6.689  -0.306  0.00  0.00    +0.014 A 
ATOM     10  C   UNL     1       4.239  -7.576  -0.339  0.00  0.00    +0.050 A 
ATOM     11  C   UNL     1       4.003  -8.939  -0.465  0.00  0.00    +0.162 A 
ATOM     12  C   UNL     1       2.700  -9.415  -0.555  0.00  0.00    +0.163 A 
ATOM     13  C   UNL     1       1.636  -8.530  -0.519  0.00  0.00    +0.059 A 
ATOM     14  O   UNL     1       2.452 -10.749  -0.671  0.00  0.00    -0.485 OA
ATOM     15  C   UNL     1       3.549 -11.575  -1.073  0.00  0.00    +0.270 C 
ATOM     16  C   UNL     1       4.779 -11.177  -0.247  0.00  0.00    +0.270 C 
ATOM     17  O   UNL     1       5.061  -9.796  -0.499  0.00  0.00    -0.485 OA
ENDBRANCH   4   8
BRANCH   1  19
ATOM     18  C   UNL     1      -1.258  -0.755   0.011  0.00  0.00    +0.143 C 
ATOM     19  N   UNL     1      -1.242  -2.060  -0.096  0.00  0.00    -0.155 NA
BRANCH  18  25
ATOM     20  C   UNL     1       1.220  -0.672  -0.167  0.00  0.00    +0.011 A 
ATOM     21  C   UNL     1       2.392   0.024  -0.134  0.00  0.00    +0.019 A 
ATOM     22  C   UNL     1       2.382   1.402   0.114  0.00  0.00    +0.052 A 
ATOM     23  C   UNL     1       1.168   2.067   0.327  0.00  0.00    +0.019 A 
ATOM     24  C   UNL     1      -0.005   1.372   0.295  0.00  0.00    +0.011 A 
ATOM     25  C   UNL     1       0.004  -0.008   0.047  0.00  0.00    -0.005 A 
BRANCH  22  26
ATOM     26  C   UNL     1       3.613   2.132   0.149  0.00  0.00    +0.099 C 
ATOM     27  N   UNL     1       4.590   2.711   0.177  0.00  0.00    -0.191 NA
ENDBRANCH  22  26
ENDBRANCH  18  25
ENDBRANCH   1  19
TORSDOF 4
