REMARK  Name = ZINC33087905
REMARK  4 active torsions:
REMARK  status: ('A' for Active; 'I' for Inactive)
REMARK    1  A    between atoms: C_1  and  O_2
REMARK    2  A    between atoms: O_2  and  C_3
REMARK    3  A    between atoms: C_17  and  C_20
REMARK    4  A    between atoms: C_24  and  O_26
REMARK                            x       y       z     vdW  Elec       q    Type
REMARK                         _______ _______ _______ _____ _____    ______ ____
ROOT
ATOM      1  C   UNL     1       2.409   1.327  -0.037  0.00  0.00    +0.121 A 
ATOM      2  C   UNL     1       2.404  -0.060  -0.049  0.00  0.00    +0.047 A 
ATOM      3  C   UNL     1       1.205  -0.744  -0.032  0.00  0.00    +0.027 A 
ATOM      4  C   UNL     1       0.003  -0.045  -0.006  0.00  0.00    +0.034 A 
ATOM      5  C   UNL     1       0.007   1.341  -0.001  0.00  0.00    +0.006 A 
ATOM      6  C   UNL     1       1.212   2.024  -0.013  0.00  0.00    +0.053 A 
ATOM      7  C   UNL     1      -1.278   2.130   0.011  0.00  0.00    +0.155 C 
ATOM      8  C   UNL     1      -2.416   1.267   0.550  0.00  0.00    +0.047 C 
ATOM      9  C   UNL     1      -3.749   1.999   0.425  0.00  0.00    +0.011 C 
ATOM     10  C   UNL     1      -3.962   2.432  -1.028  0.00  0.00    +0.028 C 
ATOM     11  C   UNL     1      -2.776   3.298  -1.464  0.00  0.00    +0.160 C 
ATOM     12  O   UNL     1      -1.571   2.544  -1.326  0.00  0.00    -0.372 OA
ATOM     13  C   UNL     1      -2.461  -0.050  -0.230  0.00  0.00    +0.107 C 
ATOM     14  N   UNL     1      -1.201  -0.763   0.022  0.00  0.00    -0.336 N 
ATOM     15  H   UNL     1      -1.212  -1.843   0.230  0.00  0.00    +0.147 HD
ENDROOT
BRANCH  13  16
ATOM     16  C   UNL     1      -2.601   0.234  -1.704  0.00  0.00    -0.023 A 
ATOM     17  C   UNL     1      -1.530   0.744  -2.414  0.00  0.00    +0.006 A 
ATOM     18  C   UNL     1      -1.655   1.006  -3.765  0.00  0.00    +0.004 A 
ATOM     19  C   UNL     1      -2.851   0.758  -4.410  0.00  0.00    +0.045 A 
ATOM     20  C   UNL     1      -3.927   0.245  -3.701  0.00  0.00    +0.117 A 
ATOM     21  C   UNL     1      -3.797  -0.021  -2.345  0.00  0.00    +0.051 A 
BRANCH  20  22
ATOM     22  O   UNL     1      -5.105   0.000  -4.333  0.00  0.00    -0.507 OA
ATOM     23  H   UNL     1      -5.957  -0.406  -3.769  0.00  0.00    +0.292 HD
ENDBRANCH  20  22
ENDBRANCH  13  16
BRANCH   1  25
ATOM     24  C   UNL     1       4.784   1.220  -0.076  0.00  0.00    +0.277 C 
ATOM     25  O   UNL     1       3.589   2.002  -0.051  0.00  0.00    -0.495 OA
ENDBRANCH   1  25
TORSDOF 3
