REMARK  Name = ZINC24985572
REMARK  5 active torsions:
REMARK  status: ('A' for Active; 'I' for Inactive)
REMARK    1  A    between atoms: C_4  and  C_7
REMARK    2  A    between atoms: C_7  and  C_8
REMARK    3  A    between atoms: C_8  and  C_10
REMARK    4  A    between atoms: C_8  and  N_27
REMARK    5  A    between atoms: C_28  and  C_30
REMARK                            x       y       z     vdW  Elec       q    Type
REMARK                         _______ _______ _______ _____ _____    ______ ____
ROOT
ATOM      1  C   UNL     1       4.173  -0.961   1.405  0.00  0.00    +0.164 C 
ENDROOT
BRANCH   1   2
ATOM      2  C   UNL     1       5.490  -1.693   1.424  0.00  0.00    +0.236 C 
ATOM      3  O   UNL     1       5.552  -2.818   1.873  0.00  0.00    -0.274 OA
ATOM      4  N   UNL     1       6.599  -1.097   0.942  0.00  0.00    -0.300 N 
ATOM      5  C   UNL     1       6.563   0.302   0.496  0.00  0.00    +0.110 C 
ATOM      6  C   UNL     1       7.105   0.377  -0.935  0.00  0.00    +0.047 C 
ATOM      7  C   UNL     1       8.491  -0.266  -0.986  0.00  0.00    +0.064 C 
ATOM      8  C   UNL     1       8.395  -1.737  -0.581  0.00  0.00    +0.047 C 
ATOM      9  C   UNL     1       7.868  -1.834   0.859  0.00  0.00    +0.110 C 
ATOM     10  C   UNL     1       9.051  -0.157  -2.379  0.00  0.00    +0.057 A 
ATOM     11  C   UNL     1      10.001   0.737  -2.737  0.00  0.00    +0.039 A 
ATOM     12  N   UNL     1      10.266   0.562  -4.032  0.00  0.00    -0.349 N 
ATOM     13  C   UNL     1       9.517  -0.405  -4.495  0.00  0.00    +0.171 A 
ATOM     14  N   UNL     1       8.743  -0.878  -3.489  0.00  0.00    -0.348 N 
ATOM     15  H   UNL     1       8.093  -1.595  -3.549  0.00  0.00    +0.166 HD
ATOM     16  C   UNL     1      10.602   1.729  -1.772  0.00  0.00    +0.070 C 
ATOM     17  C   UNL     1       9.692   1.799  -0.538  0.00  0.00    +0.088 C 
ATOM     18  N   UNL     1       9.395   0.440  -0.064  0.00  0.00    -0.305 NA
ATOM     19  H   UNL     1       9.016   0.458   0.871  0.00  0.00    +0.123 HD
ATOM     20  H   UNL     1      10.911   1.070  -4.548  0.00  0.00    +0.166 HD
ENDBRANCH   1   2
BRANCH   1  21
ATOM     21  N   UNL     1       3.290  -1.517   2.433  0.00  0.00    -0.300 N 
ATOM     22  C   UNL     1       2.305  -0.761   2.957  0.00  0.00    +0.245 C 
ATOM     23  O   UNL     1       2.148   0.383   2.575  0.00  0.00    -0.270 OA
ATOM     24  H   UNL     1       3.415  -2.429   2.738  0.00  0.00    +0.150 HD
BRANCH  22  25
ATOM     25  C   UNL     1       1.414  -1.322   3.995  0.00  0.00    +0.039 A 
ATOM     26  C   UNL     1       1.595  -2.633   4.439  0.00  0.00    +0.013 A 
ATOM     27  C   UNL     1       0.761  -3.151   5.408  0.00  0.00    +0.004 A 
ATOM     28  C   UNL     1      -0.253  -2.376   5.941  0.00  0.00    +0.038 A 
ATOM     29  C   UNL     1      -0.439  -1.074   5.504  0.00  0.00    +0.124 A 
ATOM     30  C   UNL     1       0.393  -0.541   4.538  0.00  0.00    +0.051 A 
ATOM     31  F   UNL     1      -1.433  -0.323   6.028  0.00  0.00    -0.205 F 
ENDBRANCH  22  25
ENDBRANCH   1  21
BRANCH   1  32
ATOM     32  C   UNL     1       3.519  -1.122   0.031  0.00  0.00    +0.067 C 
BRANCH  32  36
ATOM     33  C   UNL     1      -0.003   1.287  -0.165  0.00  0.00    +0.000 A 
ATOM     34  C   UNL     1       1.217   1.813  -0.548  0.00  0.00    +0.000 A 
ATOM     35  C   UNL     1       2.357   1.034  -0.485  0.00  0.00    +0.004 A 
ATOM     36  C   UNL     1       2.277  -0.272  -0.037  0.00  0.00    -0.045 A 
ATOM     37  C   UNL     1       1.058  -0.798   0.347  0.00  0.00    +0.004 A 
ATOM     38  C   UNL     1      -0.082  -0.018   0.282  0.00  0.00    +0.000 A 
ENDBRANCH  32  36
ENDBRANCH   1  32
TORSDOF 5
