REMARK  Name = ZINC64502946
REMARK  3 active torsions:
REMARK  status: ('A' for Active; 'I' for Inactive)
REMARK    1  A    between atoms: C_6  and  N_7
REMARK    2  A    between atoms: C_12  and  N_15
REMARK    3  A    between atoms: C_21  and  C_23
REMARK                            x       y       z     vdW  Elec       q    Type
REMARK                         _______ _______ _______ _____ _____    ______ ____
ROOT
ATOM      1  N   UNL     1      -1.833  -2.528   2.160  0.00  0.00    -0.280 NA
ATOM      2  C   UNL     1      -0.433  -2.892   2.415  0.00  0.00    +0.105 C 
ATOM      3  C   UNL     1      -0.059  -2.501   3.848  0.00  0.00    +0.123 C 
ATOM      4  N   UNL     1      -1.035  -3.105   4.767  0.00  0.00    -0.297 N 
ATOM      5  C   UNL     1      -2.466  -2.897   4.497  0.00  0.00    +0.123 C 
ATOM      6  C   UNL     1      -2.745  -3.273   3.038  0.00  0.00    +0.105 C 
ATOM      7  C   UNL     1      -0.630  -3.829   5.830  0.00  0.00    +0.242 C 
ATOM      8  O   UNL     1       0.554  -3.990   6.038  0.00  0.00    -0.273 OA
ENDROOT
BRANCH   7   9
ATOM      9  C   UNL     1      -1.648  -4.438   6.758  0.00  0.00    +0.190 C 
ATOM     10  C   UNL     1      -2.503  -5.438   6.011  0.00  0.00    +0.016 C 
ATOM     11  C   UNL     1      -2.304  -6.630   6.620  0.00  0.00    -0.002 A 
ATOM     12  C   UNL     1      -2.839  -7.974   6.372  0.00  0.00    +0.029 A 
ATOM     13  C   UNL     1      -2.445  -8.994   7.168  0.00  0.00    +0.042 A 
ATOM     14  C   UNL     1      -1.540  -8.799   8.222  0.00  0.00    +0.022 A 
ATOM     15  C   UNL     1      -1.006  -7.594   8.511  0.00  0.00    +0.027 A 
ATOM     16  C   UNL     1      -1.351  -6.451   7.738  0.00  0.00    +0.043 A 
ATOM     17  N   UNL     1      -0.975  -5.196   7.819  0.00  0.00    -0.370 N 
ATOM     18 CL   UNL     1      -3.075 -10.585   6.878  0.00  0.00    -0.084 Cl
ATOM     19  H   UNL     1      -0.356  -4.830   8.471  0.00  0.00    +0.161 HD
ENDBRANCH   7   9
BRANCH   1  25
ATOM     20  N   UNL     1      -1.200  -0.721   0.010  0.00  0.00    -0.200 N 
ATOM     21  C   UNL     1      -2.369  -0.059   0.121  0.00  0.00    +0.257 C 
ATOM     22  O   UNL     1      -2.390   1.155   0.176  0.00  0.00    -0.269 OA
ATOM     23  C   UNL     1      -3.624  -0.835   0.175  0.00  0.00    +0.068 C 
ATOM     24  C   UNL     1      -3.540  -2.134   0.477  0.00  0.00    +0.014 C 
ATOM     25  C   UNL     1      -2.180  -2.728   0.747  0.00  0.00    +0.166 C 
ATOM     26  N   UNL     1      -1.173  -2.078  -0.101  0.00  0.00    -0.212 NA
ATOM     27  H   UNL     1      -1.268  -2.364  -1.064  0.00  0.00    +0.147 HD
BRANCH  20  33
ATOM     28  C   UNL     1       0.957  -0.258  -0.974  0.00  0.00    +0.028 A 
ATOM     29  C   UNL     1       2.142   0.451  -0.980  0.00  0.00    +0.040 A 
ATOM     30  C   UNL     1       2.379   1.414  -0.013  0.00  0.00    +0.124 A 
ATOM     31  C   UNL     1       1.428   1.668   0.961  0.00  0.00    +0.040 A 
ATOM     32  C   UNL     1       0.242   0.962   0.971  0.00  0.00    +0.028 A 
ATOM     33  C   UNL     1       0.002  -0.004   0.002  0.00  0.00    +0.053 A 
ATOM     34  F   UNL     1       3.539   2.107  -0.020  0.00  0.00    -0.205 F 
ENDBRANCH  20  33
ENDBRANCH   1  25
TORSDOF 3
