REMARK  Name = ZINC09569050
REMARK  8 active torsions:
REMARK  status: ('A' for Active; 'I' for Inactive)
REMARK    1  A    between atoms: C_1  and  C_2
REMARK    2  A    between atoms: C_2  and  C_3
REMARK    3  A    between atoms: C_6  and  N_9
REMARK    4  A    between atoms: C_10  and  C_12
REMARK    5  A    between atoms: N_14  and  C_15
REMARK    6  A    between atoms: C_15  and  C_16
REMARK    7  A    between atoms: C_16  and  C_17
REMARK    8  A    between atoms: C_23  and  C_25
REMARK                            x       y       z     vdW  Elec       q    Type
REMARK                         _______ _______ _______ _____ _____    ______ ____
ROOT
ATOM      1  C   UNL     1       1.119   3.644   0.024  0.00  0.00    +0.111 C 
ENDROOT
BRANCH   1   4
ATOM      2  C   UNL     1      -0.018   1.489   0.017  0.00  0.00    +0.299 C 
ATOM      3  O   UNL     1      -1.077   2.082   0.034  0.00  0.00    -0.265 OA
ATOM      4  N   UNL     1       1.139   2.179   0.007  0.00  0.00    -0.307 N 
ATOM      5  H   UNL     1       1.986   1.706  -0.010  0.00  0.00    +0.149 HD
BRANCH   2   7
ATOM      6  N   UNL     1      -1.156  -0.694   0.009  0.00  0.00    -0.278 N 
ATOM      7  C   UNL     1       0.002  -0.004   0.000  0.00  0.00    +0.303 C 
ATOM      8  O   UNL     1       1.061  -0.596  -0.022  0.00  0.00    -0.265 OA
ATOM      9  H   UNL     1      -2.000  -0.224   0.095  0.00  0.00    +0.155 HD
BRANCH   6  13
ATOM     10  C   UNL     1      -1.110  -4.844  -0.327  0.00  0.00    -0.048 A 
ATOM     11  C   UNL     1      -0.100  -4.197   0.361  0.00  0.00    +0.005 A 
ATOM     12  C   UNL     1      -0.112  -2.820   0.474  0.00  0.00    +0.023 A 
ATOM     13  C   UNL     1      -1.140  -2.086  -0.104  0.00  0.00    +0.034 A 
ATOM     14  C   UNL     1      -2.156  -2.741  -0.789  0.00  0.00    +0.023 A 
ATOM     15  C   UNL     1      -2.135  -4.117  -0.904  0.00  0.00    +0.005 A 
BRANCH  10  17
ATOM     16  C   UNL     1      -1.849  -6.963   0.729  0.00  0.00    +0.009 C 
ATOM     17  C   UNL     1      -1.093  -6.346  -0.450  0.00  0.00    +0.032 C 
ENDBRANCH  10  17
ENDBRANCH   6  13
ENDBRANCH   2   7
ENDBRANCH   1   4
BRANCH   1  18
ATOM     18  C   UNL     1       2.555   4.174   0.009  0.00  0.00    +0.075 C 
BRANCH  18  19
ATOM     19  C   UNL     1       2.534   5.681   0.026  0.00  0.00    +0.054 A 
ATOM     20  C   UNL     1       2.436   6.326   1.190  0.00  0.00    +0.072 A 
ATOM     21  S   UNL     1       2.457   8.032   0.661  0.00  0.00    -0.056 S 
ATOM     22  C   UNL     1       2.588   7.734  -1.085  0.00  0.00    +0.196 A 
ATOM     23  N   UNL     1       2.612   6.374  -1.158  0.00  0.00    -0.210 N 
ATOM     24  N   UNL     1       2.717   6.099  -2.546  0.00  0.00    -0.144 NA
ATOM     25  C   UNL     1       2.748   7.250  -3.179  0.00  0.00    +0.183 A 
ATOM     26  N   UNL     1       2.669   8.242  -2.283  0.00  0.00    -0.200 NA
BRANCH  25  27
ATOM     27  C   UNL     1       2.853   7.423  -4.649  0.00  0.00    +0.021 A 
ATOM     28  C   UNL     1       2.933   6.308  -5.480  0.00  0.00    +0.013 A 
ATOM     29  C   UNL     1       3.026   6.473  -6.847  0.00  0.00    +0.021 A 
ATOM     30  C   UNL     1       3.049   7.746  -7.392  0.00  0.00    +0.041 A 
ATOM     31  C   UNL     1       2.974   8.857  -6.570  0.00  0.00    +0.021 A 
ATOM     32  C   UNL     1       2.876   8.702  -5.202  0.00  0.00    +0.013 A 
ATOM     33 CL   UNL     1       3.171   7.948  -9.112  0.00  0.00    -0.084 Cl
ENDBRANCH  25  27
ENDBRANCH  18  19
ENDBRANCH   1  18
TORSDOF 7
