REMARK  Name = ZINC39913958
REMARK  12 active torsions:
REMARK  status: ('A' for Active; 'I' for Inactive)
REMARK    1  A    between atoms: C_1  and  C_2
REMARK    2  A    between atoms: C_2  and  C_3
REMARK    3  A    between atoms: C_3  and  C_4
REMARK    4  A    between atoms: C_4  and  O_5
REMARK    5  A    between atoms: O_5  and  C_6
REMARK    6  A    between atoms: C_9  and  C_12
REMARK    7  A    between atoms: C_15  and  C_26
REMARK    8  A    between atoms: N_22  and  C_23
REMARK    9  A    between atoms: C_23  and  C_24
REMARK   10  A    between atoms: C_24  and  O_25
REMARK   11  A    between atoms: C_29  and  C_33
REMARK   12  A    between atoms: C_31  and  O_32
REMARK                            x       y       z     vdW  Elec       q    Type
REMARK                         _______ _______ _______ _____ _____    ______ ____
ROOT
ATOM      1  C   UNL     1       2.002  -8.084   2.841  0.00  0.00    +0.141 C 
ATOM      2  C   UNL     1       0.907  -8.492   3.787  0.00  0.00    +0.035 A 
ATOM      3  C   UNL     1      -0.467  -8.572   4.037  0.00  0.00    +0.102 A 
ATOM      4  N   UNL     1      -0.621  -9.116   5.228  0.00  0.00    -0.173 NA
ATOM      5  N   UNL     1       0.520  -9.388   5.755  0.00  0.00    -0.272 N 
ATOM      6  H   UNL     1       0.648  -9.793   6.627  0.00  0.00    +0.189 HD
ATOM      7  C   UNL     1       1.524  -9.023   4.904  0.00  0.00    +0.126 A 
ATOM      8  C   UNL     1       2.976  -8.968   4.705  0.00  0.00    +0.266 C 
ATOM      9  O   UNL     1       3.802  -9.359   5.507  0.00  0.00    -0.268 OA
ATOM     10  N   UNL     1       3.266  -8.425   3.507  0.00  0.00    -0.283 N 
ENDROOT
BRANCH   3  11
ATOM     11  C   UNL     1      -1.553  -8.124   3.129  0.00  0.00    +0.045 A 
ATOM     12  C   UNL     1      -1.251  -7.683   1.843  0.00  0.00    +0.034 A 
ATOM     13  C   UNL     1      -2.264  -7.267   1.002  0.00  0.00    +0.045 A 
ATOM     14  C   UNL     1      -3.580  -7.288   1.433  0.00  0.00    -0.029 A 
ATOM     15  C   UNL     1      -3.889  -7.724   2.707  0.00  0.00    +0.050 A 
ATOM     16  C   UNL     1      -2.882  -8.149   3.559  0.00  0.00    +0.126 A 
ATOM     17  C   UNL     1      -4.680  -6.833   0.508  0.00  0.00    +0.045 C 
ATOM     18 CL   UNL     1      -1.887  -6.717  -0.601  0.00  0.00    -0.083 Cl
BRANCH  16  19
ATOM     19  O   UNL     1      -3.186  -8.584   4.810  0.00  0.00    -0.506 OA
ATOM     20  H   UNL     1      -3.190  -7.885   5.478  0.00  0.00    +0.292 HD
ENDBRANCH  16  19
ENDBRANCH   3  11
BRANCH   1  24
ATOM     21  C   UNL     1       1.816  -3.879   2.101  0.00  0.00    +0.121 A 
ATOM     22  C   UNL     1       1.534  -4.777   1.082  0.00  0.00    +0.046 A 
ATOM     23  C   UNL     1       1.595  -6.136   1.323  0.00  0.00    +0.009 A 
ATOM     24  C   UNL     1       1.937  -6.601   2.580  0.00  0.00    -0.022 A 
ATOM     25  C   UNL     1       2.217  -5.708   3.598  0.00  0.00    +0.009 A 
ATOM     26  C   UNL     1       2.163  -4.349   3.359  0.00  0.00    +0.046 A 
BRANCH  21  27
ATOM     27  O   UNL     1       1.757  -2.542   1.866  0.00  0.00    -0.492 OA
BRANCH  27  28
ATOM     28  C   UNL     1       1.392  -2.131   0.547  0.00  0.00    +0.229 C 
BRANCH  28  29
ATOM     29  C   UNL     1       1.379  -0.603   0.474  0.00  0.00    +0.041 C 
BRANCH  29  31
ATOM     30  C   UNL     1       0.975   1.366  -1.010  0.00  0.00    +0.004 C 
ATOM     31  C   UNL     1       0.988  -0.162  -0.938  0.00  0.00    -0.000 C 
ENDBRANCH  29  31
ENDBRANCH  28  29
ENDBRANCH  27  28
ENDBRANCH  21  27
ENDBRANCH   1  24
BRANCH  10  32
ATOM     32  C   UNL     1       4.609  -8.210   2.962  0.00  0.00    +0.137 C 
BRANCH  32  33
ATOM     33  C   UNL     1       5.166  -6.886   3.488  0.00  0.00    +0.175 C 
BRANCH  33  34
ATOM     34  O   UNL     1       5.350  -6.974   4.902  0.00  0.00    -0.393 OA
ATOM     35  H   UNL     1       5.702  -6.168   5.304  0.00  0.00    +0.209 HD
ENDBRANCH  33  34
ENDBRANCH  32  33
ENDBRANCH  10  32
TORSDOF 10
