REMARK  Name = ZINC00623160
REMARK  8 active torsions:
REMARK  status: ('A' for Active; 'I' for Inactive)
REMARK    1  A    between atoms: C_1  and  C_2
REMARK    2  A    between atoms: C_2  and  C_4
REMARK    3  A    between atoms: C_2  and  C_26
REMARK    4  A    between atoms: C_5  and  C_14
REMARK    5  A    between atoms: C_14  and  C_16
REMARK    6  A    between atoms: C_14  and  C_17
REMARK    7  A    between atoms: C_17  and  C_19
REMARK    8  A    between atoms: C_26  and  C_28
REMARK                            x       y       z     vdW  Elec       q    Type
REMARK                         _______ _______ _______ _____ _____    ______ ____
ROOT
ATOM      1  C   UNL     1      -0.691   0.346   3.466  0.00  0.00    +0.079 A 
ATOM      2  C   UNL     1       0.063   0.819   2.380  0.00  0.00    +0.094 A 
ATOM      3  N   UNL     1       1.342   1.062   2.525  0.00  0.00    -0.163 NA
ATOM      4  N   UNL     1       1.933   0.852   3.774  0.00  0.00    -0.164 N 
ATOM      5  C   UNL     1       3.191   0.999   4.266  0.00  0.00    +0.237 A 
ATOM      6  N   UNL     1       3.161   0.640   5.530  0.00  0.00    -0.110 NA
ATOM      7  N   UNL     1       1.972   0.279   5.864  0.00  0.00    -0.105 NA
ATOM      8  C   UNL     1       1.165   0.386   4.825  0.00  0.00    +0.274 A 
ATOM      9  N   UNL     1      -0.137   0.145   4.637  0.00  0.00    -0.212 NA
ATOM     10  N   UNL     1       4.305   1.447   3.562  0.00  0.00    -0.326 N 
ATOM     11  H   UNL     1       5.280   1.526   4.066  0.00  0.00    +0.145 HD
ATOM     12  H   UNL     1       4.212   1.721   2.501  0.00  0.00    +0.145 HD
ENDROOT
BRANCH   1  14
ATOM     13  C   UNL     1      -2.540  -1.194   4.065  0.00  0.00    +0.022 C 
ATOM     14  C   UNL     1      -2.160   0.066   3.283  0.00  0.00    +0.108 C 
BRANCH  14  15
ATOM     15  C   UNL     1      -2.962   1.235   3.793  0.00  0.00    +0.172 C 
ATOM     16  O   UNL     1      -2.495   1.969   4.638  0.00  0.00    -0.291 OA
BRANCH  15  17
ATOM     17  C   UNL     1      -4.312   1.486   3.267  0.00  0.00    +0.018 A 
ATOM     18  C   UNL     1      -4.853   0.645   2.288  0.00  0.00    +0.013 A 
ATOM     19  C   UNL     1      -6.121   0.883   1.804  0.00  0.00    +0.020 A 
ATOM     20  C   UNL     1      -6.855   1.960   2.275  0.00  0.00    +0.041 A 
ATOM     21  C   UNL     1      -6.324   2.800   3.240  0.00  0.00    +0.020 A 
ATOM     22  C   UNL     1      -5.060   2.571   3.738  0.00  0.00    +0.013 A 
ATOM     23 CL   UNL     1      -8.449   2.256   1.653  0.00  0.00    -0.084 Cl
ENDBRANCH  15  17
ENDBRANCH  14  15
ENDBRANCH   1  14
BRANCH   2  24
ATOM     24  C   UNL     1      -0.598   1.042   1.044  0.00  0.00    +0.109 C 
ATOM     25  C   UNL     1      -0.047   0.039   0.028  0.00  0.00    +0.022 C 
BRANCH  24  26
ATOM     26  C   UNL     1      -0.315   2.444   0.571  0.00  0.00    +0.172 C 
ATOM     27  O   UNL     1       0.716   2.996   0.891  0.00  0.00    -0.291 OA
BRANCH  26  28
ATOM     28  C   UNL     1      -1.290   3.144  -0.280  0.00  0.00    +0.018 A 
ATOM     29  C   UNL     1      -2.478   2.509  -0.656  0.00  0.00    +0.013 A 
ATOM     30  C   UNL     1      -3.389   3.172  -1.449  0.00  0.00    +0.020 A 
ATOM     31  C   UNL     1      -3.126   4.462  -1.883  0.00  0.00    +0.041 A 
ATOM     32  C   UNL     1      -1.948   5.095  -1.519  0.00  0.00    +0.020 A 
ATOM     33  C   UNL     1      -1.031   4.446  -0.722  0.00  0.00    +0.013 A 
ATOM     34 CL   UNL     1      -4.276   5.288  -2.887  0.00  0.00    -0.084 Cl
ENDBRANCH  26  28
ENDBRANCH  24  26
ENDBRANCH   2  24
TORSDOF 6
