REMARK  Name = ZINC13501066
REMARK  10 active torsions:
REMARK  status: ('A' for Active; 'I' for Inactive)
REMARK    1  A    between atoms: C_1  and  C_2
REMARK    2  A    between atoms: C_2  and  C_3
REMARK    3  A    between atoms: C_3  and  C_5
REMARK    4  A    between atoms: C_3  and  N_69
REMARK    5  A    between atoms: N_9  and  C_10
REMARK    6  A    between atoms: C_15  and  C_16
REMARK    7  A    between atoms: C_15  and  N_69
REMARK    8  A    between atoms: C_20  and  C_29
REMARK    9  A    between atoms: C_22  and  C_28
REMARK   10  A    between atoms: C_30  and  N_69
REMARK                            x       y       z     vdW  Elec       q    Type
REMARK                         _______ _______ _______ _____ _____    ______ ____
ROOT
ATOM      1  N   UNL     1       2.748  -1.883   1.031  0.00  0.00    +0.391 N 
ATOM      2  H   UNL     1       2.738  -1.720   2.045  0.00  0.00    -0.080 HD
ENDROOT
BRANCH   1   3
ATOM      3  C   UNL     1       3.807  -1.051   0.422  0.00  0.00    -0.067 C 
ATOM      4  C   UNL     1       3.561   0.432   0.772  0.00  0.00    -0.015 C 
ATOM      5  C   UNL     1       3.998   1.199  -0.501  0.00  0.00    -0.002 C 
ATOM      6  C   UNL     1       3.513   0.272  -1.643  0.00  0.00    -0.002 C 
ATOM      7  C   UNL     1       3.777  -1.152  -1.113  0.00  0.00    -0.015 C 
ENDBRANCH   1   3
BRANCH   1   8
ATOM      8  C   UNL     1       1.431  -1.512   0.472  0.00  0.00    +0.003 C 
BRANCH   8   9
ATOM      9  C   UNL     1       1.179  -2.252  -0.816  0.00  0.00    +0.138 A 
ATOM     10  N   UNL     1       1.521  -3.487  -1.089  0.00  0.00    -0.115 NA
ATOM     11  N   UNL     1       1.131  -3.753  -2.288  0.00  0.00    -0.023 NA
ATOM     12  N   UNL     1       0.550  -2.719  -2.787  0.00  0.00    -0.044 NA
ATOM     13  N   UNL     1       0.559  -1.772  -1.910  0.00  0.00    -0.228 N 
BRANCH  13  14
ATOM     14  C   UNL     1      -0.001  -0.428  -2.074  0.00  0.00    +0.111 C 
ATOM     15  C   UNL     1      -1.504  -0.519  -2.411  0.00  0.00    +0.027 C 
ATOM     16  C   UNL     1      -1.734   0.629  -3.426  0.00  0.00    +0.002 C 
ATOM     17  C   UNL     1      -0.441   0.599  -4.278  0.00  0.00    +0.002 C 
ATOM     18  C   UNL     1       0.674   0.282  -3.260  0.00  0.00    +0.027 C 
ENDBRANCH  13  14
ENDBRANCH   8   9
BRANCH   8  20
ATOM     19  C   UNL     1       0.507  -1.005   2.738  0.00  0.00    +0.002 C 
ATOM     20  C   UNL     1       0.349  -1.877   1.490  0.00  0.00    -0.011 C 
ENDBRANCH   8  20
ENDBRANCH   1   8
BRANCH   1  21
ATOM     21  C   UNL     1       3.021  -3.313   0.776  0.00  0.00    -0.036 C 
BRANCH  21  22
ATOM     22  C   UNL     1       4.098  -3.775   1.723  0.00  0.00    +0.001 A 
ATOM     23  C   UNL     1       3.760  -4.341   2.907  0.00  0.00    +0.017 A 
ATOM     24  C   UNL     1       4.831  -4.780   3.804  0.00  0.00    -0.001 A 
ATOM     25  C   UNL     1       4.544  -5.371   5.039  0.00  0.00    +0.013 A 
ATOM     26  C   UNL     1       5.566  -5.770   5.853  0.00  0.00    -0.050 A 
ATOM     27  C   UNL     1       6.888  -5.593   5.465  0.00  0.00    +0.008 A 
ATOM     28  C   UNL     1       7.194  -5.013   4.253  0.00  0.00    -0.026 A 
ATOM     29  C   UNL     1       6.170  -4.599   3.408  0.00  0.00    +0.052 A 
ATOM     30  N   UNL     1       6.447  -4.017   2.189  0.00  0.00    -0.322 N 
ATOM     31  H   UNL     1       7.370  -3.893   1.918  0.00  0.00    +0.169 HD
ATOM     32  C   UNL     1       5.457  -3.622   1.370  0.00  0.00    +0.251 A 
ATOM     33  O   UNL     1       5.739  -3.115   0.298  0.00  0.00    -0.268 OA
ATOM     34  C   UNL     1       8.633  -4.828   3.845  0.00  0.00    +0.046 C 
ATOM     35  C   UNL     1       5.257  -6.406   7.183  0.00  0.00    +0.044 C 
ENDBRANCH  21  22
ENDBRANCH   1  21
TORSDOF 7
