REMARK  Name = ZINC18199589
REMARK  6 active torsions:
REMARK  status: ('A' for Active; 'I' for Inactive)
REMARK    1  A    between atoms: C_1  and  C_2
REMARK    2  A    between atoms: C_2  and  C_4
REMARK    3  A    between atoms: C_2  and  C_14
REMARK    4  A    between atoms: C_4  and  C_5
REMARK    5  A    between atoms: C_28  and  N_32
REMARK    6  A    between atoms: C_29  and  C_30
REMARK                            x       y       z     vdW  Elec       q    Type
REMARK                         _______ _______ _______ _____ _____    ______ ____
ROOT
ATOM      1  C   UNL     1      -1.309   7.440   0.030  0.00  0.00    +0.078 C 
ATOM      2  C   UNL     1      -1.222   5.937   0.036  0.00  0.00    +0.088 A 
ATOM      3  C   UNL     1      -0.014   5.312  -0.056  0.00  0.00    +0.151 A 
ATOM      4  C   UNL     1       0.011   3.841  -0.046  0.00  0.00    +0.060 A 
ATOM      5  C   UNL     1       1.215   3.139  -0.136  0.00  0.00    +0.015 A 
ATOM      6  C   UNL     1       1.202   1.762  -0.123  0.00  0.00    +0.001 A 
ATOM      7  C   UNL     1       0.002   1.074  -0.021  0.00  0.00    +0.004 A 
ATOM      8  C   UNL     1      -1.194   1.755   0.063  0.00  0.00    +0.047 A 
ATOM      9  C   UNL     1      -1.204   3.143   0.058  0.00  0.00    +0.143 A 
ATOM     10  O   UNL     1      -2.365   3.828   0.145  0.00  0.00    -0.422 OA
ATOM     11  C   UNL     1      -2.395   5.170   0.138  0.00  0.00    +0.345 A 
ATOM     12  O   UNL     1      -3.469   5.738   0.221  0.00  0.00    -0.245 OA
ATOM     13  O   UNL     1       1.135   6.008  -0.156  0.00  0.00    -0.440 OA
ATOM     14  C   UNL     1       1.170   7.302   0.210  0.00  0.00    +0.198 C 
ATOM     15  C   UNL     1       0.039   8.039   0.318  0.00  0.00    +0.094 C 
ENDROOT
BRANCH  14  16
ATOM     16  N   UNL     1       2.381   7.888   0.481  0.00  0.00    -0.328 N 
ATOM     17  H   UNL     1       2.420   8.820   0.747  0.00  0.00    +0.145 HD
ATOM     18  H   UNL     1       3.198   7.370   0.408  0.00  0.00    +0.145 HD
ENDBRANCH  14  16
BRANCH   1  20
ATOM     19  C   UNL     1      -0.729   7.582  -2.396  0.00  0.00    +0.009 C 
ATOM     20  C   UNL     1      -1.788   7.914  -1.343  0.00  0.00    +0.003 C 
BRANCH  20  21
ATOM     21  C   UNL     1      -2.017   9.426  -1.309  0.00  0.00    +0.039 C 
BRANCH  21  22
ATOM     22  C   UNL     1      -2.633   9.871  -2.611  0.00  0.00    -0.043 A 
ATOM     23  C   UNL     1      -4.008   9.898  -2.750  0.00  0.00    +0.007 A 
ATOM     24  C   UNL     1      -4.578  10.305  -3.942  0.00  0.00    +0.050 A 
ATOM     25  C   UNL     1      -3.770  10.687  -5.002  0.00  0.00    +0.166 A 
ATOM     26  C   UNL     1      -2.385  10.659  -4.862  0.00  0.00    +0.166 A 
ATOM     27  C   UNL     1      -1.821  10.255  -3.662  0.00  0.00    +0.053 A 
ATOM     28  O   UNL     1      -1.820  11.076  -6.032  0.00  0.00    -0.453 OA
ATOM     29  C   UNL     1      -2.861  10.968  -7.021  0.00  0.00    +0.466 C 
ATOM     30  O   UNL     1      -4.073  11.121  -6.260  0.00  0.00    -0.453 OA
ENDBRANCH  21  22
ENDBRANCH  20  21
ENDBRANCH   1  20
BRANCH  15  31
ATOM     31  C   UNL     1       0.130   9.413   0.713  0.00  0.00    +0.100 C 
ATOM     32  N   UNL     1       0.201  10.502   1.026  0.00  0.00    -0.191 NA
ENDBRANCH  15  31
TORSDOF 5
