REMARK  Name = ZINC30883068
REMARK  13 active torsions:
REMARK  status: ('A' for Active; 'I' for Inactive)
REMARK    1  A    between atoms: C_1  and  C_2
REMARK    2  A    between atoms: C_5  and  C_8
REMARK    3  A    between atoms: C_11  and  C_13
REMARK    4  A    between atoms: C_13  and  C_14
REMARK    5  A    between atoms: C_17  and  C_34
REMARK    6  A    between atoms: C_19  and  C_24
REMARK    7  A    between atoms: C_22  and  C_23
REMARK    8  A    between atoms: C_24  and  N_25
REMARK    9  A    between atoms: N_25  and  C_26
REMARK   10  A    between atoms: C_26  and  C_27
REMARK   11  A    between atoms: C_27  and  N_28
REMARK   12  A    between atoms: C_34  and  C_35
REMARK   13  A    between atoms: C_34  and  C_36
REMARK                            x       y       z     vdW  Elec       q    Type
REMARK                         _______ _______ _______ _____ _____    ______ ____
ROOT
ATOM      1  C   UNL     1       3.189   3.697   1.455  0.00  0.00    +0.024 C 
ATOM      2  C   UNL     1       2.867   3.814  -0.037  0.00  0.00    +0.012 C 
ATOM      3  C   UNL     1       1.377   3.508  -0.237  0.00  0.00    -0.003 C 
ATOM      4  C   UNL     1       1.139   2.031   0.085  0.00  0.00    -0.002 C 
ATOM      5  C   UNL     1       1.760   1.683   1.406  0.00  0.00    -0.026 C 
ATOM      6  C   UNL     1       2.655   2.405   2.000  0.00  0.00    -0.073 C 
ATOM      7  C   UNL     1       3.194   1.918   3.320  0.00  0.00    +0.039 C 
ENDROOT
BRANCH   3   8
ATOM      8  C   UNL     1       0.980   3.789  -1.687  0.00  0.00    -0.014 C 
ATOM      9  C   UNL     1       1.083   5.291  -1.962  0.00  0.00    +0.007 C 
ATOM     10  C   UNL     1       1.919   3.033  -2.629  0.00  0.00    +0.007 C 
ENDBRANCH   3   8
BRANCH   1  11
ATOM     11  C   UNL     1       2.546   4.865   2.205  0.00  0.00    +0.105 C 
BRANCH  11  15
ATOM     12  C   UNL     1       3.034   4.404   5.766  0.00  0.00    +0.248 A 
ATOM     13  N   UNL     1       4.057   5.156   5.433  0.00  0.00    -0.107 NA
ATOM     14  N   UNL     1       4.009   5.403   4.171  0.00  0.00    -0.112 NA
ATOM     15  C   UNL     1       2.962   4.822   3.653  0.00  0.00    +0.218 A 
ATOM     16  O   UNL     1       2.319   4.184   4.645  0.00  0.00    -0.420 OA
BRANCH  12  21
ATOM     17  C   UNL     1       1.820   2.434  11.035  0.00  0.00    +0.044 C 
ATOM     18  C   UNL     1       2.138   2.951   9.655  0.00  0.00    -0.050 A 
ATOM     19  C   UNL     1       3.257   3.739   9.456  0.00  0.00    +0.004 A 
ATOM     20  C   UNL     1       3.554   4.214   8.195  0.00  0.00    +0.013 A 
ATOM     21  C   UNL     1       2.722   3.898   7.120  0.00  0.00    +0.038 A 
ATOM     22  C   UNL     1       1.591   3.108   7.329  0.00  0.00    +0.013 A 
ATOM     23  C   UNL     1       1.309   2.634   8.593  0.00  0.00    +0.004 A 
ENDBRANCH  12  21
ENDBRANCH  11  15
ENDBRANCH   1  11
BRANCH   4  24
ATOM     24  C   UNL     1      -0.365   1.761   0.144  0.00  0.00    -0.075 C 
BRANCH  24  25
ATOM     25  N   UNL     1      -0.597   0.324   0.346  0.00  0.00    +0.380 N 
ATOM     26  H   UNL     1      -0.157  -0.239  -0.490  0.00  0.00    -0.086 HD
ATOM     27  H   UNL     1      -0.130   0.006   1.289  0.00  0.00    -0.086 HD
BRANCH  25  28
ATOM     28  C   UNL     1      -2.035   0.027   0.408  0.00  0.00    -0.067 C 
BRANCH  28  29
ATOM     29  C   UNL     1      -2.236  -1.475   0.618  0.00  0.00    +0.065 C 
BRANCH  29  30
ATOM     30  N   UNL     1      -3.673  -1.772   0.681  0.00  0.00    -0.300 NA
ATOM     31  C   UNL     1      -4.284  -1.174   1.877  0.00  0.00    +0.112 C 
ATOM     32  C   UNL     1      -5.788  -1.457   1.872  0.00  0.00    +0.175 C 
ATOM     33  O   UNL     1      -6.002  -2.869   1.804  0.00  0.00    -0.377 OA
ATOM     34  C   UNL     1      -5.422  -3.485   0.650  0.00  0.00    +0.175 C 
ATOM     35  C   UNL     1      -3.913  -3.222   0.643  0.00  0.00    +0.112 C 
ENDBRANCH  29  30
ENDBRANCH  28  29
ENDBRANCH  25  28
ENDBRANCH  24  25
ENDBRANCH   4  24
TORSDOF 9
