REMARK  Name = ZINC67559369
REMARK  5 active torsions:
REMARK  status: ('A' for Active; 'I' for Inactive)
REMARK    1  A    between atoms: C_1  and  C_2
REMARK    2  A    between atoms: C_4  and  C_8
REMARK    3  A    between atoms: C_5  and  C_7
REMARK    4  A    between atoms: N_18  and  C_19
REMARK    5  A    between atoms: C_22  and  C_24
REMARK                            x       y       z     vdW  Elec       q    Type
REMARK                         _______ _______ _______ _____ _____    ______ ____
ROOT
ATOM      1  C   UNL     1      -1.365  -3.419  -0.007  0.00  0.00    +0.250 C 
ATOM      2  O   UNL     1      -0.808  -4.495  -0.114  0.00  0.00    -0.270 OA
ATOM      3  N   UNL     1      -2.707  -3.362   0.100  0.00  0.00    -0.294 N 
ATOM      4  C   UNL     1      -3.403  -2.067   0.106  0.00  0.00    +0.127 C 
ATOM      5  C   UNL     1      -4.458  -2.073  -1.006  0.00  0.00    +0.128 C 
ATOM      6  N   UNL     1      -5.253  -3.304  -0.894  0.00  0.00    -0.283 N 
ATOM      7  C   UNL     1      -4.557  -4.599  -0.901  0.00  0.00    +0.128 C 
ATOM      8  C   UNL     1      -3.502  -4.594   0.206  0.00  0.00    +0.127 C 
ATOM      9  C   UNL     1      -6.595  -3.248  -0.787  0.00  0.00    +0.303 C 
ATOM     10  O   UNL     1      -7.167  -2.178  -0.875  0.00  0.00    -0.253 OA
ATOM     11  N   UNL     1      -7.303  -4.376  -0.582  0.00  0.00    -0.296 N 
ATOM     12  H   UNL     1      -6.855  -5.237  -0.585  0.00  0.00    +0.151 HD
ENDROOT
BRANCH   1  16
ATOM     13  C   UNL     1       0.315   1.280   1.057  0.00  0.00    +0.086 C 
ATOM     14  C   UNL     1       0.153  -0.106   0.486  0.00  0.00    +0.103 A 
ATOM     15  C   UNL     1      -0.822  -0.970   0.806  0.00  0.00    +0.057 A 
ATOM     16  C   UNL     1      -0.572  -2.177   0.005  0.00  0.00    +0.078 A 
ATOM     17  C   UNL     1       0.549  -1.907  -0.725  0.00  0.00    +0.114 A 
ATOM     18  O   UNL     1       0.959  -0.670  -0.427  0.00  0.00    -0.464 OA
ATOM     19  C   UNL     1       1.209  -2.842  -1.705  0.00  0.00    +0.087 C 
ENDBRANCH   1  16
BRANCH  11  20
ATOM     20  C   UNL     1      -8.748  -4.303  -0.355  0.00  0.00    +0.082 C 
ATOM     21  C   UNL     1      -9.333  -5.169   0.762  0.00  0.00    +0.033 C 
ATOM     22  C   UNL     1      -9.582  -5.538  -0.703  0.00  0.00    +0.041 C 
BRANCH  22  23
ATOM     23  C   UNL     1     -10.966  -5.311  -1.252  0.00  0.00    -0.040 A 
ATOM     24  C   UNL     1     -11.903  -4.623  -0.503  0.00  0.00    +0.004 A 
ATOM     25  C   UNL     1     -13.173  -4.414  -1.005  0.00  0.00    +0.003 A 
ATOM     26  C   UNL     1     -13.510  -4.894  -2.257  0.00  0.00    +0.038 A 
ATOM     27  C   UNL     1     -12.573  -5.584  -3.008  0.00  0.00    +0.124 A 
ATOM     28  C   UNL     1     -11.299  -5.787  -2.506  0.00  0.00    +0.042 A 
ATOM     29  F   UNL     1     -12.901  -6.054  -4.231  0.00  0.00    -0.205 F 
ENDBRANCH  22  23
ENDBRANCH  11  20
TORSDOF 3
