REMARK  Name = ZINC08919820
REMARK  10 active torsions:
REMARK  status: ('A' for Active; 'I' for Inactive)
REMARK    1  A    between atoms: C_1  and  C_2
REMARK    2  A    between atoms: C_2  and  C_3
REMARK    3  A    between atoms: C_3  and  C_4
REMARK    4  A    between atoms: C_3  and  C_5
REMARK    5  A    between atoms: C_3  and  C_6
REMARK    6  A    between atoms: C_15  and  O_34
REMARK    7  A    between atoms: C_17  and  C_20
REMARK    8  A    between atoms: C_24  and  O_26
REMARK    9  A    between atoms: O_26  and  C_27
REMARK   10  A    between atoms: C_27  and  C_29
REMARK                            x       y       z     vdW  Elec       q    Type
REMARK                         _______ _______ _______ _____ _____    ______ ____
ROOT
ATOM      1  C   UNL     1       1.175  -2.481   0.914  0.00  0.00    -0.000 C 
ATOM      2  C   UNL     1       1.875  -2.972   2.184  0.00  0.00    +0.009 C 
ATOM      3  C   UNL     1       2.021  -4.494   2.144  0.00  0.00    +0.037 C 
ATOM      4  C   UNL     1       0.658  -5.109   1.857  0.00  0.00    -0.023 A 
ATOM      5  C   UNL     1      -0.344  -4.370   1.328  0.00  0.00    -0.004 A 
ATOM      6  S   UNL     1      -1.705  -5.495   1.179  0.00  0.00    -0.078 S 
ATOM      7  C   UNL     1      -0.995  -6.866   1.784  0.00  0.00    +0.080 A 
ATOM      8  C   UNL     1       0.314  -6.495   2.113  0.00  0.00    +0.068 A 
ATOM      9  C   UNL     1       1.203  -7.545   2.674  0.00  0.00    +0.220 C 
ATOM     10  N   UNL     1       0.651  -8.665   3.057  0.00  0.00    -0.223 NA
ATOM     11  C   UNL     1      -0.781  -8.931   3.032  0.00  0.00    +0.224 C 
ATOM     12  N   UNL     1      -1.462  -8.145   1.986  0.00  0.00    -0.313 N 
ATOM     13  C   UNL     1      -0.296  -2.921   0.953  0.00  0.00    +0.046 C 
ATOM     14  H   UNL     1      -2.197  -8.509   1.470  0.00  0.00    +0.149 HD
ENDROOT
BRANCH  11  15
ATOM     15  C   UNL     1      -1.371  -8.577   4.373  0.00  0.00    -0.002 A 
ATOM     16  C   UNL     1      -2.682  -8.146   4.459  0.00  0.00    +0.007 A 
ATOM     17  C   UNL     1      -3.226  -7.820   5.688  0.00  0.00    +0.004 A 
ATOM     18  C   UNL     1      -2.460  -7.925   6.833  0.00  0.00    +0.046 A 
ATOM     19  C   UNL     1      -1.145  -8.357   6.749  0.00  0.00    +0.132 A 
ATOM     20  C   UNL     1      -0.603  -8.688   5.516  0.00  0.00    +0.053 A 
BRANCH  19  21
ATOM     21  O   UNL     1      -0.389  -8.461   7.874  0.00  0.00    -0.422 OA
BRANCH  21  22
ATOM     22  C   UNL     1       0.626  -7.588   8.038  0.00  0.00    +0.351 C 
ATOM     23  O   UNL     1       0.779  -6.677   7.247  0.00  0.00    -0.244 OA
BRANCH  22  24
ATOM     24  C   UNL     1       1.544  -7.737   9.168  0.00  0.00    +0.097 A 
ATOM     25  C   UNL     1       2.636  -6.955   9.518  0.00  0.00    +0.022 A 
ATOM     26  C   UNL     1       3.315  -7.348  10.646  0.00  0.00    +0.008 A 
ATOM     27  C   UNL     1       2.888  -8.441  11.325  0.00  0.00    +0.046 A 
ATOM     28  S   UNL     1       1.547  -8.967  10.459  0.00  0.00    -0.090 S 
ENDBRANCH  22  24
ENDBRANCH  21  22
ENDBRANCH  19  21
ENDBRANCH  11  15
BRANCH   1  29
ATOM     29  C   UNL     1       1.252  -0.955   0.843  0.00  0.00    -0.032 C 
ATOM     30  C   UNL     1       2.718  -0.519   0.810  0.00  0.00    +0.011 C 
ATOM     31  C   UNL     1       0.568  -0.352   2.071  0.00  0.00    +0.011 C 
BRANCH  29  33
ATOM     32  C   UNL     1       0.624   1.059  -0.495  0.00  0.00    +0.004 C 
ATOM     33  C   UNL     1       0.547  -0.467  -0.424  0.00  0.00    +0.003 C 
ENDBRANCH  29  33
ENDBRANCH   1  29
BRANCH   9  34
ATOM     34  O   UNL     1       2.537  -7.348   2.784  0.00  0.00    -0.492 OA
ATOM     35  H   UNL     1       3.016  -8.099   3.162  0.00  0.00    +0.294 HD
ENDBRANCH   9  34
TORSDOF 7
