REMARK  Name = ZINC12441864
REMARK  8 active torsions:
REMARK  status: ('A' for Active; 'I' for Inactive)
REMARK    1  A    between atoms: C_1  and  C_2
REMARK    2  A    between atoms: C_7  and  C_8
REMARK    3  A    between atoms: C_8  and  N_9
REMARK    4  A    between atoms: C_14  and  C_22
REMARK    5  A    between atoms: C_24  and  C_28
REMARK    6  A    between atoms: C_28  and  C_29
REMARK    7  A    between atoms: C_29  and  C_30
REMARK    8  A    between atoms: C_29  and  C_31
REMARK                            x       y       z     vdW  Elec       q    Type
REMARK                         _______ _______ _______ _____ _____    ______ ____
ROOT
ATOM      1  N   UNL     1       2.126   0.643  -0.591  0.00  0.00    -0.298 N 
ATOM      2  C   UNL     1       1.495   1.804   0.045  0.00  0.00    +0.110 C 
ATOM      3  C   UNL     1      -0.023   1.511   0.052  0.00  0.00    +0.003 C 
ATOM      4  C   UNL     1      -0.569   1.808   1.464  0.00  0.00    -0.005 C 
ATOM      5  C   UNL     1      -0.272   0.525   2.264  0.00  0.00    -0.015 C 
ATOM      6  C   UNL     1      -0.044  -0.031  -0.052  0.00  0.00    +0.018 C 
ATOM      7  C   UNL     1       1.288  -0.409  -0.632  0.00  0.00    +0.206 C 
ATOM      8  O   UNL     1       1.567  -1.503  -1.074  0.00  0.00    -0.277 OA
ATOM      9  C   UNL     1      -1.209  -0.491  -0.943  0.00  0.00    -0.004 C 
ATOM     10  C   UNL     1      -1.772  -1.718  -0.176  0.00  0.00    -0.019 C 
ATOM     11  C   UNL     1      -1.552  -1.296   1.299  0.00  0.00    -0.076 C 
ATOM     12  N   UNL     1      -0.260  -0.581   1.282  0.00  0.00    +0.395 N 
ATOM     13  H   UNL     1       0.496  -1.235   1.513  0.00  0.00    -0.079 HD
ENDROOT
BRANCH   5  14
ATOM     14  C   UNL     1      -1.350   0.296   3.292  0.00  0.00    +0.050 A 
ATOM     15  C   UNL     1      -1.274  -0.584   4.376  0.00  0.00    +0.046 A 
ATOM     16  C   UNL     1      -2.439  -0.502   5.060  0.00  0.00    +0.036 A 
ATOM     17  N   UNL     1      -3.223   0.398   4.431  0.00  0.00    -0.281 N 
ATOM     18  H   UNL     1      -4.147   0.667   4.705  0.00  0.00    +0.189 HD
ATOM     19  N   UNL     1      -2.515   0.889   3.327  0.00  0.00    -0.180 NA
BRANCH  16  20
ATOM     20  C   UNL     1      -2.796  -1.276   6.303  0.00  0.00    +0.057 C 
BRANCH  20  21
ATOM     21  C   UNL     1      -2.253  -0.545   7.533  0.00  0.00    -0.011 C 
ATOM     22  C   UNL     1      -2.962   0.803   7.679  0.00  0.00    +0.007 C 
ATOM     23  C   UNL     1      -2.506  -1.392   8.782  0.00  0.00    +0.007 C 
ENDBRANCH  20  21
ENDBRANCH  16  20
ENDBRANCH   5  14
BRANCH   1  24
ATOM     24  C   UNL     1       3.495   0.629  -1.114  0.00  0.00    +0.143 C 
BRANCH  24  31
ATOM     25  C   UNL     1       5.925   0.459  -2.666  0.00  0.00    +0.044 C 
ATOM     26  C   UNL     1       4.636   0.873  -3.327  0.00  0.00    -0.046 A 
ATOM     27  C   UNL     1       4.617   1.172  -4.677  0.00  0.00    +0.003 A 
ATOM     28  C   UNL     1       3.435   1.552  -5.284  0.00  0.00    +0.000 A 
ATOM     29  C   UNL     1       2.271   1.633  -4.541  0.00  0.00    +0.000 A 
ATOM     30  C   UNL     1       2.290   1.330  -3.193  0.00  0.00    +0.005 A 
ATOM     31  C   UNL     1       3.474   0.955  -2.585  0.00  0.00    -0.027 A 
ENDBRANCH  24  31
ENDBRANCH   1  24
TORSDOF 5
