REMARK  Name = ZINC13639857
REMARK  5 active torsions:
REMARK  status: ('A' for Active; 'I' for Inactive)
REMARK    1  A    between atoms: C_3  and  C_9
REMARK    2  A    between atoms: C_4  and  O_8
REMARK    3  A    between atoms: C_6  and  O_7
REMARK    4  A    between atoms: C_20  and  S_25
REMARK    5  A    between atoms: S_25  and  N_28
REMARK                            x       y       z     vdW  Elec       q    Type
REMARK                         _______ _______ _______ _____ _____    ______ ____
ROOT
ATOM      1  C   UNL     1       9.566   2.225   0.479  0.00  0.00    +0.108 C 
ATOM      2  C   UNL     1       8.931   0.858   0.659  0.00  0.00    +0.029 C 
ATOM      3  C   UNL     1       9.836  -0.238   1.228  0.00  0.00    +0.033 C 
ATOM      4  C   UNL     1       8.807  -1.133   1.922  0.00  0.00    -0.030 C 
ATOM      5  C   UNL     1       7.746  -0.416   2.274  0.00  0.00    -0.023 C 
ATOM      6  C   UNL     1       7.980   0.998   1.884  0.00  0.00    +0.049 C 
ATOM      7  C   UNL     1       6.872   1.899   1.500  0.00  0.00    -0.018 A 
ATOM      8  C   UNL     1       5.588   1.738   1.974  0.00  0.00    +0.034 A 
ATOM      9  C   UNL     1       4.593   2.625   1.610  0.00  0.00    +0.106 A 
ATOM     10  C   UNL     1       4.887   3.688   0.774  0.00  0.00    +0.030 A 
ATOM     11  C   UNL     1       6.169   3.857   0.293  0.00  0.00    +0.025 A 
ATOM     12  C   UNL     1       7.173   2.963   0.643  0.00  0.00    +0.031 A 
ATOM     13  N   UNL     1       8.458   3.135   0.114  0.00  0.00    -0.336 N 
ATOM     14  H   UNL     1       8.625   3.865  -0.503  0.00  0.00    +0.147 HD
ENDROOT
BRANCH   1  17
ATOM     15  C   UNL     1      10.090   3.901   3.821  0.00  0.00    +0.046 A 
ATOM     16  C   UNL     1       9.508   3.492   2.636  0.00  0.00    +0.012 A 
ATOM     17  C   UNL     1      10.206   2.675   1.768  0.00  0.00    +0.015 A 
ATOM     18  C   UNL     1      11.497   2.273   2.077  0.00  0.00    +0.125 A 
ATOM     19  C   UNL     1      12.085   2.687   3.262  0.00  0.00    +0.091 A 
ATOM     20  C   UNL     1      11.381   3.502   4.135  0.00  0.00    +0.120 A 
BRANCH  20  21
ATOM     21  O   UNL     1      11.954   3.909   5.298  0.00  0.00    -0.507 OA
ATOM     22  H   UNL     1      12.441   4.742   5.226  0.00  0.00    +0.292 HD
ENDBRANCH  20  21
BRANCH  18  23
ATOM     23  O   UNL     1      12.185   1.474   1.220  0.00  0.00    -0.506 OA
ATOM     24  H   UNL     1      12.704   1.957   0.563  0.00  0.00    +0.292 HD
ENDBRANCH  18  23
ENDBRANCH   1  17
BRANCH   9  25
ATOM     25  S   UNL     1       2.953   2.407   2.215  0.00  0.00    +0.061 S 
ATOM     26  O   UNL     1       2.330   3.684   2.171  0.00  0.00    -0.153 OA
ATOM     27  O   UNL     1       3.059   1.652   3.414  0.00  0.00    -0.153 OA
BRANCH  25  28
ATOM     28  N   UNL     1       2.151   1.453   1.124  0.00  0.00    -0.177 NA
ATOM     29  C   UNL     1       1.420   2.052  -0.001  0.00  0.00    +0.109 C 
ATOM     30  C   UNL     1      -0.019   1.526   0.010  0.00  0.00    +0.017 C 
ATOM     31  C   UNL     1       0.002  -0.004   0.002  0.00  0.00    +0.003 C 
ATOM     32  C   UNL     1       0.712  -0.513   1.258  0.00  0.00    +0.017 C 
ATOM     33  C   UNL     1       2.159  -0.010   1.262  0.00  0.00    +0.109 C 
ENDBRANCH  25  28
ENDBRANCH   9  25
TORSDOF 5
