REMARK  Name = ZINC06301465
REMARK  10 active torsions:
REMARK  status: ('A' for Active; 'I' for Inactive)
REMARK    1  A    between atoms: C_1  and  C_2
REMARK    2  A    between atoms: C_4  and  C_38
REMARK    3  A    between atoms: C_7  and  C_14
REMARK    4  A    between atoms: C_14  and  N_67
REMARK    5  A    between atoms: C_15  and  C_16
REMARK    6  A    between atoms: C_15  and  N_67
REMARK    7  A    between atoms: C_25  and  C_26
REMARK    8  A    between atoms: C_25  and  N_67
REMARK    9  A    between atoms: N_30  and  C_31
REMARK   10  A    between atoms: C_31  and  C_32
REMARK                            x       y       z     vdW  Elec       q    Type
REMARK                         _______ _______ _______ _____ _____    ______ ____
ROOT
ATOM      1  N   UNL     1      -2.567   5.005  -1.395  0.00  0.00    +0.390 N 
ATOM      2  H   UNL     1      -2.597   3.984  -1.492  0.00  0.00    -0.080 HD
ENDROOT
BRANCH   1   3
ATOM      3  C   UNL     1      -3.931   5.545  -1.577  0.00  0.00    -0.036 C 
BRANCH   3  10
ATOM      4  C   UNL     1      -9.133   1.305   2.733  0.00  0.00    +0.044 C 
ATOM      5  C   UNL     1      -8.158   2.260   2.095  0.00  0.00    -0.048 A 
ATOM      6  C   UNL     1      -7.815   3.434   2.752  0.00  0.00    +0.007 A 
ATOM      7  C   UNL     1      -6.934   4.313   2.190  0.00  0.00    -0.041 A 
ATOM      8  C   UNL     1      -6.371   4.029   0.942  0.00  0.00    +0.002 A 
ATOM      9  C   UNL     1      -5.423   4.949   0.311  0.00  0.00    +0.017 A 
ATOM     10  C   UNL     1      -4.909   4.620  -0.900  0.00  0.00    +0.001 A 
ATOM     11  C   UNL     1      -5.293   3.418  -1.532  0.00  0.00    +0.251 A 
ATOM     12  O   UNL     1      -4.823   3.144  -2.623  0.00  0.00    -0.268 OA
ATOM     13  N   UNL     1      -6.159   2.564  -0.958  0.00  0.00    -0.322 N 
ATOM     14  H   UNL     1      -6.398   1.745  -1.419  0.00  0.00    +0.169 HD
ATOM     15  C   UNL     1      -6.716   2.840   0.272  0.00  0.00    +0.050 A 
ATOM     16  C   UNL     1      -7.616   1.959   0.864  0.00  0.00    +0.029 A 
ATOM     17  C   UNL     1      -6.569   5.584   2.913  0.00  0.00    +0.044 C 
ENDBRANCH   3  10
ENDBRANCH   1   3
BRANCH   1  18
ATOM     18  C   UNL     1      -2.064   5.345  -0.047  0.00  0.00    -0.042 C 
BRANCH  18  19
ATOM     19  C   UNL     1      -1.912   6.837   0.100  0.00  0.00    -0.060 A 
ATOM     20  C   UNL     1      -2.944   7.586   0.635  0.00  0.00    +0.005 A 
ATOM     21  C   UNL     1      -2.809   8.955   0.771  0.00  0.00    +0.050 A 
ATOM     22  C   UNL     1      -1.639   9.580   0.371  0.00  0.00    +0.166 A 
ATOM     23  C   UNL     1      -0.600   8.825  -0.168  0.00  0.00    +0.166 A 
ATOM     24  C   UNL     1      -0.744   7.454  -0.305  0.00  0.00    +0.051 A 
ATOM     25  O   UNL     1       0.431   9.663  -0.480  0.00  0.00    -0.453 OA
ATOM     26  C   UNL     1       0.173  10.879   0.247  0.00  0.00    +0.466 C 
ATOM     27  O   UNL     1      -1.259  10.891   0.396  0.00  0.00    -0.453 OA
ENDBRANCH  18  19
ENDBRANCH   1  18
BRANCH   1  28
ATOM     28  C   UNL     1      -1.663   5.559  -2.425  0.00  0.00    +0.001 C 
BRANCH  28  29
ATOM     29  C   UNL     1      -0.467   4.652  -2.555  0.00  0.00    +0.135 A 
ATOM     30  N   UNL     1       0.632   4.699  -1.843  0.00  0.00    -0.115 NA
ATOM     31  N   UNL     1       1.413   3.760  -2.253  0.00  0.00    -0.023 NA
ATOM     32  N   UNL     1       0.844   3.120  -3.214  0.00  0.00    -0.044 NA
ATOM     33  N   UNL     1      -0.317   3.640  -3.430  0.00  0.00    -0.229 N 
BRANCH  33  34
ATOM     34  C   UNL     1      -1.289   3.210  -4.438  0.00  0.00    +0.178 C 
BRANCH  34  35
ATOM     35  C   UNL     1      -1.041   3.971  -5.742  0.00  0.00    +0.140 C 
ATOM     36  C   UNL     1      -2.131   3.610  -6.775  0.00  0.00    +0.035 C 
ATOM     37  C   UNL     1      -1.320   3.531  -8.097  0.00  0.00    +0.031 C 
ATOM     38  C   UNL     1       0.031   2.974  -7.580  0.00  0.00    +0.160 C 
ATOM     39  O   UNL     1       0.223   3.587  -6.296  0.00  0.00    -0.375 OA
ENDBRANCH  34  35
ENDBRANCH  33  34
ENDBRANCH  28  29
ENDBRANCH   1  28
TORSDOF 8
