REMARK  Name = ZINC15837849
REMARK  7 active torsions:
REMARK  status: ('A' for Active; 'I' for Inactive)
REMARK    1  A    between atoms: C_1  and  C_2
REMARK    2  A    between atoms: C_7  and  C_8
REMARK    3  A    between atoms: C_14  and  C_15
REMARK    4  A    between atoms: C_18  and  C_20
REMARK    5  A    between atoms: C_23  and  C_26
REMARK    6  A    between atoms: C_26  and  O_28
REMARK    7  A    between atoms: O_28  and  C_29
REMARK                            x       y       z     vdW  Elec       q    Type
REMARK                         _______ _______ _______ _____ _____    ______ ____
ROOT
ATOM      1  C   UNL     1       2.381   0.329   2.218  0.00  0.00    +0.130 C 
ATOM      2  N   UNL     1       1.852   1.503   2.467  0.00  0.00    -0.164 NA
ATOM      3  N   UNL     1       1.463   1.850   3.744  0.00  0.00    -0.152 N 
ATOM      4  C   UNL     1       0.801   3.042   4.108  0.00  0.00    +0.153 C 
ATOM      5  N   UNL     1       0.108   3.765   3.267  0.00  0.00    -0.283 NA
ATOM      6  C   UNL     1       0.970   3.396   5.544  0.00  0.00    +0.084 C 
ATOM      7  C   UNL     1       1.028   4.713   5.968  0.00  0.00    +0.063 C 
ATOM      8  C   UNL     1       1.072   2.264   6.495  0.00  0.00    +0.273 C 
ATOM      9  O   UNL     1       0.760   2.400   7.667  0.00  0.00    -0.268 OA
ATOM     10  N   UNL     1       1.518   1.081   6.028  0.00  0.00    -0.152 NA
ATOM     11  C   UNL     1       1.720   0.935   4.743  0.00  0.00    +0.181 C 
ATOM     12  S   UNL     1       2.388  -0.434   3.834  0.00  0.00    -0.033 S 
ATOM     13  H   UNL     1       0.030   3.489   2.340  0.00  0.00    +0.188 HD
ENDROOT
BRANCH   1  20
ATOM     14  C   UNL     1       2.180   1.931  -0.182  0.00  0.00    +0.044 C 
ATOM     15  C   UNL     1       2.755   0.539  -0.236  0.00  0.00    -0.041 A 
ATOM     16  C   UNL     1       3.198   0.020  -1.436  0.00  0.00    +0.004 A 
ATOM     17  C   UNL     1       3.726  -1.257  -1.486  0.00  0.00    +0.000 A 
ATOM     18  C   UNL     1       3.815  -2.022  -0.337  0.00  0.00    +0.001 A 
ATOM     19  C   UNL     1       3.376  -1.514   0.869  0.00  0.00    +0.011 A 
ATOM     20  C   UNL     1       2.848  -0.224   0.927  0.00  0.00    +0.012 A 
ENDBRANCH   1  20
BRANCH   7  21
ATOM     21  C   UNL     1       1.430   5.011   7.283  0.00  0.00    +0.129 A 
ATOM     22  C   UNL     1       1.392   6.261   7.881  0.00  0.00    +0.050 A 
ATOM     23  C   UNL     1       1.878   6.102   9.179  0.00  0.00    +0.050 A 
ATOM     24  C   UNL     1       2.195   4.769   9.330  0.00  0.00    +0.136 A 
ATOM     25  O   UNL     1       1.913   4.128   8.182  0.00  0.00    -0.455 OA
BRANCH  24  26
ATOM     26  C   UNL     1       2.745   4.148  10.549  0.00  0.00    +0.017 A 
ATOM     27  C   UNL     1       2.983   4.928  11.685  0.00  0.00    +0.012 A 
ATOM     28  C   UNL     1       3.494   4.351  12.819  0.00  0.00    +0.015 A 
ATOM     29  C   UNL     1       3.777   2.982  12.839  0.00  0.00    +0.059 A 
ATOM     30  C   UNL     1       3.539   2.201  11.704  0.00  0.00    +0.015 A 
ATOM     31  C   UNL     1       3.023   2.777  10.572  0.00  0.00    +0.012 A 
BRANCH  29  32
ATOM     32  C   UNL     1       4.328   2.360  14.060  0.00  0.00    +0.339 C 
ATOM     33  O   UNL     1       4.535   3.038  15.046  0.00  0.00    -0.245 OA
BRANCH  32  34
ATOM     34  O   UNL     1       4.601   1.041  14.080  0.00  0.00    -0.464 OA
ATOM     35  C   UNL     1       5.131   0.506  15.294  0.00  0.00    +0.280 C 
ENDBRANCH  32  34
ENDBRANCH  29  32
ENDBRANCH  24  26
ENDBRANCH   7  21
TORSDOF 5
