REMARK  Name = ZINC51475861
REMARK  12 active torsions:
REMARK  status: ('A' for Active; 'I' for Inactive)
REMARK    1  A    between atoms: C_1  and  C_2
REMARK    2  A    between atoms: C_2  and  C_3
REMARK    3  A    between atoms: C_4  and  C_25
REMARK    4  A    between atoms: C_5  and  C_24
REMARK    5  A    between atoms: C_8  and  C_9
REMARK    6  A    between atoms: N_11  and  N_12
REMARK    7  A    between atoms: N_12  and  C_13
REMARK    8  A    between atoms: C_13  and  N_15
REMARK    9  A    between atoms: N_15  and  C_16
REMARK   10  A    between atoms: C_20  and  C_23
REMARK   11  A    between atoms: C_21  and  C_22
REMARK   12  A    between atoms: C_25  and  C_27
REMARK                            x       y       z     vdW  Elec       q    Type
REMARK                         _______ _______ _______ _____ _____    ______ ____
ROOT
ATOM      1  C   UNL     1      -1.795  -0.946  -2.382  0.00  0.00    +0.277 C 
ATOM      2  O   UNL     1      -0.597  -0.912  -2.589  0.00  0.00    -0.267 OA
ATOM      3  N   UNL     1      -2.644  -1.241  -3.386  0.00  0.00    -0.230 N 
ATOM      4  H   UNL     1      -3.600  -1.268  -3.221  0.00  0.00    +0.173 HD
ENDROOT
BRANCH   1  10
ATOM      5  C   UNL     1      -1.568  -0.356   0.058  0.00  0.00    -0.007 A 
ATOM      6  C   UNL     1      -2.470  -0.159   1.132  0.00  0.00    +0.041 A 
ATOM      7  C   UNL     1      -3.746  -0.368   0.632  0.00  0.00    +0.024 A 
ATOM      8  N   UNL     1      -3.644  -0.674  -0.670  0.00  0.00    -0.354 N 
ATOM      9  H   UNL     1      -4.389  -0.868  -1.261  0.00  0.00    +0.166 HD
ATOM     10  C   UNL     1      -2.316  -0.666  -1.038  0.00  0.00    +0.107 A 
ATOM     11  C   UNL     1      -5.029  -0.266   1.416  0.00  0.00    +0.064 C 
BRANCH   6  12
ATOM     12  C   UNL     1      -2.121   0.197   2.510  0.00  0.00    +0.162 C 
ATOM     13  O   UNL     1      -2.126   1.359   2.857  0.00  0.00    -0.292 OA
ATOM     14  C   UNL     1      -1.756  -0.882   3.498  0.00  0.00    +0.091 C 
ENDBRANCH   6  12
BRANCH   5  16
ATOM     15  C   UNL     1       0.345   1.201  -0.195  0.00  0.00    +0.009 C 
ATOM     16  C   UNL     1      -0.067  -0.239   0.116  0.00  0.00    +0.035 C 
ENDBRANCH   5  16
ENDBRANCH   1  10
BRANCH   3  17
ATOM     17  N   UNL     1      -2.147  -1.508  -4.668  0.00  0.00    -0.245 N 
ATOM     18  H   UNL     1      -1.192  -1.482  -4.833  0.00  0.00    +0.172 HD
BRANCH  17  19
ATOM     19  C   UNL     1      -2.997  -1.803  -5.672  0.00  0.00    +0.151 C 
ATOM     20  S   UNL     1      -2.389  -2.130  -7.239  0.00  0.00    -0.017 S 
BRANCH  19  21
ATOM     21  N   UNL     1      -4.324  -1.841  -5.443  0.00  0.00    -0.296 N 
ATOM     22  H   UNL     1      -4.673  -1.592  -4.573  0.00  0.00    +0.154 HD
BRANCH  21  23
ATOM     23  C   UNL     1      -5.199  -2.239  -6.459  0.00  0.00    +0.036 A 
ATOM     24  C   UNL     1      -5.066  -1.712  -7.737  0.00  0.00    +0.023 A 
ATOM     25  C   UNL     1      -5.931  -2.108  -8.739  0.00  0.00    +0.002 A 
ATOM     26  C   UNL     1      -6.928  -3.027  -8.470  0.00  0.00    +0.004 A 
ATOM     27  C   UNL     1      -7.062  -3.554  -7.199  0.00  0.00    -0.046 A 
ATOM     28  C   UNL     1      -6.197  -3.167  -6.194  0.00  0.00    -0.026 A 
ATOM     29  C   UNL     1      -6.341  -3.746  -4.810  0.00  0.00    +0.046 C 
ATOM     30  C   UNL     1      -8.150  -4.556  -6.910  0.00  0.00    +0.044 C 
ENDBRANCH  21  23
ENDBRANCH  19  21
ENDBRANCH  17  19
ENDBRANCH   3  17
TORSDOF 7
