REMARK  Name = ZINC20757993
REMARK  7 active torsions:
REMARK  status: ('A' for Active; 'I' for Inactive)
REMARK    1  A    between atoms: C_1  and  C_2
REMARK    2  A    between atoms: C_2  and  C_3
REMARK    3  A    between atoms: C_3  and  C_5
REMARK    4  A    between atoms: C_3  and  N_6
REMARK    5  A    between atoms: C_8  and  C_15
REMARK    6  A    between atoms: N_29  and  C_30
REMARK    7  A    between atoms: C_30  and  C_31
REMARK                            x       y       z     vdW  Elec       q    Type
REMARK                         _______ _______ _______ _____ _____    ______ ____
ROOT
ATOM      1  C   UNL     1       2.452   1.190  -0.156  0.00  0.00    +0.021 C 
ATOM      2  C   UNL     1       2.507   0.401  -1.442  0.00  0.00    +0.011 A 
ATOM      3  C   UNL     1       3.059  -0.831  -1.528  0.00  0.00    -0.022 A 
ATOM      4  C   UNL     1       2.926  -1.264  -2.901  0.00  0.00    +0.003 A 
ATOM      5  C   UNL     1       3.306  -2.432  -3.570  0.00  0.00    +0.010 A 
ATOM      6  C   UNL     1       3.013  -2.503  -4.909  0.00  0.00    +0.001 A 
ATOM      7  C   UNL     1       2.371  -1.474  -5.578  0.00  0.00    +0.002 A 
ATOM      8  C   UNL     1       1.986  -0.306  -4.942  0.00  0.00    +0.026 A 
ATOM      9  C   UNL     1       2.270  -0.206  -3.582  0.00  0.00    +0.047 A 
ATOM     10  N   UNL     1       2.033   0.781  -2.668  0.00  0.00    -0.359 N 
ATOM     11  H   UNL     1       1.548   1.761  -2.791  0.00  0.00    +0.166 HD
ATOM     12  C   UNL     1       3.680  -1.547  -0.355  0.00  0.00    +0.019 C 
ATOM     13  C   UNL     1       3.921  -0.517   0.756  0.00  0.00    -0.073 C 
ATOM     14  N   UNL     1       2.699   0.271   0.967  0.00  0.00    +0.388 N 
ATOM     15  H   UNL     1       1.855  -0.433   1.015  0.00  0.00    -0.080 HD
ENDROOT
BRANCH   1  18
ATOM     16  N   UNL     1      -0.297   3.726   0.138  0.00  0.00    -0.258 N 
ATOM     17  C   UNL     1       0.952   3.175  -0.000  0.00  0.00    +0.262 A 
ATOM     18  C   UNL     1       1.090   1.819  -0.005  0.00  0.00    +0.074 A 
ATOM     19  C   UNL     1      -0.055   1.014   0.133  0.00  0.00    +0.260 A 
ATOM     20  O   UNL     1       0.044  -0.200   0.131  0.00  0.00    -0.267 OA
ATOM     21  N   UNL     1      -1.264   1.596   0.261  0.00  0.00    -0.275 N 
ATOM     22  H   UNL     1      -2.160   0.966   0.359  0.00  0.00    +0.173 HD
ATOM     23  C   UNL     1      -1.379   2.937   0.269  0.00  0.00    +0.332 A 
ATOM     24  O   UNL     1      -2.478   3.443   0.391  0.00  0.00    -0.246 OA
ATOM     25  O   UNL     1       2.035   3.970  -0.132  0.00  0.00    -0.267 OA
BRANCH  16  26
ATOM     26  C   UNL     1      -0.453   5.182   0.145  0.00  0.00    +0.092 C 
ATOM     27  C   UNL     1      -1.374   5.601  -1.003  0.00  0.00    +0.031 C 
BRANCH  26  29
ATOM     28  C   UNL     1      -0.087   5.316   2.613  0.00  0.00    +0.006 C 
ATOM     29  C   UNL     1      -1.064   5.624   1.476  0.00  0.00    +0.022 C 
ENDBRANCH  26  29
ENDBRANCH  16  26
ENDBRANCH   1  18
BRANCH  14  30
ATOM     30  C   UNL     1       2.755   0.999   2.241  0.00  0.00    -0.081 C 
ATOM     31  C   UNL     1       4.015   1.866   2.279  0.00  0.00    -0.017 C 
ENDBRANCH  14  30
TORSDOF 4
