REMARK  Name = ZINC22823263
REMARK  10 active torsions:
REMARK  status: ('A' for Active; 'I' for Inactive)
REMARK    1  A    between atoms: C_1  and  C_2
REMARK    2  A    between atoms: C_5  and  C_8
REMARK    3  A    between atoms: C_10  and  C_13
REMARK    4  A    between atoms: C_13  and  N_14
REMARK    5  A    between atoms: N_17  and  C_20
REMARK    6  A    between atoms: C_20  and  C_22
REMARK    7  A    between atoms: C_20  and  C_23
REMARK    8  A    between atoms: N_25  and  C_26
REMARK    9  A    between atoms: C_26  and  C_27
REMARK   10  A    between atoms: C_27  and  C_28
REMARK                            x       y       z     vdW  Elec       q    Type
REMARK                         _______ _______ _______ _____ _____    ______ ____
ROOT
ATOM      1  N   UNL     1       3.495   8.269  -7.929  0.00  0.00    -0.297 NA
ATOM      2  C   UNL     1       2.591   7.594  -8.871  0.00  0.00    +0.066 C 
ATOM      3  C   UNL     1       1.240   7.354  -8.193  0.00  0.00    -0.062 C 
ATOM      4  N   UNL     1       1.438   6.543  -6.984  0.00  0.00    +0.389 N 
ATOM      5  C   UNL     1       2.342   7.218  -6.043  0.00  0.00    -0.062 C 
ATOM      6  C   UNL     1       3.694   7.458  -6.720  0.00  0.00    +0.066 C 
ATOM      7  H   UNL     1       1.907   5.594  -7.285  0.00  0.00    -0.081 HD
ENDROOT
BRANCH   4   8
ATOM      8  C   UNL     1       0.154   6.227  -6.346  0.00  0.00    +0.016 C 
ATOM      9  C   UNL     1      -0.685   7.501  -6.230  0.00  0.00    -0.004 C 
BRANCH   8  10
ATOM     10  C   UNL     1      -0.586   5.213  -7.179  0.00  0.00    +0.199 C 
ATOM     11  O   UNL     1      -0.236   4.994  -8.320  0.00  0.00    -0.278 OA
ATOM     12  N   UNL     1      -1.636   4.549  -6.658  0.00  0.00    -0.316 N 
ATOM     13  H   UNL     1      -1.954   4.747  -5.624  0.00  0.00    +0.149 HD
BRANCH  12  14
ATOM     14  C   UNL     1      -2.355   3.562  -7.468  0.00  0.00    +0.108 C 
BRANCH  14  15
ATOM     15  C   UNL     1      -3.495   2.959  -6.645  0.00  0.00    +0.049 C 
BRANCH  15  16
ATOM     16  C   UNL     1      -4.235   1.945  -7.479  0.00  0.00    -0.072 C 
ATOM     17  C   UNL     1      -3.893   0.701  -7.367  0.00  0.00    -0.028 C 
ATOM     18  C   UNL     1      -4.528  -0.418  -8.137  0.00  0.00    +0.027 C 
ATOM     19  C   UNL     1      -5.866   0.034  -8.725  0.00  0.00    +0.004 C 
ATOM     20  C   UNL     1      -5.655   1.376  -9.437  0.00  0.00    +0.005 C 
ATOM     21  C   UNL     1      -5.321   2.439  -8.388  0.00  0.00    +0.030 C 
ENDBRANCH  15  16
ENDBRANCH  14  15
ENDBRANCH  12  14
ENDBRANCH   8  10
ENDBRANCH   4   8
BRANCH   1  22
ATOM     22  C   UNL     1       4.780   8.585  -8.568  0.00  0.00    +0.183 C 
BRANCH  22  25
ATOM     23  C   UNL     1       7.261   9.133  -6.026  0.00  0.00    +0.202 A 
ATOM     24  N   UNL     1       6.583   8.291  -6.838  0.00  0.00    -0.190 NA
ATOM     25  C   UNL     1       5.761   9.047  -7.521  0.00  0.00    +0.242 A 
ATOM     26  O   UNL     1       5.960  10.307  -7.120  0.00  0.00    -0.336 OA
ATOM     27  N   UNL     1       6.816  10.340  -6.262  0.00  0.00    -0.056 NA
BRANCH  23  32
ATOM     28  C   UNL     1      11.345   7.678  -2.234  0.00  0.00    +0.044 C 
ATOM     29  C   UNL     1      10.277   8.059  -3.226  0.00  0.00    -0.050 A 
ATOM     30  C   UNL     1       9.909   9.385  -3.368  0.00  0.00    +0.004 A 
ATOM     31  C   UNL     1       8.931   9.739  -4.275  0.00  0.00    +0.012 A 
ATOM     32  C   UNL     1       8.314   8.758  -5.049  0.00  0.00    +0.022 A 
ATOM     33  C   UNL     1       8.686   7.424  -4.899  0.00  0.00    +0.012 A 
ATOM     34  C   UNL     1       9.668   7.081  -3.992  0.00  0.00    +0.004 A 
ENDBRANCH  23  32
ENDBRANCH  22  25
ENDBRANCH   1  22
TORSDOF 8
