REMARK  Name = ZINC04181120
REMARK  6 active torsions:
REMARK  status: ('A' for Active; 'I' for Inactive)
REMARK    1  A    between atoms: C_1  and  C_2
REMARK    2  A    between atoms: C_2  and  C_28
REMARK    3  A    between atoms: C_7  and  N_11
REMARK    4  A    between atoms: C_8  and  C_9
REMARK    5  A    between atoms: C_12  and  C_14
REMARK    6  A    between atoms: C_20  and  C_22
REMARK                            x       y       z     vdW  Elec       q    Type
REMARK                         _______ _______ _______ _____ _____    ______ ____
ROOT
ATOM      1  N   UNL     1      -5.108   0.225   3.490  0.00  0.00    -0.279 N 
ATOM      2  C   UNL     1      -5.274   0.391   4.818  0.00  0.00    +0.222 C 
ATOM      3  O   UNL     1      -4.306   0.494   5.541  0.00  0.00    -0.275 OA
ATOM      4  H   UNL     1      -5.882   0.142   2.912  0.00  0.00    +0.155 HD
ENDROOT
BRANCH   1  11
ATOM      5  C   UNL     1       0.059   1.791   0.169  0.00  0.00    +0.041 C 
ATOM      6  C   UNL     1       0.012   0.271  -0.001  0.00  0.00    +0.068 C 
ATOM      7  C   UNL     1      -1.449  -0.188  -0.068  0.00  0.00    +0.071 C 
ATOM      8  C   UNL     1      -2.056  -0.019   1.318  0.00  0.00    -0.013 A 
ATOM      9  C   UNL     1      -1.253   0.126   2.398  0.00  0.00    +0.022 A 
ATOM     10  S   UNL     1      -2.363   0.288   3.762  0.00  0.00    -0.075 S 
ATOM     11  C   UNL     1      -3.830   0.170   2.952  0.00  0.00    +0.090 A 
ATOM     12  C   UNL     1      -3.472   0.005   1.623  0.00  0.00    +0.084 A 
ATOM     13  C   UNL     1       0.244   0.137   2.384  0.00  0.00    +0.203 C 
ATOM     14  O   UNL     1       0.675  -0.350   1.103  0.00  0.00    -0.368 OA
ATOM     15  C   UNL     1       0.721  -0.116  -1.301  0.00  0.00    +0.041 C 
BRANCH  12  16
ATOM     16  C   UNL     1      -4.459  -0.136   0.595  0.00  0.00    +0.102 C 
ATOM     17  N   UNL     1      -5.242  -0.247  -0.220  0.00  0.00    -0.191 NA
ENDBRANCH  12  16
ENDBRANCH   1  11
BRANCH   2  18
ATOM     18  C   UNL     1      -6.662   0.451   5.402  0.00  0.00    +0.094 C 
ATOM     19  C   UNL     1      -6.661   1.351   6.639  0.00  0.00    +0.060 C 
ATOM     20  C   UNL     1      -5.918   0.687   7.761  0.00  0.00    +0.015 C 
ATOM     21  C   UNL     1      -5.641  -0.579   7.800  0.00  0.00    -0.011 C 
ATOM     22  C   UNL     1      -6.017  -1.554   6.723  0.00  0.00    +0.044 C 
ATOM     23  C   UNL     1      -7.105  -0.957   5.821  0.00  0.00    +0.118 C 
ATOM     24 CL   UNL     1      -5.396   1.675   9.090  0.00  0.00    -0.089 Cl
BRANCH  23  25
ATOM     25  C   UNL     1      -7.287  -1.816   4.596  0.00  0.00    +0.360 C 
ATOM     26  O   UNL     1      -7.096  -3.019   4.662  0.00  0.00    -0.246 OA
ATOM     27  O   UNL     1      -7.624  -1.309   3.540  0.00  0.00    -0.246 OA
ENDBRANCH  23  25
ENDBRANCH   2  18
TORSDOF 4
