REMARK  Name = ZINC39689204
REMARK  5 active torsions:
REMARK  status: ('A' for Active; 'I' for Inactive)
REMARK    1  A    between atoms: C_4  and  C_8
REMARK    2  A    between atoms: C_12  and  C_21
REMARK    3  A    between atoms: N_23  and  C_24
REMARK    4  A    between atoms: C_24  and  C_25
REMARK    5  A    between atoms: N_28  and  C_31
REMARK                            x       y       z     vdW  Elec       q    Type
REMARK                         _______ _______ _______ _____ _____    ______ ____
ROOT
ATOM      1  C   UNL     1       3.497  -0.640  -0.112  0.00  0.00    +0.249 C 
ATOM      2  O   UNL     1       4.518   0.019  -0.144  0.00  0.00    -0.270 OA
ATOM      3  N   UNL     1       3.563  -1.978   0.033  0.00  0.00    -0.296 N 
ATOM      4  C   UNL     1       2.448  -2.954  -0.013  0.00  0.00    +0.121 C 
ATOM      5  C   UNL     1       3.023  -4.169  -0.774  0.00  0.00    +0.100 C 
ATOM      6  C   UNL     1       4.546  -4.069  -0.580  0.00  0.00    -0.004 C 
ATOM      7  C   UNL     1       4.769  -2.808   0.268  0.00  0.00    +0.115 C 
ATOM      8  C   UNL     1       5.241  -3.919  -1.930  0.00  0.00    -0.010 C 
ATOM      9  C   UNL     1       6.757  -3.878  -1.716  0.00  0.00    -0.082 C 
ATOM     10  N   UNL     1       7.192  -5.113  -1.053  0.00  0.00    +0.379 N 
ATOM     11  C   UNL     1       6.591  -5.204   0.283  0.00  0.00    -0.082 C 
ATOM     12  C   UNL     1       5.068  -5.300   0.153  0.00  0.00    -0.010 C 
ATOM     13  H   UNL     1       6.906  -5.908  -1.604  0.00  0.00    -0.086 HD
ATOM     14  H   UNL     1       8.198  -5.112  -0.968  0.00  0.00    -0.086 HD
ENDROOT
BRANCH   1  18
ATOM     15  C   UNL     1      -0.281   1.274  -0.458  0.00  0.00    +0.023 A 
ATOM     16  C   UNL     1       0.809   1.776  -1.145  0.00  0.00    +0.040 A 
ATOM     17  C   UNL     1       2.042   1.159  -1.038  0.00  0.00    +0.136 A 
ATOM     18  C   UNL     1       2.184   0.025  -0.231  0.00  0.00    +0.073 A 
ATOM     19  C   UNL     1       1.078  -0.475   0.459  0.00  0.00    +0.036 A 
ATOM     20  C   UNL     1      -0.146   0.151   0.342  0.00  0.00    +0.042 A 
ATOM     21 CL   UNL     1      -1.522  -0.470   1.200  0.00  0.00    -0.084 Cl
ATOM     22  F   UNL     1       3.106   1.650  -1.710  0.00  0.00    -0.205 F 
ENDBRANCH   1  18
BRANCH   5  23
ATOM     23  C   UNL     1       2.501  -5.453  -0.184  0.00  0.00    +0.218 C 
ATOM     24  O   UNL     1       2.233  -5.513   0.998  0.00  0.00    -0.275 OA
ATOM     25  N   UNL     1       2.331  -6.536  -0.969  0.00  0.00    -0.315 N 
ATOM     26  H   UNL     1       2.546  -6.488  -1.913  0.00  0.00    +0.149 HD
BRANCH  25  27
ATOM     27  C   UNL     1       1.823  -7.784  -0.395  0.00  0.00    +0.107 C 
BRANCH  27  28
ATOM     28  C   UNL     1       1.725  -8.847  -1.492  0.00  0.00    +0.003 C 
ATOM     29  C   UNL     1       0.671  -8.426  -2.520  0.00  0.00    -0.014 C 
ATOM     30  C   UNL     1       0.522  -9.529  -3.570  0.00  0.00    -0.078 C 
ATOM     31  N   UNL     1       0.102 -10.776  -2.919  0.00  0.00    +0.382 N 
ATOM     32  C   UNL     1       1.141 -11.223  -1.983  0.00  0.00    -0.078 C 
ATOM     33  C   UNL     1       1.314 -10.185  -0.872  0.00  0.00    -0.014 C 
ATOM     34  H   UNL     1      -0.758 -10.617  -2.415  0.00  0.00    -0.081 HD
BRANCH  31  35
ATOM     35  C   UNL     1      -0.115 -11.810  -3.939  0.00  0.00    -0.069 C 
ATOM     36  C   UNL     1      -0.685 -13.097  -3.292  0.00  0.00    -0.015 C 
ATOM     37  C   UNL     1      -1.396 -13.790  -4.481  0.00  0.00    -0.002 C 
ATOM     38  C   UNL     1      -2.025 -12.627  -5.276  0.00  0.00    -0.002 C 
ATOM     39  C   UNL     1      -1.210 -11.368  -4.931  0.00  0.00    -0.015 C 
ENDBRANCH  31  35
ENDBRANCH  27  28
ENDBRANCH  25  27
ENDBRANCH   5  23
TORSDOF 5
