REMARK  Name = ZINC12498282
REMARK  11 active torsions:
REMARK  status: ('A' for Active; 'I' for Inactive)
REMARK    1  A    between atoms: C_1  and  C_2
REMARK    2  A    between atoms: C_2  and  C_4
REMARK    3  A    between atoms: C_8  and  N_10
REMARK    4  A    between atoms: C_15  and  C_32
REMARK    5  A    between atoms: C_17  and  C_22
REMARK    6  A    between atoms: C_17  and  C_28
REMARK    7  A    between atoms: C_28  and  O_30
REMARK    8  A    between atoms: O_30  and  C_31
REMARK    9  A    between atoms: C_35  and  N_38
REMARK   10  A    between atoms: N_38  and  C_39
REMARK   11  A    between atoms: N_38  and  C_40
REMARK                            x       y       z     vdW  Elec       q    Type
REMARK                         _______ _______ _______ _____ _____    ______ ____
ROOT
ATOM      1  N   UNL     1       0.821   1.746   0.244  0.00  0.00    -0.210 N 
ATOM      2  C   UNL     1      -0.344   1.020   0.211  0.00  0.00    +0.229 C 
ATOM      3  O   UNL     1      -0.460  -0.186   0.234  0.00  0.00    -0.275 OA
ATOM      4  C   UNL     1      -1.397   1.997   0.136  0.00  0.00    +0.078 C 
ATOM      5  C   UNL     1      -2.821   2.146  -0.189  0.00  0.00    -0.026 C 
ATOM      6  C   UNL     1      -1.685   4.281  -0.321  0.00  0.00    +0.070 C 
ATOM      7  C   UNL     1      -0.728   3.159  -0.680  0.00  0.00    +0.090 C 
ATOM      8  C   UNL     1       0.631   3.064  -0.063  0.00  0.00    +0.229 C 
ATOM      9  O   UNL     1       1.409   3.975   0.128  0.00  0.00    -0.275 OA
ATOM     10  N   UNL     1      -3.008   3.629  -0.130  0.00  0.00    +0.398 N 
ATOM     11  H   UNL     1      -3.395   3.893   0.784  0.00  0.00    -0.083 HD
ATOM     12  H   UNL     1      -3.651   3.927  -0.873  0.00  0.00    -0.083 HD
ENDROOT
BRANCH   1  17
ATOM     13  C   UNL     1       3.425  -0.699   1.169  0.00  0.00    +0.019 A 
ATOM     14  C   UNL     1       4.558   0.121   1.176  0.00  0.00    +0.011 A 
ATOM     15  C   UNL     1       4.439   1.462   0.876  0.00  0.00    +0.003 A 
ATOM     16  C   UNL     1       3.204   1.999   0.562  0.00  0.00    +0.024 A 
ATOM     17  C   UNL     1       2.071   1.194   0.558  0.00  0.00    +0.045 A 
ATOM     18  C   UNL     1       2.177  -0.154   0.858  0.00  0.00    +0.035 A 
BRANCH  13  20
ATOM     19  C   UNL     1       4.895  -2.715   1.826  0.00  0.00    +0.091 C 
ATOM     20  C   UNL     1       3.547  -2.131   1.490  0.00  0.00    +0.160 C 
ATOM     21  O   UNL     1       2.563  -2.839   1.483  0.00  0.00    -0.292 OA
ENDBRANCH  13  20
ENDBRANCH   1  17
BRANCH   6  22
ATOM     22  C   UNL     1      -1.243   4.955   0.952  0.00  0.00    -0.047 A 
ATOM     23  C   UNL     1      -0.538   4.240   1.903  0.00  0.00    +0.003 A 
ATOM     24  C   UNL     1      -0.128   4.859   3.069  0.00  0.00    +0.000 A 
ATOM     25  C   UNL     1      -0.432   6.190   3.289  0.00  0.00    +0.000 A 
ATOM     26  C   UNL     1      -1.141   6.902   2.341  0.00  0.00    +0.000 A 
ATOM     27  C   UNL     1      -1.546   6.285   1.172  0.00  0.00    +0.003 A 
ENDBRANCH   6  22
BRANCH   5  28
ATOM     28  C   UNL     1      -3.686   1.450   0.830  0.00  0.00    -0.060 A 
ATOM     29  C   UNL     1      -3.864   2.010   2.082  0.00  0.00    +0.004 A 
ATOM     30  C   UNL     1      -4.661   1.378   3.016  0.00  0.00    +0.023 A 
ATOM     31  C   UNL     1      -5.275   0.173   2.701  0.00  0.00    +0.029 A 
ATOM     32  C   UNL     1      -5.090  -0.390   1.445  0.00  0.00    +0.023 A 
ATOM     33  C   UNL     1      -4.296   0.251   0.513  0.00  0.00    +0.004 A 
BRANCH  31  34
ATOM     34  N   UNL     1      -6.077  -0.472   3.646  0.00  0.00    -0.336 N 
ATOM     35  C   UNL     1      -6.626  -1.799   3.357  0.00  0.00    +0.129 C 
ATOM     36  C   UNL     1      -6.370   0.179   4.925  0.00  0.00    +0.129 C 
ENDBRANCH  31  34
ENDBRANCH   5  28
BRANCH   6  37
ATOM     37  C   UNL     1      -1.752   5.285  -1.443  0.00  0.00    +0.301 C 
ATOM     38  O   UNL     1      -0.824   5.399  -2.208  0.00  0.00    -0.252 OA
BRANCH  37  39
ATOM     39  O   UNL     1      -2.843   6.053  -1.592  0.00  0.00    -0.469 OA
ATOM     40  C   UNL     1      -2.838   6.999  -2.694  0.00  0.00    +0.280 C 
ENDBRANCH  37  39
ENDBRANCH   6  37
TORSDOF 7
