REMARK  Name = ZINC04014874
REMARK  13 active torsions:
REMARK  status: ('A' for Active; 'I' for Inactive)
REMARK    1  A    between atoms: C_1  and  C_2
REMARK    2  A    between atoms: C_2  and  C_3
REMARK    3  A    between atoms: C_13  and  O_41
REMARK    4  A    between atoms: C_17  and  C_40
REMARK    5  A    between atoms: C_22  and  C_39
REMARK    6  A    between atoms: C_25  and  C_38
REMARK    7  A    between atoms: C_26  and  C_28
REMARK    8  A    between atoms: C_28  and  C_29
REMARK    9  A    between atoms: C_29  and  C_30
REMARK   10  A    between atoms: C_30  and  C_32
REMARK   11  A    between atoms: C_30  and  C_33
REMARK   12  A    between atoms: C_33  and  N_34
REMARK   13  A    between atoms: C_35  and  C_37
REMARK                            x       y       z     vdW  Elec       q    Type
REMARK                         _______ _______ _______ _____ _____    ______ ____
ROOT
ATOM      1  C   UNL     1      -1.507   0.860   3.453  0.00  0.00    +0.117 C 
ATOM      2  C   UNL     1      -2.612   1.622   2.654  0.00  0.00    +0.053 C 
ATOM      3  C   UNL     1      -2.180   1.303   1.218  0.00  0.00    +0.003 C 
ATOM      4  C   UNL     1      -2.809   2.082   0.094  0.00  0.00    +0.000 C 
ATOM      5  C   UNL     1      -4.332   1.961   0.092  0.00  0.00    +0.031 C 
ATOM      6  C   UNL     1      -4.738   0.548  -0.195  0.00  0.00    -0.027 C 
ATOM      7  C   UNL     1      -4.016  -0.250  -0.926  0.00  0.00    -0.065 C 
ATOM      8  C   UNL     1      -4.540  -1.657  -1.164  0.00  0.00    +0.062 C 
ATOM      9  C   UNL     1      -3.440  -2.646  -0.765  0.00  0.00    +0.119 C 
ATOM     10  C   UNL     1      -2.159  -2.329  -1.535  0.00  0.00    +0.032 C 
ATOM     11  C   UNL     1      -1.661  -0.925  -1.194  0.00  0.00    +0.014 C 
ATOM     12  C   UNL     1      -2.706   0.131  -1.548  0.00  0.00    -0.008 C 
ATOM     13  C   UNL     1      -2.233   1.531  -1.214  0.00  0.00    +0.003 C 
ATOM     14  C   UNL     1      -0.712   1.628  -1.239  0.00  0.00    +0.005 C 
ATOM     15  C   UNL     1      -0.013   1.085   0.008  0.00  0.00    +0.008 C 
ATOM     16  C   UNL     1      -0.666   1.597   1.262  0.00  0.00    -0.019 C 
ATOM     17  C   UNL     1      -0.207   1.060   2.607  0.00  0.00    +0.068 C 
ATOM     18  C   UNL     1       0.339  -0.344   2.529  0.00  0.00    -0.028 C 
ATOM     19  C   UNL     1      -0.612  -1.167   2.915  0.00  0.00    +0.098 C 
ATOM     20  O   UNL     1      -1.756  -0.548   3.271  0.00  0.00    -0.489 OA
ATOM     21  C   UNL     1       1.731  -0.747   2.113  0.00  0.00    +0.043 C 
ATOM     22  C   UNL     1      -0.431   3.110   1.325  0.00  0.00    +0.012 C 
ATOM     23  C   UNL     1      -2.905   0.096  -3.071  0.00  0.00    +0.016 C 
ENDROOT
BRANCH   1  25
ATOM     24  C   UNL     1      -2.712   1.046   5.631  0.00  0.00    +0.008 C 
ATOM     25  C   UNL     1      -1.383   1.290   4.913  0.00  0.00    +0.045 C 
ENDBRANCH   1  25
BRANCH   9  26
ATOM     26  O   UNL     1      -3.195  -2.548   0.639  0.00  0.00    -0.391 OA
ATOM     27  H   UNL     1      -3.969  -2.737   1.187  0.00  0.00    +0.210 HD
ENDBRANCH   9  26
BRANCH  19  28
ATOM     28  C   UNL     1      -0.435  -2.663   2.956  0.00  0.00    +0.074 C 
BRANCH  28  29
ATOM     29  C   UNL     1      -0.023  -3.088   4.367  0.00  0.00    +0.012 C 
BRANCH  29  30
ATOM     30  C   UNL     1       0.156  -4.607   4.409  0.00  0.00    +0.003 C 
ATOM     31  C   UNL     1       1.326  -5.008   3.508  0.00  0.00    +0.009 C 
BRANCH  30  32
ATOM     32  C   UNL     1       0.446  -5.047   5.846  0.00  0.00    +0.107 C 
BRANCH  32  33
ATOM     33  N   UNL     1       0.499  -6.510   5.907  0.00  0.00    -0.315 N 
ATOM     34  C   UNL     1       0.743  -7.126   7.081  0.00  0.00    +0.210 C 
ATOM     35  O   UNL     1       0.918  -6.470   8.086  0.00  0.00    -0.276 OA
ATOM     36  C   UNL     1       0.798  -8.631   7.144  0.00  0.00    +0.109 C 
ATOM     37  H   UNL     1       0.359  -7.035   5.104  0.00  0.00    +0.149 HD
ENDBRANCH  32  33
ENDBRANCH  30  32
ENDBRANCH  29  30
ENDBRANCH  28  29
ENDBRANCH  19  28
TORSDOF 7
