REMARK  Name = ZINC12608781
REMARK  17 active torsions:
REMARK  status: ('A' for Active; 'I' for Inactive)
REMARK    1  A    between atoms: C_1  and  C_2
REMARK    2  A    between atoms: C_2  and  C_4
REMARK    3  A    between atoms: C_2  and  S_16
REMARK    4  A    between atoms: N_6  and  C_7
REMARK    5  A    between atoms: C_10  and  N_13
REMARK    6  A    between atoms: N_13  and  C_14
REMARK    7  A    between atoms: N_13  and  C_15
REMARK    8  A    between atoms: S_16  and  C_17
REMARK    9  A    between atoms: N_27  and  C_28
REMARK   10  A    between atoms: C_28  and  C_29
REMARK   11  A    between atoms: C_29  and  N_30
REMARK   12  A    between atoms: N_30  and  C_31
REMARK   13  A    between atoms: N_30  and  C_34
REMARK   14  A    between atoms: C_31  and  C_32
REMARK   15  A    between atoms: C_31  and  C_33
REMARK   16  A    between atoms: C_34  and  C_35
REMARK   17  A    between atoms: C_34  and  C_36
REMARK                            x       y       z     vdW  Elec       q    Type
REMARK                         _______ _______ _______ _____ _____    ______ ____
ROOT
ATOM      1  C   UNL     1      -0.577  -0.765   4.738  0.00  0.00    +0.173 A 
ATOM      2  N   UNL     1      -1.806  -0.328   4.862  0.00  0.00    -0.223 NA
ATOM      3  C   UNL     1      -2.291   0.089   6.049  0.00  0.00    +0.079 A 
ATOM      4  C   UNL     1      -3.602   0.556   6.182  0.00  0.00    +0.028 A 
ATOM      5  C   UNL     1      -4.052   0.969   7.404  0.00  0.00    +0.002 A 
ATOM      6  C   UNL     1      -3.226   0.933   8.520  0.00  0.00    +0.001 A 
ATOM      7  C   UNL     1      -1.938   0.482   8.422  0.00  0.00    +0.015 A 
ATOM      8  C   UNL     1      -1.453   0.054   7.187  0.00  0.00    +0.065 A 
ATOM      9  C   UNL     1      -0.079  -0.440   7.022  0.00  0.00    +0.262 A 
ATOM     10  O   UNL     1       0.690  -0.495   7.964  0.00  0.00    -0.267 OA
ATOM     11  N   UNL     1       0.298  -0.838   5.785  0.00  0.00    -0.289 N 
ENDROOT
BRANCH   1  12
ATOM     12  S   UNL     1      -0.029  -1.290   3.148  0.00  0.00    -0.075 S 
BRANCH  12  14
ATOM     13  C   UNL     1      -1.781   0.467   1.997  0.00  0.00    +0.029 C 
ATOM     14  C   UNL     1      -1.471  -1.029   2.079  0.00  0.00    +0.137 C 
BRANCH  14  15
ATOM     15  C   UNL     1      -1.175  -1.557   0.699  0.00  0.00    +0.230 C 
ATOM     16  O   UNL     1      -0.026  -1.721   0.345  0.00  0.00    -0.274 OA
ATOM     17  N   UNL     1      -2.187  -1.848  -0.143  0.00  0.00    -0.285 N 
ATOM     18  H   UNL     1      -3.106  -1.775   0.160  0.00  0.00    +0.155 HD
BRANCH  17  19
ATOM     19  C   UNL     1      -1.912  -2.255  -1.456  0.00  0.00    +0.034 A 
ATOM     20  C   UNL     1      -2.749  -1.866  -2.493  0.00  0.00    +0.025 A 
ATOM     21  C   UNL     1      -2.478  -2.267  -3.786  0.00  0.00    +0.025 A 
ATOM     22  C   UNL     1      -1.368  -3.059  -4.049  0.00  0.00    +0.029 A 
ATOM     23  C   UNL     1      -0.531  -3.448  -3.011  0.00  0.00    +0.025 A 
ATOM     24  C   UNL     1      -0.799  -3.043  -1.719  0.00  0.00    +0.025 A 
BRANCH  22  25
ATOM     25  N   UNL     1      -1.093  -3.466  -5.359  0.00  0.00    -0.336 N 
ATOM     26  C   UNL     1      -1.976  -3.055  -6.454  0.00  0.00    +0.129 C 
ATOM     27  C   UNL     1       0.078  -4.301  -5.636  0.00  0.00    +0.129 C 
ENDBRANCH  22  25
ENDBRANCH  17  19
ENDBRANCH  14  15
ENDBRANCH  12  14
ENDBRANCH   1  12
BRANCH  11  28
ATOM     28  C   UNL     1       1.654  -1.345   5.565  0.00  0.00    +0.109 C 
BRANCH  28  29
ATOM     29  C   UNL     1       2.581  -0.183   5.202  0.00  0.00    -0.056 C 
BRANCH  29  30
ATOM     30  N   UNL     1       3.927  -0.699   4.922  0.00  0.00    +0.384 N 
ATOM     31  H   UNL     1       4.244  -1.255   5.702  0.00  0.00    -0.081 HD
BRANCH  30  32
ATOM     32  C   UNL     1       3.890  -1.531   3.711  0.00  0.00    -0.074 C 
ATOM     33  C   UNL     1       4.032  -0.640   2.476  0.00  0.00    -0.014 C 
ATOM     34  C   UNL     1       5.041  -2.538   3.749  0.00  0.00    -0.014 C 
ENDBRANCH  30  32
BRANCH  30  35
ATOM     35  C   UNL     1       4.850   0.425   4.715  0.00  0.00    -0.074 C 
ATOM     36  C   UNL     1       4.761   1.383   5.905  0.00  0.00    -0.014 C 
ATOM     37  C   UNL     1       6.280  -0.104   4.592  0.00  0.00    -0.014 C 
ENDBRANCH  30  35
ENDBRANCH  29  30
ENDBRANCH  28  29
ENDBRANCH  11  28
TORSDOF 10
