REMARK  Name = ZINC01440819
REMARK  8 active torsions:
REMARK  status: ('A' for Active; 'I' for Inactive)
REMARK    1  A    between atoms: C_5  and  C_7
REMARK    2  A    between atoms: C_7  and  O_8
REMARK    3  A    between atoms: O_8  and  C_9
REMARK    4  A    between atoms: C_14  and  C_15
REMARK    5  A    between atoms: C_22  and  C_24
REMARK    6  A    between atoms: C_24  and  O_25
REMARK    7  A    between atoms: C_27  and  N_31
REMARK    8  A    between atoms: C_28  and  C_29
REMARK                            x       y       z     vdW  Elec       q    Type
REMARK                         _______ _______ _______ _____ _____    ______ ____
ROOT
ATOM      1  C   UNL     1       2.456   3.933  -0.001  0.00  0.00    +0.138 C 
ATOM      2  C   UNL     1       3.256   3.576   1.227  0.00  0.00    +0.164 A 
ATOM      3  C   UNL     1       4.304   2.732   1.135  0.00  0.00    +0.215 A 
ATOM      4  C   UNL     1       5.042   2.412   2.311  0.00  0.00    +0.228 A 
ATOM      5  O   UNL     1       5.997   1.651   2.269  0.00  0.00    -0.284 OA
ATOM      6  C   UNL     1       4.631   3.005   3.531  0.00  0.00    +0.098 A 
ATOM      7  C   UNL     1       3.571   3.836   3.519  0.00  0.00    +0.134 A 
ATOM      8  O   UNL     1       2.901   4.115   2.404  0.00  0.00    -0.457 OA
ATOM      9  O   UNL     1       4.674   2.179  -0.046  0.00  0.00    -0.434 OA
ATOM     10  C   UNL     1       4.282   2.744  -1.202  0.00  0.00    +0.199 C 
ATOM     11  C   UNL     1       3.228   3.591  -1.243  0.00  0.00    +0.101 C 
ENDROOT
BRANCH   1  17
ATOM     12  C   UNL     1      -0.050   3.842   0.023  0.00  0.00    +0.125 A 
ATOM     13  C   UNL     1      -1.242   3.131   0.031  0.00  0.00    +0.046 A 
ATOM     14  C   UNL     1      -1.220   1.750   0.017  0.00  0.00    +0.004 A 
ATOM     15  C   UNL     1      -0.013   1.076   0.008  0.00  0.00    +0.001 A 
ATOM     16  C   UNL     1       1.176   1.782   0.000  0.00  0.00    +0.008 A 
ATOM     17  C   UNL     1       1.160   3.164   0.008  0.00  0.00    +0.010 A 
BRANCH  12  18
ATOM     18  O   UNL     1      -0.069   5.201   0.031  0.00  0.00    -0.487 OA
BRANCH  18  19
ATOM     19  C   UNL     1      -1.350   5.832   0.047  0.00  0.00    +0.266 C 
BRANCH  19  24
ATOM     20  C   UNL     1       0.259   9.247   0.052  0.00  0.00    +0.000 A 
ATOM     21  C   UNL     1      -0.848  10.075   0.066  0.00  0.00    +0.001 A 
ATOM     22  C   UNL     1      -2.118   9.530   0.075  0.00  0.00    +0.020 A 
ATOM     23  C   UNL     1      -2.281   8.156   0.063  0.00  0.00    +0.047 A 
ATOM     24  C   UNL     1      -1.173   7.329   0.054  0.00  0.00    +0.008 A 
ATOM     25  C   UNL     1       0.097   7.875   0.045  0.00  0.00    +0.008 A 
ATOM     26 CL   UNL     1      -3.877   7.472   0.066  0.00  0.00    -0.083 Cl
ENDBRANCH  19  24
ENDBRANCH  18  19
ENDBRANCH  12  18
ENDBRANCH   1  17
BRANCH  10  27
ATOM     27  N   UNL     1       4.962   2.453  -2.359  0.00  0.00    -0.328 N 
ATOM     28  H   UNL     1       5.718   1.846  -2.337  0.00  0.00    +0.145 HD
ATOM     29  H   UNL     1       4.686   2.856  -3.197  0.00  0.00    +0.145 HD
ENDBRANCH  10  27
BRANCH  11  30
ATOM     30  C   UNL     1       2.844   4.170  -2.495  0.00  0.00    +0.101 C 
ATOM     31  N   UNL     1       2.539   4.629  -3.488  0.00  0.00    -0.191 NA
ENDBRANCH  11  30
BRANCH   7  32
ATOM     32  C   UNL     1       3.128   4.470   4.812  0.00  0.00    +0.230 C 
BRANCH  32  33
ATOM     33  O   UNL     1       3.810   5.714   4.991  0.00  0.00    -0.387 OA
ATOM     34  H   UNL     1       3.573   6.178   5.805  0.00  0.00    +0.210 HD
ENDBRANCH  32  33
ENDBRANCH   7  32
TORSDOF 8
