REMARK  Name = ZINC45288359
REMARK  7 active torsions:
REMARK  status: ('A' for Active; 'I' for Inactive)
REMARK    1  A    between atoms: C_4  and  C_7
REMARK    2  A    between atoms: C_16  and  O_34
REMARK    3  A    between atoms: C_17  and  C_18
REMARK    4  A    between atoms: C_20  and  C_27
REMARK    5  A    between atoms: C_21  and  C_25
REMARK    6  A    between atoms: C_22  and  N_23
REMARK    7  A    between atoms: C_32  and  O_33
REMARK                            x       y       z     vdW  Elec       q    Type
REMARK                         _______ _______ _______ _____ _____    ______ ____
ROOT
ATOM      1  C   UNL     1       3.844  -0.417  -0.206  0.00  0.00    -0.000 A 
ATOM      2  C   UNL     1       4.788  -0.210   0.782  0.00  0.00    +0.101 A 
ATOM      3  C   UNL     1       6.003  -0.915   0.736  0.00  0.00    +0.338 A 
ATOM      4  O   UNL     1       6.831  -0.727   1.610  0.00  0.00    -0.245 OA
ATOM      5  O   UNL     1       6.277  -1.789  -0.245  0.00  0.00    -0.421 OA
ATOM      6  C   UNL     1       5.402  -2.041  -1.241  0.00  0.00    +0.152 A 
ATOM      7  C   UNL     1       4.161  -1.385  -1.270  0.00  0.00    +0.026 A 
ATOM      8  C   UNL     1       3.250  -1.646  -2.297  0.00  0.00    +0.016 A 
ATOM      9  C   UNL     1       3.566  -2.554  -3.282  0.00  0.00    +0.047 A 
ATOM     10  C   UNL     1       4.789  -3.216  -3.264  0.00  0.00    +0.130 A 
ATOM     11  C   UNL     1       5.717  -2.958  -2.250  0.00  0.00    +0.085 A 
ENDROOT
BRANCH   1  15
ATOM     12  C   UNL     1       0.137   1.659  -0.166  0.00  0.00    +0.000 A 
ATOM     13  C   UNL     1       1.317   2.360  -0.341  0.00  0.00    +0.001 A 
ATOM     14  C   UNL     1       2.524   1.692  -0.355  0.00  0.00    +0.008 A 
ATOM     15  C   UNL     1       2.553   0.306  -0.191  0.00  0.00    -0.017 A 
ATOM     16  C   UNL     1       1.359  -0.395  -0.015  0.00  0.00    +0.008 A 
ATOM     17  C   UNL     1       0.159   0.285  -0.003  0.00  0.00    +0.001 A 
ENDBRANCH   1  15
BRANCH  11  18
ATOM     18  C   UNL     1       7.017  -3.664  -2.234  0.00  0.00    +0.081 A 
ATOM     19  C   UNL     1       7.452  -4.271  -1.058  0.00  0.00    +0.038 A 
ATOM     20  C   UNL     1       8.676  -4.935  -1.047  0.00  0.00    +0.008 A 
ATOM     21  C   UNL     1       9.431  -4.964  -2.241  0.00  0.00    +0.099 A 
ATOM     22  C   UNL     1       8.918  -4.326  -3.384  0.00  0.00    +0.135 A 
ATOM     23  N   UNL     1       7.747  -3.713  -3.343  0.00  0.00    -0.231 NA
BRANCH  20  24
ATOM     24  C   UNL     1       9.174  -5.593   0.182  0.00  0.00    +0.025 A 
ATOM     25  C   UNL     1       8.493  -6.686   0.717  0.00  0.00    +0.012 A 
ATOM     26  C   UNL     1       8.961  -7.295   1.863  0.00  0.00    +0.001 A 
ATOM     27  C   UNL     1      10.104  -6.824   2.486  0.00  0.00    +0.004 A 
ATOM     28  C   UNL     1      10.787  -5.742   1.966  0.00  0.00    +0.046 A 
ATOM     29  C   UNL     1      10.332  -5.123   0.811  0.00  0.00    +0.125 A 
BRANCH  29  30
ATOM     30  O   UNL     1      11.006  -4.063   0.296  0.00  0.00    -0.506 OA
ATOM     31  H   UNL     1      10.713  -3.207   0.637  0.00  0.00    +0.292 HD
ENDBRANCH  29  30
ENDBRANCH  20  24
BRANCH  22  32
ATOM     32  N   UNL     1       9.643  -4.343  -4.563  0.00  0.00    -0.342 N 
ATOM     33  H   UNL     1      10.501  -4.794  -4.598  0.00  0.00    +0.144 HD
ATOM     34  H   UNL     1       9.293  -3.904  -5.354  0.00  0.00    +0.144 HD
ENDBRANCH  22  32
BRANCH  21  35
ATOM     35  C   UNL     1      10.697  -5.632  -2.287  0.00  0.00    +0.103 C 
ATOM     36  N   UNL     1      11.701  -6.162  -2.323  0.00  0.00    -0.191 NA
ENDBRANCH  21  35
ENDBRANCH  11  18
BRANCH  10  37
ATOM     37  O   UNL     1       5.088  -4.109  -4.240  0.00  0.00    -0.506 OA
ATOM     38  H   UNL     1       5.532  -3.720  -5.006  0.00  0.00    +0.292 HD
ENDBRANCH  10  37
TORSDOF 7
