REMARK  Name = ZINC19132764
REMARK  12 active torsions:
REMARK  status: ('A' for Active; 'I' for Inactive)
REMARK    1  A    between atoms: C_1  and  C_2
REMARK    2  A    between atoms: C_5  and  O_9
REMARK    3  A    between atoms: C_6  and  C_8
REMARK    4  A    between atoms: O_9  and  C_10
REMARK    5  A    between atoms: C_10  and  C_11
REMARK    6  A    between atoms: C_11  and  C_13
REMARK    7  A    between atoms: C_11  and  O_32
REMARK    8  A    between atoms: C_13  and  N_61
REMARK    9  A    between atoms: C_14  and  N_61
REMARK   10  A    between atoms: C_15  and  C_16
REMARK   11  A    between atoms: C_15  and  N_61
REMARK   12  A    between atoms: C_25  and  C_26
REMARK                            x       y       z     vdW  Elec       q    Type
REMARK                         _______ _______ _______ _____ _____    ______ ____
ROOT
ATOM      1  C   UNL     1       1.320  -0.707  -1.383  0.00  0.00    -0.096 C 
ATOM      2  N   UNL     1       1.782  -0.987  -2.759  0.00  0.00    +0.382 N 
ATOM      3  H   UNL     1       1.869  -2.003  -2.881  0.00  0.00    -0.082 HD
ENDROOT
BRANCH   2   4
ATOM      4  C   UNL     1       3.102  -0.361  -2.985  0.00  0.00    -0.044 C 
BRANCH   4   5
ATOM      5  C   UNL     1       4.163  -1.165  -2.231  0.00  0.00    +0.135 C 
BRANCH   5   6
ATOM      6  O   UNL     1       3.942  -1.044  -0.825  0.00  0.00    -0.390 OA
ATOM      7  H   UNL     1       3.986  -0.136  -0.497  0.00  0.00    +0.210 HD
ENDBRANCH   5   6
BRANCH   5   8
ATOM      8  C   UNL     1       5.552  -0.627  -2.578  0.00  0.00    +0.258 C 
BRANCH   8   9
ATOM      9  O   UNL     1       6.548  -1.450  -1.967  0.00  0.00    -0.489 OA
BRANCH   9  14
ATOM     10  C   UNL     1      11.928  -0.027  -2.837  0.00  0.00    +0.044 C 
ATOM     11  C   UNL     1      10.488  -0.407  -2.604  0.00  0.00    -0.050 A 
ATOM     12  C   UNL     1       9.475   0.346  -3.167  0.00  0.00    +0.007 A 
ATOM     13  C   UNL     1       8.155  -0.004  -2.960  0.00  0.00    +0.046 A 
ATOM     14  C   UNL     1       7.846  -1.106  -2.177  0.00  0.00    +0.124 A 
ATOM     15  C   UNL     1       8.864  -1.861  -1.613  0.00  0.00    -0.009 A 
ATOM     16  C   UNL     1      10.183  -1.510  -1.828  0.00  0.00    +0.010 A 
ATOM     17  C   UNL     1       8.532  -3.063  -0.767  0.00  0.00    +0.047 C 
ENDBRANCH   9  14
ENDBRANCH   8   9
ENDBRANCH   5   8
ENDBRANCH   4   5
ENDBRANCH   2   4
BRANCH   2  18
ATOM     18  C   UNL     1       0.802  -0.468  -3.736  0.00  0.00    -0.041 C 
BRANCH  18  19
ATOM     19  C   UNL     1      -0.409  -1.364  -3.730  0.00  0.00    -0.032 A 
ATOM     20  C   UNL     1      -1.655  -1.142  -2.995  0.00  0.00    +0.020 A 
ATOM     21  C   UNL     1      -2.117  -0.141  -2.136  0.00  0.00    +0.013 A 
ATOM     22  C   UNL     1      -3.389  -0.270  -1.613  0.00  0.00    +0.020 A 
ATOM     23  C   UNL     1      -4.157  -1.375  -1.952  0.00  0.00    +0.113 A 
ATOM     24  N   UNL     1      -3.703  -2.306  -2.763  0.00  0.00    -0.237 NA
ATOM     25  C   UNL     1      -2.490  -2.236  -3.295  0.00  0.00    +0.139 A 
ATOM     26  N   UNL     1      -1.791  -3.049  -4.155  0.00  0.00    -0.341 N 
ATOM     27  H   UNL     1      -2.125  -3.878  -4.531  0.00  0.00    +0.167 HD
ATOM     28  C   UNL     1      -0.552  -2.519  -4.399  0.00  0.00    +0.049 A 
BRANCH  28  29
ATOM     29  C   UNL     1       0.492  -3.137  -5.292  0.00  0.00    +0.165 C 
ATOM     30  C   UNL     1       0.385  -2.547  -6.711  0.00  0.00    +0.040 C 
ATOM     31  C   UNL     1       0.138  -3.776  -7.619  0.00  0.00    +0.031 C 
ATOM     32  C   UNL     1       0.661  -4.940  -6.736  0.00  0.00    +0.161 C 
ATOM     33  O   UNL     1       0.271  -4.554  -5.400  0.00  0.00    -0.371 OA
ENDBRANCH  28  29
ENDBRANCH  18  19
ENDBRANCH   2  18
TORSDOF 9
