REMARK  Name = ZINC39545501
REMARK  3 active torsions:
REMARK  status: ('A' for Active; 'I' for Inactive)
REMARK    1  A    between atoms: C_9  and  C_16
REMARK    2  A    between atoms: N_18  and  C_19
REMARK    3  A    between atoms: C_24  and  O_25
REMARK                            x       y       z     vdW  Elec       q    Type
REMARK                         _______ _______ _______ _____ _____    ______ ____
ROOT
ATOM      1  C   UNL     1      -0.017   1.377   0.010  0.00  0.00    +0.000 A 
ATOM      2  C   UNL     1       1.167   2.092   0.002  0.00  0.00    +0.002 A 
ATOM      3  C   UNL     1       2.375   1.422  -0.008  0.00  0.00    +0.023 A 
ATOM      4  C   UNL     1       2.394   0.034  -0.014  0.00  0.00    +0.037 A 
ATOM      5  C   UNL     1       1.208  -0.686  -0.015  0.00  0.00    -0.010 A 
ATOM      6  C   UNL     1       0.002  -0.004   0.002  0.00  0.00    +0.007 A 
ATOM      7  C   UNL     1       1.195  -2.192  -0.048  0.00  0.00    +0.124 C 
ATOM      8  N   UNL     1       2.458  -2.740   0.459  0.00  0.00    -0.369 NA
ATOM      9  C   UNL     1       2.567  -4.167   0.117  0.00  0.00    +0.152 C 
ATOM     10  C   UNL     1       3.856  -4.253  -0.723  0.00  0.00    +0.081 C 
ATOM     11  C   UNL     1       4.342  -2.823  -0.800  0.00  0.00    +0.055 C 
ATOM     12  C   UNL     1       3.522  -2.048  -0.137  0.00  0.00    +0.090 C 
ATOM     13  N   UNL     1       3.622  -0.648  -0.013  0.00  0.00    -0.303 N 
ATOM     14 CL   UNL     1       5.766  -2.292  -1.638  0.00  0.00    -0.085 Cl
ATOM     15  H   UNL     1       4.473  -0.191   0.067  0.00  0.00    +0.153 HD
ATOM     16  H   UNL     1       2.500  -2.629   1.461  0.00  0.00    +0.129 HD
ENDROOT
BRANCH   9  17
ATOM     17  C   UNL     1       2.691  -5.001   1.366  0.00  0.00    +0.265 C 
ATOM     18  O   UNL     1       2.690  -4.467   2.455  0.00  0.00    -0.271 OA
ATOM     19  N   UNL     1       2.803  -6.341   1.272  0.00  0.00    -0.110 N 
ATOM     20  O   UNL     1       2.805  -6.965   0.001  0.00  0.00    -0.088 OA
BRANCH  19  21
ATOM     21  C   UNL     1       2.918  -7.117   2.433  0.00  0.00    +0.109 A 
ATOM     22  C   UNL     1       1.780  -7.524   3.114  0.00  0.00    +0.029 A 
ATOM     23  C   UNL     1       1.896  -8.289   4.259  0.00  0.00    +0.002 A 
ATOM     24  C   UNL     1       3.145  -8.652   4.729  0.00  0.00    +0.004 A 
ATOM     25  C   UNL     1       4.284  -8.250   4.056  0.00  0.00    +0.047 A 
ATOM     26  C   UNL     1       4.176  -7.487   2.904  0.00  0.00    +0.141 A 
BRANCH  26  27
ATOM     27  O   UNL     1       5.295  -7.097   2.238  0.00  0.00    -0.505 OA
ATOM     28  H   UNL     1       5.653  -6.248   2.533  0.00  0.00    +0.292 HD
ENDBRANCH  26  27
ENDBRANCH  19  21
ENDBRANCH   9  17
TORSDOF 3
