REMARK  Name = ZINC22279888
REMARK  9 active torsions:
REMARK  status: ('A' for Active; 'I' for Inactive)
REMARK    1  A    between atoms: C_1  and  C_2
REMARK    2  A    between atoms: C_3  and  C_32
REMARK    3  A    between atoms: N_4  and  C_26
REMARK    4  A    between atoms: C_5  and  N_9
REMARK    5  A    between atoms: C_6  and  C_7
REMARK    6  A    between atoms: C_10  and  C_12
REMARK    7  A    between atoms: C_12  and  S_13
REMARK    8  A    between atoms: S_13  and  C_14
REMARK    9  A    between atoms: C_17  and  C_20
REMARK                            x       y       z     vdW  Elec       q    Type
REMARK                         _______ _______ _______ _____ _____    ______ ____
ROOT
ATOM      1  N   UNL     1      -7.490  -4.540   0.166  0.00  0.00    -0.270 N 
ATOM      2  C   UNL     1      -6.720  -4.141  -0.866  0.00  0.00    +0.229 C 
ATOM      3  O   UNL     1      -6.698  -4.787  -1.892  0.00  0.00    -0.275 OA
ATOM      4  H   UNL     1      -7.446  -4.004   1.125  0.00  0.00    +0.156 HD
ENDROOT
BRANCH   1   9
ATOM      5  C   UNL     1     -11.591  -7.445  -0.373  0.00  0.00    +0.047 C 
ATOM      6  C   UNL     1     -10.169  -6.968  -0.226  0.00  0.00    -0.010 A 
ATOM      7  C   UNL     1      -9.066  -7.734  -0.196  0.00  0.00    +0.027 A 
ATOM      8  N   UNL     1      -7.963  -6.933  -0.050  0.00  0.00    -0.300 N 
ATOM      9  C   UNL     1      -8.338  -5.628   0.018  0.00  0.00    +0.128 A 
ATOM     10  C   UNL     1      -9.722  -5.577  -0.082  0.00  0.00    +0.095 A 
ATOM     11  C   UNL     1      -9.045  -9.237  -0.306  0.00  0.00    +0.064 C 
BRANCH   8  12
ATOM     12  C   UNL     1      -6.641  -7.393   0.020  0.00  0.00    +0.048 A 
ATOM     13  C   UNL     1      -6.049  -7.982  -1.089  0.00  0.00    +0.026 A 
ATOM     14  C   UNL     1      -4.744  -8.430  -1.018  0.00  0.00    +0.002 A 
ATOM     15  C   UNL     1      -4.031  -8.303   0.159  0.00  0.00    +0.000 A 
ATOM     16  C   UNL     1      -4.619  -7.721   1.268  0.00  0.00    +0.002 A 
ATOM     17  C   UNL     1      -5.922  -7.267   1.201  0.00  0.00    +0.026 A 
ENDBRANCH   8  12
BRANCH  10  18
ATOM     18  C   UNL     1     -10.545  -4.406  -0.052  0.00  0.00    +0.103 C 
ATOM     19  N   UNL     1     -11.199  -3.477  -0.029  0.00  0.00    -0.191 NA
ENDBRANCH  10  18
ENDBRANCH   1   9
BRANCH   2  20
ATOM     20  C   UNL     1      -5.886  -2.892  -0.744  0.00  0.00    +0.173 C 
BRANCH  20  21
ATOM     21  S   UNL     1      -4.972  -2.624  -2.283  0.00  0.00    -0.077 S 
BRANCH  21  22
ATOM     22  C   UNL     1      -4.109  -1.144  -1.873  0.00  0.00    +0.185 A 
ATOM     23  N   UNL     1      -3.247  -0.459  -2.681  0.00  0.00    -0.201 NA
ATOM     24  H   UNL     1      -4.757  -0.715   0.174  0.00  0.00    +0.191 HD
ATOM     25  C   UNL     1      -2.820   0.618  -1.939  0.00  0.00    +0.182 A 
ATOM     26  N   UNL     1      -3.414   0.542  -0.771  0.00  0.00    -0.152 NA
ATOM     27  N   UNL     1      -4.175  -0.493  -0.733  0.00  0.00    -0.253 N 
BRANCH  25  28
ATOM     28  C   UNL     1      -1.870   1.664  -2.374  0.00  0.00    +0.021 A 
ATOM     29  C   UNL     1      -1.532   2.708  -1.511  0.00  0.00    +0.011 A 
ATOM     30  C   UNL     1      -0.645   3.681  -1.924  0.00  0.00    +0.001 A 
ATOM     31  C   UNL     1      -0.091   3.623  -3.190  0.00  0.00    +0.000 A 
ATOM     32  C   UNL     1      -0.421   2.591  -4.051  0.00  0.00    +0.001 A 
ATOM     33  C   UNL     1      -1.307   1.612  -3.650  0.00  0.00    +0.011 A 
ENDBRANCH  25  28
ENDBRANCH  21  22
ENDBRANCH  20  21
ENDBRANCH   2  20
TORSDOF 7
