REMARK  Name = ZINC63503281
REMARK  8 active torsions:
REMARK  status: ('A' for Active; 'I' for Inactive)
REMARK    1  A    between atoms: C_4  and  C_7
REMARK    2  A    between atoms: C_7  and  O_8
REMARK    3  A    between atoms: O_8  and  C_9
REMARK    4  A    between atoms: N_11  and  C_12
REMARK    5  A    between atoms: C_12  and  C_14
REMARK    6  A    between atoms: C_12  and  C_24
REMARK    7  A    between atoms: C_14  and  C_15
REMARK    8  A    between atoms: N_26  and  C_27
REMARK                            x       y       z     vdW  Elec       q    Type
REMARK                         _______ _______ _______ _____ _____    ______ ____
ROOT
ATOM      1  C   UNL     1       6.935  -2.559   2.784  0.00  0.00    +0.166 C 
ENDROOT
BRANCH   1   4
ATOM      2  C   UNL     1       5.253  -1.862   1.165  0.00  0.00    +0.401 C 
ATOM      3  O   UNL     1       5.983  -2.261   0.279  0.00  0.00    -0.226 OA
ATOM      4  N   UNL     1       5.638  -1.965   2.452  0.00  0.00    -0.270 N 
ATOM      5  H   UNL     1       5.055  -1.646   3.159  0.00  0.00    +0.153 HD
BRANCH   2   6
ATOM      6  O   UNL     1       4.061  -1.316   0.860  0.00  0.00    -0.446 OA
BRANCH   6   7
ATOM      7  C   UNL     1       3.719  -1.238  -0.526  0.00  0.00    +0.269 C 
BRANCH   7  11
ATOM      8  C   UNL     1      -0.134   0.560  -0.943  0.00  0.00    +0.000 A 
ATOM      9  C   UNL     1       1.001   1.350  -0.941  0.00  0.00    +0.000 A 
ATOM     10  C   UNL     1       2.248   0.768  -0.805  0.00  0.00    +0.007 A 
ATOM     11  C   UNL     1       2.360  -0.604  -0.672  0.00  0.00    -0.010 A 
ATOM     12  C   UNL     1       1.225  -1.393  -0.674  0.00  0.00    +0.007 A 
ATOM     13  C   UNL     1      -0.022  -0.811  -0.811  0.00  0.00    +0.000 A 
ENDBRANCH   7  11
ENDBRANCH   6   7
ENDBRANCH   2   6
ENDBRANCH   1   4
BRANCH   1  14
ATOM     14  C   UNL     1       7.441  -1.970   4.076  0.00  0.00    +0.234 C 
ATOM     15  O   UNL     1       6.784  -1.136   4.661  0.00  0.00    -0.274 OA
ATOM     16  N   UNL     1       8.626  -2.369   4.580  0.00  0.00    -0.311 N 
ATOM     17  H   UNL     1       9.152  -3.037   4.112  0.00  0.00    +0.149 HD
BRANCH  16  18
ATOM     18  C   UNL     1       9.118  -1.797   5.835  0.00  0.00    +0.073 C 
ATOM     19  C   UNL     1       9.790  -0.441   5.536  0.00  0.00    +0.022 C 
ATOM     20  C   UNL     1       9.830   0.363   6.807  0.00  0.00    +0.002 C 
ATOM     21  C   UNL     1      11.159   0.197   7.568  0.00  0.00    +0.000 C 
ATOM     22  C   UNL     1      11.659  -1.260   7.586  0.00  0.00    +0.000 C 
ATOM     23  C   UNL     1      10.549  -2.248   7.825  0.00  0.00    +0.002 C 
ATOM     24  C   UNL     1      10.031  -2.743   6.459  0.00  0.00    +0.022 C 
ENDBRANCH  16  18
ENDBRANCH   1  14
BRANCH   1  25
ATOM     25  C   UNL     1       6.777  -4.072   2.942  0.00  0.00    +0.065 C 
BRANCH  25  26
ATOM     26  C   UNL     1       5.772  -4.363   4.026  0.00  0.00    -0.039 C 
ATOM     27  C   UNL     1       4.450  -4.600   3.867  0.00  0.00    -0.001 A 
ATOM     28  C   UNL     1       3.585  -4.654   2.682  0.00  0.00    +0.010 A 
ATOM     29  C   UNL     1       2.268  -4.918   2.842  0.00  0.00    +0.001 A 
ATOM     30  C   UNL     1       1.710  -5.141   4.109  0.00  0.00    +0.002 A 
ATOM     31  C   UNL     1       2.441  -5.107   5.243  0.00  0.00    +0.026 A 
ATOM     32  C   UNL     1       3.836  -4.838   5.192  0.00  0.00    +0.043 A 
ATOM     33  N   UNL     1       4.744  -4.753   6.135  0.00  0.00    -0.380 N 
ATOM     34  C   UNL     1       6.038  -4.456   5.512  0.00  0.00    +0.144 C 
ATOM     35  H   UNL     1       4.586  -4.870   7.085  0.00  0.00    +0.160 HD
ENDBRANCH  25  26
ENDBRANCH   1  25
TORSDOF 8
