REMARK  Name = ZINC11127921
REMARK  4 active torsions:
REMARK  status: ('A' for Active; 'I' for Inactive)
REMARK    1  A    between atoms: C_1  and  C_2
REMARK    2  A    between atoms: C_15  and  C_17
REMARK    3  A    between atoms: C_17  and  N_18
REMARK    4  A    between atoms: N_18  and  C_19
REMARK                            x       y       z     vdW  Elec       q    Type
REMARK                         _______ _______ _______ _____ _____    ______ ____
ROOT
ATOM      1  C   UNL     1      -7.846   4.568   1.516  0.00  0.00    +0.029 C 
ATOM      2  C   UNL     1      -7.272   4.500   0.099  0.00  0.00    +0.087 C 
ATOM      3  C   UNL     1      -8.355   4.011  -0.870  0.00  0.00    +0.118 C 
ATOM      4  C   UNL     1      -7.731   3.555  -2.163  0.00  0.00    +0.219 C 
ATOM      5  O   UNL     1      -7.808   4.255  -3.150  0.00  0.00    -0.275 OA
ATOM      6  N   UNL     1      -7.083   2.371  -2.229  0.00  0.00    -0.284 N 
ATOM      7  C   UNL     1      -6.902   1.595  -1.079  0.00  0.00    +0.055 A 
ATOM      8  C   UNL     1      -7.188   0.240  -1.083  0.00  0.00    +0.025 A 
ATOM      9  C   UNL     1      -6.948  -0.517   0.049  0.00  0.00    +0.002 A 
ATOM     10  C   UNL     1      -6.425   0.074   1.184  0.00  0.00    +0.002 A 
ATOM     11  C   UNL     1      -6.147   1.428   1.200  0.00  0.00    +0.025 A 
ATOM     12  C   UNL     1      -6.392   2.195   0.073  0.00  0.00    +0.058 A 
ATOM     13  N   UNL     1      -6.138   3.574   0.078  0.00  0.00    -0.265 N 
ATOM     14  C   UNL     1      -4.873   4.039   0.068  0.00  0.00    +0.237 C 
ATOM     15  O   UNL     1      -4.666   5.234   0.072  0.00  0.00    -0.274 OA
ATOM     16  H   UNL     1      -6.743   2.056  -3.081  0.00  0.00    +0.155 HD
ENDROOT
BRANCH  14  17
ATOM     17  C   UNL     1      -3.716   3.074   0.053  0.00  0.00    +0.198 C 
BRANCH  17  18
ATOM     18  N   UNL     1      -2.456   3.822   0.045  0.00  0.00    -0.334 N 
ATOM     19  H   UNL     1      -2.468   4.792   0.050  0.00  0.00    +0.147 HD
BRANCH  18  20
ATOM     20  C   UNL     1      -1.237   3.138   0.030  0.00  0.00    +0.046 A 
ATOM     21  C   UNL     1      -1.218   1.749   0.017  0.00  0.00    +0.026 A 
ATOM     22  C   UNL     1      -0.013   1.076   0.008  0.00  0.00    +0.022 A 
ATOM     23  C   UNL     1       1.177   1.783   0.000  0.00  0.00    +0.042 A 
ATOM     24  C   UNL     1       1.162   3.167   0.007  0.00  0.00    +0.041 A 
ATOM     25  C   UNL     1      -0.041   3.846   0.022  0.00  0.00    +0.063 A 
ATOM     26 CL   UNL     1      -0.059   5.582   0.030  0.00  0.00    -0.082 Cl
ATOM     27 CL   UNL     1       2.690   0.933  -0.018  0.00  0.00    -0.083 Cl
ENDBRANCH  18  20
ENDBRANCH  17  18
ENDBRANCH  14  17
TORSDOF 3
