REMARK  Name = ZINC27552477
REMARK  11 active torsions:
REMARK  status: ('A' for Active; 'I' for Inactive)
REMARK    1  A    between atoms: C_1  and  C_2
REMARK    2  A    between atoms: C_2  and  C_28
REMARK    3  A    between atoms: N_5  and  N_9
REMARK    4  A    between atoms: C_10  and  C_12
REMARK    5  A    between atoms: C_12  and  N_13
REMARK    6  A    between atoms: N_13  and  C_14
REMARK    7  A    between atoms: N_13  and  C_15
REMARK    8  A    between atoms: C_15  and  C_16
REMARK    9  A    between atoms: C_21  and  N_22
REMARK   10  A    between atoms: C_28  and  C_29
REMARK   11  A    between atoms: C_29  and  C_30
REMARK                            x       y       z     vdW  Elec       q    Type
REMARK                         _______ _______ _______ _____ _____    ______ ____
ROOT
ATOM      1  N   UNL     1       3.441  -4.143  -2.807  0.00  0.00    -0.225 N 
ATOM      2  C   UNL     1       2.329  -3.832  -2.112  0.00  0.00    +0.213 C 
ATOM      3  O   UNL     1       2.154  -4.297  -1.006  0.00  0.00    -0.276 OA
ATOM      4  H   UNL     1       3.599  -3.721  -3.810  0.00  0.00    +0.173 HD
ENDROOT
BRANCH   1   9
ATOM      5  C   UNL     1       6.876  -7.254  -2.633  0.00  0.00    +0.041 C 
ATOM      6  C   UNL     1       5.695  -6.819  -1.762  0.00  0.00    +0.112 C 
ATOM      7  C   UNL     1       4.566  -6.288  -2.623  0.00  0.00    +0.263 C 
ATOM      8  O   UNL     1       3.943  -6.894  -3.469  0.00  0.00    -0.271 OA
ATOM      9  N   UNL     1       4.396  -5.004  -2.250  0.00  0.00    -0.137 N 
ATOM     10  C   UNL     1       5.256  -4.652  -1.288  0.00  0.00    +0.326 C 
ATOM     11  O   UNL     1       5.298  -3.543  -0.793  0.00  0.00    -0.251 OA
ATOM     12  N   UNL     1       6.066  -5.663  -0.927  0.00  0.00    -0.284 N 
ATOM     13  H   UNL     1       6.875  -5.756  -0.187  0.00  0.00    +0.151 HD
BRANCH   6  14
ATOM     14  C   UNL     1       5.211  -7.982  -0.894  0.00  0.00    +0.040 C 
BRANCH  14  15
ATOM     15  C   UNL     1       6.333  -8.415   0.051  0.00  0.00    +0.038 C 
BRANCH  15  16
ATOM     16  C   UNL     1       5.856  -9.560   0.906  0.00  0.00    -0.047 A 
ATOM     17  C   UNL     1       5.250  -9.309   2.123  0.00  0.00    +0.003 A 
ATOM     18  C   UNL     1       4.808 -10.359   2.905  0.00  0.00    +0.000 A 
ATOM     19  C   UNL     1       4.981 -11.662   2.475  0.00  0.00    +0.000 A 
ATOM     20  C   UNL     1       5.592 -11.913   1.261  0.00  0.00    +0.000 A 
ATOM     21  C   UNL     1       6.029 -10.863   0.476  0.00  0.00    +0.003 A 
ENDBRANCH  15  16
ENDBRANCH  14  15
ENDBRANCH   6  14
ENDBRANCH   1   9
BRANCH   2  22
ATOM     22  C   UNL     1       1.301  -2.906  -2.710  0.00  0.00    +0.020 C 
BRANCH  22  23
ATOM     23  N   UNL     1       0.193  -2.727  -1.763  0.00  0.00    +0.386 N 
ATOM     24  C   UNL     1      -0.542  -3.984  -1.569  0.00  0.00    -0.095 C 
ATOM     25  H   UNL     1       0.621  -2.432  -0.794  0.00  0.00    -0.081 HD
BRANCH  23  26
ATOM     26  C   UNL     1      -0.708  -1.653  -2.204  0.00  0.00    -0.041 C 
BRANCH  26  27
ATOM     27  C   UNL     1      -1.684  -1.332  -1.102  0.00  0.00    -0.043 A 
ATOM     28  C   UNL     1      -2.967  -1.843  -1.143  0.00  0.00    +0.003 A 
ATOM     29  C   UNL     1      -3.862  -1.548  -0.131  0.00  0.00    +0.000 A 
ATOM     30  C   UNL     1      -3.478  -0.742   0.924  0.00  0.00    +0.002 A 
ATOM     31  C   UNL     1      -2.195  -0.233   0.975  0.00  0.00    +0.023 A 
ATOM     32  C   UNL     1      -1.294  -0.522  -0.043  0.00  0.00    +0.031 A 
BRANCH  32  33
ATOM     33  N   UNL     1       0.002  -0.004   0.002  0.00  0.00    -0.325 N 
ATOM     34  C   UNL     1      -0.018   1.466   0.010  0.00  0.00    +0.133 C 
ATOM     35  C   UNL     1       1.420   1.990  -0.001  0.00  0.00    +0.178 C 
ATOM     36  O   UNL     1       2.127   1.452   1.120  0.00  0.00    -0.377 OA
ATOM     37  C   UNL     1       2.167   0.023   1.143  0.00  0.00    +0.178 C 
ATOM     38  C   UNL     1       0.736  -0.521   1.166  0.00  0.00    +0.133 C 
ENDBRANCH  32  33
ENDBRANCH  26  27
ENDBRANCH  23  26
ENDBRANCH  22  23
ENDBRANCH   2  22
TORSDOF 9
