REMARK  Name = ZINC02685357
REMARK  6 active torsions:
REMARK  status: ('A' for Active; 'I' for Inactive)
REMARK    1  A    between atoms: C_7  and  N_19
REMARK    2  A    between atoms: C_9  and  S_12
REMARK    3  A    between atoms: C_10  and  O_11
REMARK    4  A    between atoms: S_12  and  C_13
REMARK    5  A    between atoms: N_19  and  S_20
REMARK    6  A    between atoms: S_20  and  C_23
REMARK                            x       y       z     vdW  Elec       q    Type
REMARK                         _______ _______ _______ _____ _____    ______ ____
ROOT
ATOM      1  C   UNL     1       0.115   4.493   0.395  0.00  0.00    +0.001 A 
ATOM      2  C   UNL     1      -1.139   3.901   0.546  0.00  0.00    +0.001 A 
ATOM      3  C   UNL     1      -1.289   2.551   0.473  0.00  0.00    +0.012 A 
ATOM      4  C   UNL     1      -0.164   1.736   0.253  0.00  0.00    +0.026 A 
ATOM      5  C   UNL     1       1.110   2.339   0.099  0.00  0.00    +0.008 A 
ATOM      6  C   UNL     1       1.225   3.736   0.175  0.00  0.00    +0.010 A 
ATOM      7  C   UNL     1       2.241   1.526  -0.128  0.00  0.00    +0.057 A 
ATOM      8  C   UNL     1       2.097   0.159  -0.197  0.00  0.00    +0.044 A 
ATOM      9  C   UNL     1       0.841  -0.435  -0.046  0.00  0.00    +0.059 A 
ATOM     10  C   UNL     1      -0.283   0.337   0.177  0.00  0.00    +0.138 A 
ENDROOT
BRANCH  10  11
ATOM     11  O   UNL     1      -1.500  -0.254   0.324  0.00  0.00    -0.505 OA
ATOM     12  H   UNL     1      -1.591  -1.349   0.264  0.00  0.00    +0.292 HD
ENDBRANCH  10  11
BRANCH   7  13
ATOM     13  N   UNL     1       3.502   2.107  -0.281  0.00  0.00    -0.216 N 
ATOM     14  H   UNL     1       3.970   2.637   0.561  0.00  0.00    +0.174 HD
BRANCH  13  15
ATOM     15  S   UNL     1       4.294   1.996  -1.732  0.00  0.00    +0.072 S 
ATOM     16  O   UNL     1       5.505   2.725  -1.589  0.00  0.00    -0.150 OA
ATOM     17  O   UNL     1       4.269   0.625  -2.105  0.00  0.00    -0.150 OA
BRANCH  15  18
ATOM     18  C   UNL     1       3.323   2.860  -2.922  0.00  0.00    +0.109 A 
ATOM     19  C   UNL     1       2.352   2.188  -3.640  0.00  0.00    +0.030 A 
ATOM     20  C   UNL     1       1.587   2.866  -4.571  0.00  0.00    +0.017 A 
ATOM     21  C   UNL     1       1.801   4.215  -4.790  0.00  0.00    +0.018 A 
ATOM     22  C   UNL     1       2.777   4.886  -4.075  0.00  0.00    +0.017 A 
ATOM     23  C   UNL     1       3.537   4.208  -3.141  0.00  0.00    +0.030 A 
ATOM     24 BR   UNL     1       0.759   5.142  -6.068  0.00  0.00    -0.050 Br
ENDBRANCH  15  18
ENDBRANCH  13  15
ENDBRANCH   7  13
BRANCH   9  25
ATOM     25  S   UNL     1       0.690  -2.188  -0.140  0.00  0.00    -0.047 S 
BRANCH  25  26
ATOM     26  C   UNL     1       0.486  -2.570   1.568  0.00  0.00    +0.189 A 
ATOM     27  N   UNL     1       0.218  -3.789   2.084  0.00  0.00    -0.254 N 
ATOM     28  H   UNL     1       0.106  -4.657   1.417  0.00  0.00    +0.191 HD
ATOM     29  N   UNL     1       0.145  -3.621   3.476  0.00  0.00    -0.160 NA
ATOM     30  C   UNL     1       0.355  -2.355   3.720  0.00  0.00    +0.245 A 
ATOM     31  N   UNL     1       0.561  -1.717   2.567  0.00  0.00    -0.209 NA
ENDBRANCH  25  26
ENDBRANCH   9  25
TORSDOF 6
