REMARK  Name = ZINC39846362
REMARK  8 active torsions:
REMARK  status: ('A' for Active; 'I' for Inactive)
REMARK    1  A    between atoms: C_1  and  C_2
REMARK    2  A    between atoms: C_5  and  N_8
REMARK    3  A    between atoms: C_9  and  C_11
REMARK    4  A    between atoms: C_14  and  C_28
REMARK    5  A    between atoms: C_15  and  C_16
REMARK    6  A    between atoms: C_15  and  C_17
REMARK    7  A    between atoms: C_21  and  C_26
REMARK    8  A    between atoms: C_22  and  C_24
REMARK                            x       y       z     vdW  Elec       q    Type
REMARK                         _______ _______ _______ _____ _____    ______ ____
ROOT
ATOM      1  C   UNL     1       0.309  -6.349   1.121  0.00  0.00    +0.097 C 
ATOM      2  C   UNL     1      -0.893  -7.142   0.517  0.00  0.00    +0.024 C 
ATOM      3  C   UNL     1      -0.695  -8.584   1.043  0.00  0.00    +0.015 C 
ATOM      4  C   UNL     1       0.604  -8.498   1.905  0.00  0.00    +0.018 C 
ATOM      5  C   UNL     1       0.440  -7.059   2.519  0.00  0.00    -0.005 C 
ATOM      6  C   UNL     1      -0.838  -6.944   3.352  0.00  0.00    +0.013 C 
ATOM      7  C   UNL     1       1.674  -6.594   3.294  0.00  0.00    +0.013 C 
ATOM      8  C   UNL     1       1.715  -8.228   0.888  0.00  0.00    +0.072 A 
ATOM      9  C   UNL     1       1.548  -6.911   0.420  0.00  0.00    +0.080 A 
ATOM     10  N   UNL     1       2.367  -6.398  -0.467  0.00  0.00    -0.236 NA
ATOM     11  C   UNL     1       3.389  -7.122  -0.919  0.00  0.00    +0.176 A 
ATOM     12  C   UNL     1       3.583  -8.431  -0.441  0.00  0.00    +0.176 A 
ATOM     13  N   UNL     1       2.705  -8.968   0.447  0.00  0.00    -0.236 NA
ATOM     14  C   UNL     1       0.835  -9.642   2.895  0.00  0.00    +0.018 C 
ENDROOT
BRANCH   1  16
ATOM     15  N   UNL     1       0.059  -4.170  -0.021  0.00  0.00    -0.285 N 
ATOM     16  C   UNL     1       0.175  -4.848   1.138  0.00  0.00    +0.230 C 
ATOM     17  O   UNL     1       0.173  -4.251   2.193  0.00  0.00    -0.274 OA
ATOM     18  H   UNL     1      -0.007  -4.651  -0.861  0.00  0.00    +0.155 HD
BRANCH  15  23
ATOM     19  C   UNL     1      -0.047   1.502   0.014  0.00  0.00    +0.044 C 
ATOM     20  C   UNL     1      -0.019  -0.004   0.005  0.00  0.00    -0.050 A 
ATOM     21  C   UNL     1      -0.605  -0.712   1.038  0.00  0.00    +0.005 A 
ATOM     22  C   UNL     1      -0.581  -2.093   1.033  0.00  0.00    +0.023 A 
ATOM     23  C   UNL     1       0.032  -2.771  -0.013  0.00  0.00    +0.033 A 
ATOM     24  C   UNL     1       0.620  -2.058  -1.049  0.00  0.00    +0.023 A 
ATOM     25  C   UNL     1       0.588  -0.677  -1.040  0.00  0.00    +0.005 A 
ENDBRANCH  15  23
ENDBRANCH   1  16
BRANCH  12  26
ATOM     26  C   UNL     1       4.679  -9.217  -0.922  0.00  0.00    +0.122 C 
ATOM     27  N   UNL     1       5.549  -9.840  -1.304  0.00  0.00    -0.189 NA
ENDBRANCH  12  26
BRANCH  11  28
ATOM     28  C   UNL     1       4.288  -6.571  -1.889  0.00  0.00    +0.122 C 
ATOM     29  N   UNL     1       5.000  -6.133  -2.657  0.00  0.00    -0.189 NA
ENDBRANCH  11  28
TORSDOF 4
