REMARK  Name = ZINC39894286
REMARK  9 active torsions:
REMARK  status: ('A' for Active; 'I' for Inactive)
REMARK    1  A    between atoms: C_1  and  C_2
REMARK    2  A    between atoms: C_3  and  C_34
REMARK    3  A    between atoms: N_6  and  C_25
REMARK    4  A    between atoms: C_10  and  N_11
REMARK    5  A    between atoms: N_11  and  C_12
REMARK    6  A    between atoms: C_15  and  N_22
REMARK    7  A    between atoms: C_16  and  C_18
REMARK    8  A    between atoms: C_25  and  C_27
REMARK    9  A    between atoms: C_25  and  C_28
REMARK                            x       y       z     vdW  Elec       q    Type
REMARK                         _______ _______ _______ _____ _____    ______ ____
ROOT
ATOM      1  C   UNL     1      -3.187   0.420   1.933  0.00  0.00    +0.046 C 
ATOM      2  C   UNL     1      -2.288  -0.651   1.371  0.00  0.00    -0.015 C 
ATOM      3  C   UNL     1      -1.695  -0.495   0.127  0.00  0.00    +0.118 C 
ATOM      4  C   UNL     1      -0.826  -1.551  -0.397  0.00  0.00    +0.264 C 
ATOM      5  O   UNL     1      -0.305  -1.415  -1.489  0.00  0.00    -0.269 OA
ATOM      6  N   UNL     1      -0.596  -2.669   0.313  0.00  0.00    -0.226 N 
ATOM      7  C   UNL     1      -1.153  -2.857   1.523  0.00  0.00    +0.255 C 
ATOM      8  O   UNL     1      -0.927  -3.880   2.142  0.00  0.00    -0.269 OA
ATOM      9  C   UNL     1      -2.030  -1.831   2.104  0.00  0.00    +0.055 C 
ATOM     10  C   UNL     1      -2.602  -2.021   3.358  0.00  0.00    +0.085 C 
ENDROOT
BRANCH  10  11
ATOM     11  N   UNL     1      -2.212  -3.055   4.126  0.00  0.00    -0.320 N 
ATOM     12  H   UNL     1      -1.566  -3.695   3.787  0.00  0.00    +0.152 HD
BRANCH  11  13
ATOM     13  C   UNL     1      -2.738  -3.208   5.411  0.00  0.00    +0.032 A 
ATOM     14  C   UNL     1      -3.668  -2.297   5.896  0.00  0.00    +0.025 A 
ATOM     15  C   UNL     1      -4.186  -2.452   7.166  0.00  0.00    +0.035 A 
ATOM     16  C   UNL     1      -3.781  -3.512   7.956  0.00  0.00    +0.138 A 
ATOM     17  C   UNL     1      -2.855  -4.421   7.477  0.00  0.00    +0.087 A 
ATOM     18  C   UNL     1      -2.337  -4.276   6.205  0.00  0.00    +0.038 A 
BRANCH  17  19
ATOM     19  C   UNL     1      -2.416  -5.574   8.341  0.00  0.00    +0.420 C 
ATOM     20  F   UNL     1      -1.482  -6.350   7.645  0.00  0.00    -0.166 F 
ATOM     21  F   UNL     1      -1.831  -5.083   9.513  0.00  0.00    -0.166 F 
ATOM     22  F   UNL     1      -3.525  -6.362   8.668  0.00  0.00    -0.166 F 
ENDBRANCH  17  19
BRANCH  16  23
ATOM     23  N   UNL     1      -4.338  -3.675   9.318  0.00  0.00    +0.057 N 
ATOM     24  O   UNL     1      -5.147  -2.881   9.738  0.00  0.00    -0.126 OA
ATOM     25  O   UNL     1      -3.985  -4.601  10.009  0.00  0.00    -0.126 OA
ENDBRANCH  16  23
ENDBRANCH  11  13
ENDBRANCH  10  11
BRANCH   6  26
ATOM     26  C   UNL     1       0.279  -3.704  -0.242  0.00  0.00    +0.112 C 
ATOM     27  C   UNL     1       0.040  -3.820  -1.749  0.00  0.00    +0.033 C 
BRANCH  26  28
ATOM     28  C   UNL     1       1.718  -3.335   0.011  0.00  0.00    -0.027 A 
ATOM     29  C   UNL     1       2.165  -2.059  -0.277  0.00  0.00    +0.005 A 
ATOM     30  C   UNL     1       3.485  -1.720  -0.044  0.00  0.00    +0.000 A 
ATOM     31  C   UNL     1       4.357  -2.656   0.477  0.00  0.00    +0.000 A 
ATOM     32  C   UNL     1       3.910  -3.932   0.766  0.00  0.00    +0.000 A 
ATOM     33  C   UNL     1       2.590  -4.270   0.538  0.00  0.00    +0.005 A 
ENDBRANCH  26  28
ENDBRANCH   6  26
BRANCH   3  34
ATOM     34  C   UNL     1      -1.931   0.690  -0.641  0.00  0.00    +0.105 C 
ATOM     35  N   UNL     1      -2.118   1.631  -1.250  0.00  0.00    -0.191 NA
ENDBRANCH   3  34
TORSDOF 7
