REMARK  Name = ZINC59268911
REMARK  4 active torsions:
REMARK  status: ('A' for Active; 'I' for Inactive)
REMARK    1  A    between atoms: C_1  and  C_2
REMARK    2  A    between atoms: C_2  and  C_3
REMARK    3  A    between atoms: C_3  and  C_5
REMARK    4  A    between atoms: C_3  and  O_8
REMARK                            x       y       z     vdW  Elec       q    Type
REMARK                         _______ _______ _______ _____ _____    ______ ____
ROOT
ATOM      1  C   UNL     1      -1.433  -0.534   0.013  0.00  0.00    +0.192 C 
ENDROOT
BRANCH   1   2
ATOM      2  C   UNL     1      -1.416  -2.035  -0.119  0.00  0.00    +0.228 C 
ATOM      3  O   UNL     1      -1.815  -2.729   0.793  0.00  0.00    -0.282 OA
ATOM      4  S   UNL     1      -0.851  -2.739  -1.512  0.00  0.00    -0.009 SA
ENDBRANCH   1   2
BRANCH   1   6
ATOM      5  C   UNL     1      -0.019   1.526   0.010  0.00  0.00    +0.007 C 
ATOM      6  C   UNL     1       0.002  -0.004   0.002  0.00  0.00    +0.037 C 
ENDBRANCH   1   6
BRANCH   1   7
ATOM      7  O   UNL     1      -2.066  -0.171   1.242  0.00  0.00    -0.383 OA
ATOM      8  H   UNL     1      -1.626  -0.521   2.029  0.00  0.00    +0.210 HD
ENDBRANCH   1   7
TORSDOF 3
