REMARK  Name = ZINC04487608
REMARK  6 active torsions:
REMARK  status: ('A' for Active; 'I' for Inactive)
REMARK    1  A    between atoms: C_1  and  C_2
REMARK    2  A    between atoms: N_4  and  C_5
REMARK    3  A    between atoms: C_8  and  N_11
REMARK    4  A    between atoms: C_12  and  C_14
REMARK    5  A    between atoms: C_25  and  C_27
REMARK    6  A    between atoms: C_25  and  C_28
REMARK                            x       y       z     vdW  Elec       q    Type
REMARK                         _______ _______ _______ _____ _____    ______ ____
ROOT
ATOM      1  N   UNL     1      -0.710  -6.244   0.177  0.00  0.00    -0.285 N 
ATOM      2  C   UNL     1      -1.810  -7.012   0.052  0.00  0.00    +0.225 C 
ATOM      3  O   UNL     1      -2.906  -6.497  -0.006  0.00  0.00    -0.275 OA
ATOM      4  H   UNL     1       0.160  -6.657   0.291  0.00  0.00    +0.155 HD
ENDROOT
BRANCH   2   5
ATOM      5  C   UNL     1      -1.678  -8.512  -0.017  0.00  0.00    +0.119 C 
ATOM      6  C   UNL     1      -0.821  -8.894  -1.225  0.00  0.00    +0.113 C 
ATOM      7  C   UNL     1      -1.608  -8.646  -2.486  0.00  0.00    +0.218 C 
ATOM      8  O   UNL     1      -1.039  -8.284  -3.493  0.00  0.00    -0.275 OA
ATOM      9  N   UNL     1      -2.941  -8.827  -2.496  0.00  0.00    -0.289 N 
ATOM     10  C   UNL     1      -3.606  -9.262  -1.379  0.00  0.00    +0.018 C 
ATOM     11  C   UNL     1      -3.048  -9.133  -0.156  0.00  0.00    +0.024 C 
ATOM     12  C   UNL     1      -3.714  -9.565   1.002  0.00  0.00    +0.162 C 
ATOM     13  O   UNL     1      -3.174  -9.442   2.084  0.00  0.00    -0.292 OA
ATOM     14  C   UNL     1      -5.087 -10.178   0.925  0.00  0.00    +0.086 C 
ATOM     15  C   UNL     1      -5.816  -9.612  -0.298  0.00  0.00    -0.023 C 
ATOM     16  C   UNL     1      -4.968  -9.889  -1.544  0.00  0.00    +0.058 C 
ATOM     17  C   UNL     1      -7.179 -10.292  -0.444  0.00  0.00    +0.011 C 
ATOM     18  C   UNL     1      -6.005  -8.103  -0.130  0.00  0.00    +0.011 C 
ATOM     19  H   UNL     1      -3.440  -8.646  -3.308  0.00  0.00    +0.155 HD
ENDBRANCH   2   5
BRANCH   1  23
ATOM     20  C   UNL     1      -1.047  -2.089   0.075  0.00  0.00    +0.033 A 
ATOM     21  C   UNL     1       0.068  -2.709  -0.474  0.00  0.00    +0.025 A 
ATOM     22  C   UNL     1       0.179  -4.084  -0.440  0.00  0.00    +0.025 A 
ATOM     23  C   UNL     1      -0.823  -4.848   0.143  0.00  0.00    +0.034 A 
ATOM     24  C   UNL     1      -1.938  -4.228   0.692  0.00  0.00    +0.025 A 
ATOM     25  C   UNL     1      -2.047  -2.853   0.663  0.00  0.00    +0.025 A 
BRANCH  20  29
ATOM     26  C   UNL     1      -1.766   1.468   1.080  0.00  0.00    +0.109 C 
ATOM     27  C   UNL     1      -1.737  -0.038   1.068  0.00  0.00    +0.214 C 
ATOM     28  O   UNL     1      -2.232  -0.662   1.983  0.00  0.00    -0.276 OA
ATOM     29  N   UNL     1      -1.160  -0.693   0.041  0.00  0.00    -0.286 N 
ATOM     30  H   UNL     1      -0.824  -0.198  -0.723  0.00  0.00    +0.155 HD
ENDBRANCH  20  29
ENDBRANCH   1  23
TORSDOF 3
