REMARK  Name = ZINC05274822
REMARK  6 active torsions:
REMARK  status: ('A' for Active; 'I' for Inactive)
REMARK    1  A    between atoms: C_1  and  C_2
REMARK    2  A    between atoms: C_8  and  C_12
REMARK    3  A    between atoms: C_12  and  C_13
REMARK    4  A    between atoms: C_13  and  N_14
REMARK    5  A    between atoms: C_18  and  C_23
REMARK    6  A    between atoms: N_21  and  N_22
REMARK                            x       y       z     vdW  Elec       q    Type
REMARK                         _______ _______ _______ _____ _____    ______ ____
ROOT
ATOM      1  C   UNL     1      -4.170   3.074   4.398  0.00  0.00    +0.109 C 
ENDROOT
BRANCH   1   2
ATOM      2  N   UNL     1      -2.722   2.873   4.503  0.00  0.00    -0.312 N 
ATOM      3  C   UNL     1      -2.012   2.433   3.419  0.00  0.00    +0.235 A 
ATOM      4  N   UNL     1      -2.637   2.190   2.280  0.00  0.00    -0.113 NA
ATOM      5  N   UNL     1      -2.013   1.780   1.234  0.00  0.00    -0.146 NA
ATOM      6  C   UNL     1      -0.718   1.572   1.248  0.00  0.00    +0.126 A 
ATOM      7  C   UNL     1       0.010   1.813   2.434  0.00  0.00    +0.293 A 
ATOM      8  O   UNL     1       1.215   1.632   2.477  0.00  0.00    -0.264 OA
ATOM      9  N   UNL     1      -0.667   2.249   3.521  0.00  0.00    -0.199 N 
ATOM     10  C   UNL     1      -0.013   1.086   0.008  0.00  0.00    +0.073 C 
ATOM     11  H   UNL     1      -2.267   3.053   5.340  0.00  0.00    +0.149 HD
BRANCH   9  12
ATOM     12  N   UNL     1      -0.016   2.499   4.695  0.00  0.00    -0.293 N 
ATOM     13  H   UNL     1       0.973   2.314   4.607  0.00  0.00    +0.163 HD
ATOM     14  H   UNL     1      -0.180   3.445   5.006  0.00  0.00    +0.163 HD
ENDBRANCH   9  12
ENDBRANCH   1   2
BRANCH   1  15
ATOM     15  C   UNL     1      -4.714   3.565   5.741  0.00  0.00    +0.056 C 
BRANCH  15  23
ATOM     16  C   UNL     1      -8.366  -0.780   6.516  0.00  0.00    +0.044 C 
ATOM     17  C   UNL     1      -8.391   0.693   6.200  0.00  0.00    -0.050 A 
ATOM     18  C   UNL     1      -9.606   1.336   6.010  0.00  0.00    +0.005 A 
ATOM     19  C   UNL     1      -9.652   2.682   5.720  0.00  0.00    +0.026 A 
ATOM     20  C   UNL     1      -8.468   3.406   5.615  0.00  0.00    +0.047 A 
ATOM     21  C   UNL     1      -7.239   2.749   5.802  0.00  0.00    +0.003 A 
ATOM     22  C   UNL     1      -7.217   1.385   6.101  0.00  0.00    +0.013 A 
ATOM     23  C   UNL     1      -6.203   3.771   5.633  0.00  0.00    -0.021 A 
ATOM     24  C   UNL     1      -6.832   4.925   5.359  0.00  0.00    +0.087 A 
ATOM     25  N   UNL     1      -8.186   4.726   5.345  0.00  0.00    -0.360 N 
ATOM     26  H   UNL     1      -8.848   5.413   5.169  0.00  0.00    +0.165 HD
ENDBRANCH  15  23
ENDBRANCH   1  15
TORSDOF 4
