REMARK  Name = ZINC01155015
REMARK  5 active torsions:
REMARK  status: ('A' for Active; 'I' for Inactive)
REMARK    1  A    between atoms: C_4  and  C_7
REMARK    2  A    between atoms: C_7  and  C_9
REMARK    3  A    between atoms: C_11  and  C_23
REMARK    4  A    between atoms: C_17  and  C_18
REMARK    5  A    between atoms: C_17  and  O_22
REMARK                            x       y       z     vdW  Elec       q    Type
REMARK                         _______ _______ _______ _____ _____    ______ ____
ROOT
ATOM      1  C   UNL     1       3.716  -2.186  -0.046  0.00  0.00    +0.144 C 
ATOM      2  C   UNL     1       4.987  -2.684   0.652  0.00  0.00    +0.120 C 
ATOM      3  N   UNL     1       5.058  -4.141   0.537  0.00  0.00    -0.292 N 
ATOM      4  C   UNL     1       4.512  -4.787  -0.504  0.00  0.00    +0.302 C 
ATOM      5  O   UNL     1       4.609  -5.998  -0.555  0.00  0.00    -0.253 OA
ATOM      6  N   UNL     1       3.864  -4.150  -1.490  0.00  0.00    -0.264 N 
ATOM      7  C   UNL     1       3.719  -2.693  -1.493  0.00  0.00    +0.243 C 
ATOM      8  H   UNL     1       5.509  -4.651   1.229  0.00  0.00    +0.151 HD
ATOM      9  H   UNL     1       3.480  -4.665  -2.217  0.00  0.00    +0.153 HD
ENDROOT
BRANCH   2  10
ATOM     10  C   UNL     1       4.948  -2.292   2.106  0.00  0.00    -0.025 A 
ATOM     11  C   UNL     1       4.210  -3.042   3.004  0.00  0.00    +0.007 A 
ATOM     12  C   UNL     1       4.173  -2.683   4.338  0.00  0.00    +0.022 A 
ATOM     13  C   UNL     1       4.876  -1.575   4.777  0.00  0.00    +0.059 A 
ATOM     14  C   UNL     1       5.615  -0.825   3.878  0.00  0.00    +0.060 A 
ATOM     15  C   UNL     1       5.655  -1.188   2.543  0.00  0.00    +0.027 A 
ATOM     16 CL   UNL     1       6.497   0.566   4.426  0.00  0.00    -0.082 Cl
ATOM     17 CL   UNL     1       4.830  -1.125   6.453  0.00  0.00    -0.082 Cl
ENDBRANCH   2  10
BRANCH   7  18
ATOM     18  C   UNL     1       2.404  -2.306  -2.173  0.00  0.00    +0.436 C 
ATOM     19  F   UNL     1       2.268  -0.914  -2.167  0.00  0.00    -0.166 F 
ATOM     20  F   UNL     1       2.408  -2.769  -3.493  0.00  0.00    -0.166 F 
ATOM     21  F   UNL     1       1.334  -2.882  -1.480  0.00  0.00    -0.166 F 
ENDBRANCH   7  18
BRANCH   1  22
ATOM     22  C   UNL     1       3.691  -0.679  -0.038  0.00  0.00    +0.173 C 
ATOM     23  O   UNL     1       4.731  -0.056  -0.045  0.00  0.00    -0.292 OA
BRANCH  22  27
ATOM     24  C   UNL     1      -0.017   1.380   0.010  0.00  0.00    +0.000 A 
ATOM     25  C   UNL     1       1.168   2.095   0.002  0.00  0.00    +0.001 A 
ATOM     26  C   UNL     1       2.377   1.433  -0.013  0.00  0.00    +0.011 A 
ATOM     27  C   UNL     1       2.405   0.035  -0.021  0.00  0.00    +0.018 A 
ATOM     28  C   UNL     1       1.203  -0.681  -0.013  0.00  0.00    +0.011 A 
ATOM     29  C   UNL     1       0.002  -0.004   0.002  0.00  0.00    +0.001 A 
ENDBRANCH  22  27
ENDBRANCH   1  22
BRANCH   7  30
ATOM     30  O   UNL     1       4.814  -2.109  -2.201  0.00  0.00    -0.364 OA
ATOM     31  H   UNL     1       4.878  -2.386  -3.125  0.00  0.00    +0.212 HD
ENDBRANCH   7  30
TORSDOF 5
