REMARK  Name = ZINC53129737
REMARK  3 active torsions:
REMARK  status: ('A' for Active; 'I' for Inactive)
REMARK    1  A    between atoms: C_6  and  C_7
REMARK    2  A    between atoms: C_7  and  C_8
REMARK    3  A    between atoms: C_10  and  C_13
REMARK                            x       y       z     vdW  Elec       q    Type
REMARK                         _______ _______ _______ _____ _____    ______ ____
ROOT
ATOM      1  C   UNL     1      -1.724  -1.048  -1.407  0.00  0.00    +0.176 A 
ATOM      2  N   UNL     1      -2.518  -0.250  -2.130  0.00  0.00    -0.197 NA
ATOM      3  C   UNL     1      -2.705  -0.760  -3.316  0.00  0.00    +0.218 A 
ATOM      4  O   UNL     1      -2.030  -1.914  -3.388  0.00  0.00    -0.339 OA
ATOM      5  N   UNL     1      -1.391  -2.079  -2.130  0.00  0.00    -0.061 NA
ENDROOT
BRANCH   3   6
ATOM      6  C   UNL     1      -3.540  -0.156  -4.415  0.00  0.00    +0.050 C 
ATOM      7  C   UNL     1      -2.626   0.437  -5.483  0.00  0.00    -0.042 A 
ATOM      8  C   UNL     1      -1.461   1.147  -5.205  0.00  0.00    +0.010 A 
ATOM      9  C   UNL     1      -0.708   1.637  -6.219  0.00  0.00    +0.045 A 
ATOM     10  S   UNL     1      -1.632   1.105  -7.654  0.00  0.00    -0.101 S 
ATOM     11  C   UNL     1      -2.943   0.279  -6.800  0.00  0.00    -0.010 A 
ATOM     12  C   UNL     1      -4.136  -0.435  -7.345  0.00  0.00    +0.023 C 
ATOM     13  C   UNL     1      -5.115  -0.659  -6.179  0.00  0.00    -0.076 C 
ATOM     14  N   UNL     1      -4.374  -1.196  -5.029  0.00  0.00    +0.390 N 
ATOM     15  H   UNL     1      -3.785  -1.954  -5.340  0.00  0.00    -0.084 HD
ATOM     16  H   UNL     1      -5.028  -1.544  -4.344  0.00  0.00    -0.084 HD
ENDBRANCH   3   6
BRANCH   1  17
ATOM     17  C   UNL     1      -1.282  -0.793   0.011  0.00  0.00    +0.115 C 
BRANCH  17  23
ATOM     18  C   UNL     1      -0.017   1.382   0.010  0.00  0.00    +0.024 A 
ATOM     19  C   UNL     1       1.181   2.072   0.002  0.00  0.00    +0.111 A 
ATOM     20  N   UNL     1       2.331   1.427  -0.013  0.00  0.00    -0.263 NA
ATOM     21  C   UNL     1       2.387   0.109  -0.021  0.00  0.00    +0.111 A 
ATOM     22  C   UNL     1       1.230  -0.647  -0.013  0.00  0.00    +0.024 A 
ATOM     23  C   UNL     1       0.002  -0.004   0.002  0.00  0.00    -0.037 A 
ENDBRANCH  17  23
ENDBRANCH   1  17
TORSDOF 3
