REMARK  Name = ZINC15930248
REMARK  4 active torsions:
REMARK  status: ('A' for Active; 'I' for Inactive)
REMARK    1  A    between atoms: C_6  and  N_7
REMARK    2  A    between atoms: N_7  and  C_8
REMARK    3  A    between atoms: C_9  and  C_10
REMARK    4  A    between atoms: C_9  and  C_12
REMARK                            x       y       z     vdW  Elec       q    Type
REMARK                         _______ _______ _______ _____ _____    ______ ____
ROOT
ATOM      1  N   UNL     1      -1.200  -0.719   0.010  0.00  0.00    -0.320 N 
ATOM      2  H   UNL     1      -1.188  -1.688   0.004  0.00  0.00    +0.152 HD
ENDROOT
BRANCH   1   8
ATOM      3  C   UNL     1      -0.017   1.386   0.010  0.00  0.00    +0.025 A 
ATOM      4  C   UNL     1       1.167   2.097   0.002  0.00  0.00    +0.029 A 
ATOM      5  C   UNL     1       2.378   1.423  -0.013  0.00  0.00    +0.067 A 
ATOM      6  C   UNL     1       2.401   0.027  -0.021  0.00  0.00    +0.069 A 
ATOM      7  C   UNL     1       1.212  -0.684  -0.014  0.00  0.00    +0.051 A 
ATOM      8  C   UNL     1       0.002  -0.004   0.002  0.00  0.00    +0.033 A 
ATOM      9  N   UNL     1       3.741  -0.354  -0.035  0.00  0.00    -0.306 N 
ATOM     10  H   UNL     1       4.071  -1.266  -0.043  0.00  0.00    +0.170 HD
ATOM     11  C   UNL     1       4.499   0.758  -0.036  0.00  0.00    +0.325 A 
ATOM     12  O   UNL     1       5.715   0.777  -0.046  0.00  0.00    -0.247 OA
ATOM     13  N   UNL     1       3.707   1.847  -0.023  0.00  0.00    -0.306 N 
ATOM     14  H   UNL     1       4.009   2.769  -0.020  0.00  0.00    +0.170 HD
ENDBRANCH   1   8
BRANCH   1  15
ATOM     15  C   UNL     1      -2.379  -0.058   0.025  0.00  0.00    +0.088 C 
ATOM     16  C   UNL     1      -3.567  -0.763   0.032  0.00  0.00    +0.090 C 
BRANCH  16  17
ATOM     17  C   UNL     1      -4.853  -0.043   0.048  0.00  0.00    +0.233 A 
ATOM     18  N   UNL     1      -4.983   1.262   0.051  0.00  0.00    -0.209 NA
ATOM     19  C   UNL     1      -6.307   1.568   0.067  0.00  0.00    +0.111 A 
ATOM     20  C   UNL     1      -7.018   2.770   0.077  0.00  0.00    +0.051 A 
ATOM     21  C   UNL     1      -8.396   2.748   0.094  0.00  0.00    +0.043 A 
ATOM     22  C   UNL     1      -9.079   1.540   0.102  0.00  0.00    +0.024 A 
ATOM     23  C   UNL     1      -8.389   0.345   0.093  0.00  0.00    +0.050 A 
ATOM     24  C   UNL     1      -7.003   0.348   0.075  0.00  0.00    +0.156 A 
ATOM     25  O   UNL     1      -6.066  -0.627   0.057  0.00  0.00    -0.435 OA
ATOM     26 CL   UNL     1      -9.283   4.241   0.107  0.00  0.00    -0.083 Cl
ENDBRANCH  16  17
BRANCH  16  27
ATOM     27  C   UNL     1      -3.550  -2.178   0.024  0.00  0.00    +0.265 C 
ATOM     28  O   UNL     1      -4.594  -2.798   0.031  0.00  0.00    -0.295 OA
ENDBRANCH  16  27
ENDBRANCH   1  15
TORSDOF 4
