REMARK  Name = ZINC04125681
REMARK  5 active torsions:
REMARK  status: ('A' for Active; 'I' for Inactive)
REMARK    1  A    between atoms: C_4  and  C_30
REMARK    2  A    between atoms: C_5  and  C_7
REMARK    3  A    between atoms: C_11  and  C_21
REMARK    4  A    between atoms: C_16  and  N_20
REMARK    5  A    between atoms: C_17  and  C_18
REMARK                            x       y       z     vdW  Elec       q    Type
REMARK                         _______ _______ _______ _____ _____    ______ ____
ROOT
ATOM      1  C   UNL     1       0.792  -1.994  -0.157  0.00  0.00    +0.083 C 
ATOM      2  C   UNL     1       0.316  -2.691  -1.438  0.00  0.00    +0.140 C 
ATOM      3  C   UNL     1       1.439  -2.792  -2.444  0.00  0.00    +0.084 C 
ATOM      4  N   UNL     1       1.666  -4.069  -2.606  0.00  0.00    -0.150 NA
ATOM      5  N   UNL     1       0.849  -4.857  -1.796  0.00  0.00    -0.115 NA
ATOM      6  C   UNL     1       0.059  -4.144  -1.050  0.00  0.00    +0.227 C 
ATOM      7  O   UNL     1      -0.792  -4.463  -0.051  0.00  0.00    -0.425 OA
ATOM      8  C   UNL     1      -0.751  -3.616   1.010  0.00  0.00    +0.200 C 
ATOM      9  C   UNL     1      -0.043  -2.467   1.002  0.00  0.00    +0.095 C 
ENDROOT
BRANCH   3  10
ATOM     10  C   UNL     1       2.136  -1.679  -3.107  0.00  0.00    +0.002 A 
ATOM     11  C   UNL     1       3.421  -1.866  -3.626  0.00  0.00    +0.013 A 
ATOM     12  C   UNL     1       4.071  -0.821  -4.247  0.00  0.00    +0.050 A 
ATOM     13  C   UNL     1       3.455   0.418  -4.359  0.00  0.00    +0.166 A 
ATOM     14  C   UNL     1       2.173   0.611  -3.844  0.00  0.00    +0.167 A 
ATOM     15  C   UNL     1       1.512  -0.433  -3.226  0.00  0.00    +0.059 A 
ATOM     16  O   UNL     1       1.798   1.902  -4.082  0.00  0.00    -0.453 OA
ATOM     17  C   UNL     1       3.018   2.607  -4.381  0.00  0.00    +0.466 C 
ATOM     18  O   UNL     1       3.880   1.587  -4.919  0.00  0.00    -0.453 OA
ENDBRANCH   3  10
BRANCH   1  23
ATOM     19  C   UNL     1      -0.742   1.415  -0.691  0.00  0.00    +0.000 A 
ATOM     20  C   UNL     1       0.367   2.235  -0.593  0.00  0.00    +0.001 A 
ATOM     21  C   UNL     1       1.613   1.686  -0.354  0.00  0.00    +0.012 A 
ATOM     22  C   UNL     1       1.750   0.318  -0.213  0.00  0.00    +0.059 A 
ATOM     23  C   UNL     1       0.642  -0.502  -0.310  0.00  0.00    -0.026 A 
ATOM     24  C   UNL     1      -0.605   0.047  -0.550  0.00  0.00    +0.005 A 
BRANCH  22  25
ATOM     25  C   UNL     1       3.109  -0.280   0.046  0.00  0.00    +0.418 C 
ATOM     26  F   UNL     1       4.065   0.740   0.102  0.00  0.00    -0.166 F 
ATOM     27  F   UNL     1       3.091  -0.969   1.264  0.00  0.00    -0.166 F 
ATOM     28  F   UNL     1       3.433  -1.167  -0.986  0.00  0.00    -0.166 F 
ENDBRANCH  22  25
ENDBRANCH   1  23
BRANCH   8  29
ATOM     29  N   UNL     1      -1.460  -3.943   2.139  0.00  0.00    -0.328 N 
ATOM     30  H   UNL     1      -1.975  -4.765   2.168  0.00  0.00    +0.145 HD
ATOM     31  H   UNL     1      -1.445  -3.353   2.909  0.00  0.00    +0.145 HD
ENDBRANCH   8  29
BRANCH   9  32
ATOM     32  C   UNL     1      -0.090  -1.644   2.172  0.00  0.00    +0.100 C 
ATOM     33  N   UNL     1      -0.127  -0.990   3.101  0.00  0.00    -0.191 NA
ENDBRANCH   9  32
TORSDOF 5
