REMARK  Name = ZINC39665711
REMARK  9 active torsions:
REMARK  status: ('A' for Active; 'I' for Inactive)
REMARK    1  A    between atoms: C_1  and  C_2
REMARK    2  A    between atoms: C_2  and  C_4
REMARK    3  A    between atoms: C_2  and  O_29
REMARK    4  A    between atoms: C_4  and  N_5
REMARK    5  A    between atoms: C_6  and  C_8
REMARK    6  A    between atoms: C_19  and  C_21
REMARK    7  A    between atoms: O_29  and  C_30
REMARK    8  A    between atoms: C_33  and  O_36
REMARK    9  A    between atoms: O_36  and  C_37
REMARK                            x       y       z     vdW  Elec       q    Type
REMARK                         _______ _______ _______ _____ _____    ______ ____
ROOT
ATOM      1  C   UNL     1      -2.071  -3.227  -0.920  0.00  0.00    +0.100 C 
ATOM      2  C   UNL     1      -0.973  -3.830  -0.015  0.00  0.00    +0.121 C 
ATOM      3  N   UNL     1      -1.679  -4.199   1.234  0.00  0.00    -0.296 N 
ATOM      4  C   UNL     1      -2.981  -4.740   0.776  0.00  0.00    +0.115 C 
ATOM      5  C   UNL     1      -3.386  -3.829  -0.400  0.00  0.00    -0.004 C 
ATOM      6  C   UNL     1      -4.318  -2.724   0.088  0.00  0.00    -0.010 C 
ATOM      7  C   UNL     1      -5.641  -3.343   0.548  0.00  0.00    -0.082 C 
ATOM      8  N   UNL     1      -6.256  -4.072  -0.569  0.00  0.00    +0.379 N 
ATOM      9  C   UNL     1      -5.396  -5.191  -0.971  0.00  0.00    -0.082 C 
ATOM     10  C   UNL     1      -4.062  -4.649  -1.494  0.00  0.00    -0.010 C 
ATOM     11  C   UNL     1      -1.237  -4.072   2.501  0.00  0.00    +0.249 C 
ATOM     12  O   UNL     1      -1.900  -4.507   3.423  0.00  0.00    -0.270 OA
ATOM     13  H   UNL     1      -7.155  -4.427  -0.281  0.00  0.00    -0.086 HD
ATOM     14  H   UNL     1      -6.378  -3.445  -1.350  0.00  0.00    -0.086 HD
ENDROOT
BRANCH  11  15
ATOM     15  C   UNL     1       0.053  -3.405   2.770  0.00  0.00    +0.073 A 
ATOM     16  C   UNL     1       1.157  -3.655   1.950  0.00  0.00    +0.016 A 
ATOM     17  C   UNL     1       2.358  -3.029   2.205  0.00  0.00    +0.002 A 
ATOM     18  C   UNL     1       2.475  -2.154   3.272  0.00  0.00    +0.023 A 
ATOM     19  C   UNL     1       1.389  -1.900   4.089  0.00  0.00    +0.077 A 
ATOM     20  C   UNL     1       0.175  -2.517   3.842  0.00  0.00    +0.154 A 
ATOM     21  F   UNL     1      -0.888  -2.265   4.638  0.00  0.00    -0.203 F 
ATOM     22 CL   UNL     1       1.547  -0.801   5.424  0.00  0.00    -0.081 Cl
ENDBRANCH  11  15
BRANCH   1  24
ATOM     23  N   UNL     1      -2.615  -0.970  -1.776  0.00  0.00    -0.312 N 
ATOM     24  C   UNL     1      -2.093  -1.726  -0.789  0.00  0.00    +0.218 C 
ATOM     25  O   UNL     1      -1.641  -1.197   0.205  0.00  0.00    -0.275 OA
ATOM     26  H   UNL     1      -2.976  -1.393  -2.570  0.00  0.00    +0.149 HD
BRANCH  23  27
ATOM     27  C   UNL     1      -2.637   0.489  -1.648  0.00  0.00    +0.148 C 
BRANCH  27  29
ATOM     28  C   UNL     1      -3.300   2.625  -2.762  0.00  0.00    +0.053 C 
ATOM     29  C   UNL     1      -3.277   1.101  -2.896  0.00  0.00    +0.187 C 
BRANCH  29  30
ATOM     30  O   UNL     1      -2.517   0.735  -4.049  0.00  0.00    -0.488 OA
BRANCH  30  31
ATOM     31  C   UNL     1      -3.184   0.670  -5.232  0.00  0.00    +0.121 A 
ATOM     32  C   UNL     1      -4.512   1.062  -5.302  0.00  0.00    +0.049 A 
ATOM     33  C   UNL     1      -5.189   0.996  -6.505  0.00  0.00    +0.049 A 
ATOM     34  C   UNL     1      -4.541   0.538  -7.642  0.00  0.00    +0.120 A 
ATOM     35  C   UNL     1      -3.212   0.147  -7.572  0.00  0.00    +0.049 A 
ATOM     36  C   UNL     1      -2.533   0.217  -6.371  0.00  0.00    +0.049 A 
BRANCH  34  37
ATOM     37  O   UNL     1      -5.208   0.472  -8.825  0.00  0.00    -0.495 OA
ATOM     38  C   UNL     1      -4.477  -0.009  -9.955  0.00  0.00    +0.277 C 
ENDBRANCH  34  37
ENDBRANCH  30  31
ENDBRANCH  29  30
ENDBRANCH  27  29
ENDBRANCH  23  27
ENDBRANCH   1  24
TORSDOF 7
