REMARK  Name = ZINC35051120
REMARK  6 active torsions:
REMARK  status: ('A' for Active; 'I' for Inactive)
REMARK    1  A    between atoms: C_1  and  C_2
REMARK    2  A    between atoms: C_2  and  C_4
REMARK    3  A    between atoms: C_2  and  N_30
REMARK    4  A    between atoms: C_10  and  C_12
REMARK    5  A    between atoms: C_19  and  C_26
REMARK    6  A    between atoms: C_21  and  O_22
REMARK                            x       y       z     vdW  Elec       q    Type
REMARK                         _______ _______ _______ _____ _____    ______ ____
ROOT
ATOM      1  C   UNL     1      -3.735  -2.127  -1.338  0.00  0.00    +0.238 C 
ATOM      2  O   UNL     1      -2.700  -2.765  -1.403  0.00  0.00    -0.273 OA
ATOM      3  N   UNL     1      -4.893  -2.754  -1.265  0.00  0.00    -0.284 N 
ATOM      4  C   UNL     1      -4.943  -4.108  -1.401  0.00  0.00    +0.037 A 
ATOM      5  C   UNL     1      -6.094  -4.809  -0.998  0.00  0.00    +0.024 A 
ATOM      6  C   UNL     1      -6.157  -6.160  -1.128  0.00  0.00    +0.014 A 
ATOM      7  C   UNL     1      -5.066  -6.864  -1.668  0.00  0.00    +0.029 A 
ATOM      8  C   UNL     1      -5.112  -8.267  -1.812  0.00  0.00    +0.072 A 
ATOM      9  C   UNL     1      -4.015  -8.911  -2.348  0.00  0.00    +0.100 A 
ATOM     10  C   UNL     1      -2.901  -8.177  -2.732  0.00  0.00    +0.285 A 
ATOM     11  O   UNL     1      -2.862  -6.848  -2.594  0.00  0.00    -0.425 OA
ATOM     12  C   UNL     1      -3.906  -6.168  -2.075  0.00  0.00    +0.141 A 
ATOM     13  C   UNL     1      -3.855  -4.792  -1.943  0.00  0.00    +0.070 A 
ATOM     14  H   UNL     1      -5.709  -2.251  -1.116  0.00  0.00    +0.155 HD
ENDROOT
BRANCH   1  21
ATOM     15  C   UNL     1      -1.322  -0.441  -0.543  0.00  0.00    +0.201 C 
ATOM     16  O   UNL     1      -1.561  -1.131   0.425  0.00  0.00    -0.277 OA
ATOM     17  N   UNL     1      -2.300  -0.159  -1.427  0.00  0.00    -0.291 N 
ATOM     18  C   UNL     1      -2.148   0.657  -2.645  0.00  0.00    +0.108 C 
ATOM     19  C   UNL     1      -3.284   0.183  -3.585  0.00  0.00    +0.021 C 
ATOM     20  C   UNL     1      -4.435  -0.074  -2.578  0.00  0.00    +0.033 C 
ATOM     21  C   UNL     1      -3.693  -0.621  -1.340  0.00  0.00    +0.162 C 
BRANCH  15  23
ATOM     22  C   UNL     1       0.020   1.630  -0.782  0.00  0.00    -0.005 C 
ATOM     23  C   UNL     1       0.067   0.101  -0.758  0.00  0.00    +0.010 C 
BRANCH  23  24
ATOM     24  N   UNL     1       0.941  -0.345   0.335  0.00  0.00    +0.385 N 
ATOM     25  H   UNL     1       0.580  -0.006   1.214  0.00  0.00    -0.089 HD
ATOM     26  H   UNL     1       0.972  -1.354   0.350  0.00  0.00    -0.089 HD
ATOM     27  H   UNL     1       1.872   0.018   0.191  0.00  0.00    -0.089 HD
ENDBRANCH  23  24
ENDBRANCH  15  23
ENDBRANCH   1  21
BRANCH   8  28
ATOM     28  C   UNL     1      -6.331  -9.045  -1.389  0.00  0.00    +0.418 C 
ATOM     29  F   UNL     1      -7.418  -8.680  -2.190  0.00  0.00    -0.166 F 
ATOM     30  F   UNL     1      -6.084 -10.414  -1.533  0.00  0.00    -0.166 F 
ATOM     31  F   UNL     1      -6.623  -8.763  -0.050  0.00  0.00    -0.166 F 
ENDBRANCH   8  28
BRANCH  10  32
ATOM     32  O   UNL     1      -1.838  -8.818  -3.254  0.00  0.00    -0.480 OA
ATOM     33  H   UNL     1      -1.106  -8.233  -3.494  0.00  0.00    +0.295 HD
ENDBRANCH  10  32
TORSDOF 5
