REMARK  Name = ZINC08919537
REMARK  10 active torsions:
REMARK  status: ('A' for Active; 'I' for Inactive)
REMARK    1  A    between atoms: C_1  and  C_2
REMARK    2  A    between atoms: C_2  and  C_3
REMARK    3  A    between atoms: C_3  and  C_4
REMARK    4  A    between atoms: C_3  and  C_5
REMARK    5  A    between atoms: C_3  and  C_6
REMARK    6  A    between atoms: C_15  and  O_30
REMARK    7  A    between atoms: C_17  and  C_20
REMARK    8  A    between atoms: C_24  and  O_27
REMARK    9  A    between atoms: C_25  and  O_26
REMARK   10  A    between atoms: O_27  and  C_28
REMARK                            x       y       z     vdW  Elec       q    Type
REMARK                         _______ _______ _______ _____ _____    ______ ____
ROOT
ATOM      1  C   UNL     1       0.739  -2.027  -1.265  0.00  0.00    -0.000 C 
ATOM      2  C   UNL     1       1.455  -2.524  -2.524  0.00  0.00    +0.009 C 
ATOM      3  C   UNL     1       1.700  -4.031  -2.423  0.00  0.00    +0.037 C 
ATOM      4  C   UNL     1       0.381  -4.722  -2.099  0.00  0.00    -0.023 A 
ATOM      5  C   UNL     1      -0.660  -4.024  -1.588  0.00  0.00    -0.004 A 
ATOM      6  S   UNL     1      -1.952  -5.222  -1.378  0.00  0.00    -0.078 S 
ATOM      7  C   UNL     1      -1.128  -6.606  -1.952  0.00  0.00    +0.080 A 
ATOM      8  C   UNL     1       0.144  -6.139  -2.308  0.00  0.00    +0.068 A 
ATOM      9  C   UNL     1       1.109  -7.136  -2.840  0.00  0.00    +0.220 C 
ATOM     10  N   UNL     1       0.655  -8.320  -3.143  0.00  0.00    -0.223 NA
ATOM     11  C   UNL     1      -0.749  -8.710  -3.087  0.00  0.00    +0.227 C 
ATOM     12  N   UNL     1      -1.492  -7.925  -2.085  0.00  0.00    -0.313 N 
ATOM     13  C   UNL     1      -0.701  -2.562  -1.273  0.00  0.00    +0.046 C 
ATOM     14  H   UNL     1      -2.199  -8.317  -1.548  0.00  0.00    +0.149 HD
ENDROOT
BRANCH  11  15
ATOM     15  C   UNL     1      -1.373  -8.495  -4.442  0.00  0.00    +0.041 A 
ATOM     16  C   UNL     1      -2.702  -8.125  -4.540  0.00  0.00    +0.026 A 
ATOM     17  C   UNL     1      -3.278  -7.927  -5.781  0.00  0.00    +0.022 A 
ATOM     18  C   UNL     1      -2.527  -8.099  -6.931  0.00  0.00    +0.064 A 
ATOM     19  C   UNL     1      -1.196  -8.470  -6.839  0.00  0.00    +0.163 A 
ATOM     20  C   UNL     1      -0.615  -8.664  -5.589  0.00  0.00    +0.165 A 
ATOM     21 BR   UNL     1      -5.095  -7.420  -5.908  0.00  0.00    -0.050 Br
BRANCH  20  22
ATOM     22  O   UNL     1       0.694  -9.022  -5.494  0.00  0.00    -0.503 OA
ATOM     23  H   UNL     1       0.841  -9.978  -5.494  0.00  0.00    +0.292 HD
ENDBRANCH  20  22
BRANCH  19  24
ATOM     24  O   UNL     1      -0.456  -8.639  -7.967  0.00  0.00    -0.491 OA
ATOM     25  C   UNL     1      -1.116  -8.417  -9.215  0.00  0.00    +0.277 C 
ENDBRANCH  19  24
ENDBRANCH  11  15
BRANCH   1  26
ATOM     26  C   UNL     1       0.718  -0.497  -1.257  0.00  0.00    -0.032 C 
ATOM     27  C   UNL     1      -0.022   0.009  -2.496  0.00  0.00    +0.011 C 
ATOM     28  C   UNL     1       2.154   0.032  -1.268  0.00  0.00    +0.011 C 
BRANCH  26  30
ATOM     29  C   UNL     1      -0.019   1.526   0.010  0.00  0.00    +0.004 C 
ATOM     30  C   UNL     1       0.002  -0.004   0.002  0.00  0.00    +0.003 C 
ENDBRANCH  26  30
ENDBRANCH   1  26
BRANCH   9  31
ATOM     31  O   UNL     1       2.416  -6.825  -3.005  0.00  0.00    -0.492 OA
ATOM     32  H   UNL     1       2.951  -7.549  -3.358  0.00  0.00    +0.294 HD
ENDBRANCH   9  31
TORSDOF 6
