REMARK  Name = ZINC39533968
REMARK  8 active torsions:
REMARK  status: ('A' for Active; 'I' for Inactive)
REMARK    1  A    between atoms: C_4  and  O_32
REMARK    2  A    between atoms: C_5  and  C_7
REMARK    3  A    between atoms: C_10  and  C_13
REMARK    4  A    between atoms: C_13  and  C_15
REMARK    5  A    between atoms: C_13  and  N_18
REMARK    6  A    between atoms: C_15  and  N_16
REMARK    7  A    between atoms: C_22  and  C_25
REMARK    8  A    between atoms: C_30  and  O_31
REMARK                            x       y       z     vdW  Elec       q    Type
REMARK                         _______ _______ _______ _____ _____    ______ ____
ROOT
ATOM      1  C   UNL     1       1.297  -6.441  -0.048  0.00  0.00    +0.103 C 
ENDROOT
BRANCH   1   2
ATOM      2  N   UNL     1       1.282  -7.028   1.299  0.00  0.00    -0.297 NA
ATOM      3  C   UNL     1       2.294  -6.398   2.159  0.00  0.00    +0.066 C 
ATOM      4  C   UNL     1       2.205  -6.994   3.566  0.00  0.00    -0.066 C 
ATOM      5  N   UNL     1       2.428  -8.444   3.498  0.00  0.00    +0.385 N 
ATOM      6  C   UNL     1       1.395  -9.062   2.656  0.00  0.00    -0.023 C 
ATOM      7  C   UNL     1       1.477  -8.483   1.242  0.00  0.00    +0.074 C 
ATOM      8  H   UNL     1       3.338  -8.626   3.102  0.00  0.00    -0.085 HD
ATOM      9  H   UNL     1       2.382  -8.834   4.428  0.00  0.00    -0.085 HD
BRANCH   6  10
ATOM     10  C   UNL     1       1.615 -10.551   2.603  0.00  0.00    -0.019 A 
ATOM     11  C   UNL     1       2.850 -11.080   2.926  0.00  0.00    +0.005 A 
ATOM     12  C   UNL     1       3.052 -12.447   2.877  0.00  0.00    +0.000 A 
ATOM     13  C   UNL     1       2.019 -13.288   2.506  0.00  0.00    +0.004 A 
ATOM     14  C   UNL     1       0.783 -12.765   2.183  0.00  0.00    +0.045 A 
ATOM     15  C   UNL     1       0.576 -11.394   2.236  0.00  0.00    +0.118 A 
BRANCH  15  16
ATOM     16  O   UNL     1      -0.642 -10.877   1.925  0.00  0.00    -0.507 OA
ATOM     17  H   UNL     1      -0.749 -10.660   0.988  0.00  0.00    +0.292 HD
ENDBRANCH  15  16
ENDBRANCH   6  10
ENDBRANCH   1   2
BRANCH   1  21
ATOM     18  C   UNL     1       0.476  -2.253   0.210  0.00  0.00    -0.014 A 
ATOM     19  C   UNL     1       1.442  -2.723  -0.678  0.00  0.00    +0.009 A 
ATOM     20  C   UNL     1       1.702  -4.076  -0.757  0.00  0.00    +0.006 A 
ATOM     21  C   UNL     1       1.008  -4.965   0.043  0.00  0.00    -0.029 A 
ATOM     22  C   UNL     1       0.049  -4.504   0.927  0.00  0.00    +0.006 A 
ATOM     23  C   UNL     1      -0.217  -3.153   1.018  0.00  0.00    +0.009 A 
BRANCH  18  28
ATOM     24  C   UNL     1      -1.380   1.014   0.320  0.00  0.00    +0.001 A 
ATOM     25  C   UNL     1      -0.340   1.915   0.467  0.00  0.00    +0.004 A 
ATOM     26  C   UNL     1       0.966   1.468   0.531  0.00  0.00    +0.046 A 
ATOM     27  C   UNL     1       1.240   0.112   0.449  0.00  0.00    +0.125 A 
ATOM     28  C   UNL     1       0.192  -0.800   0.300  0.00  0.00    +0.024 A 
ATOM     29  C   UNL     1      -1.121  -0.339   0.236  0.00  0.00    +0.012 A 
BRANCH  27  30
ATOM     30  O   UNL     1       2.524  -0.328   0.511  0.00  0.00    -0.506 OA
ATOM     31  H   UNL     1       2.830  -0.522   1.408  0.00  0.00    +0.292 HD
ENDBRANCH  27  30
ENDBRANCH  18  28
ENDBRANCH   1  21
BRANCH   1  32
ATOM     32  C   UNL     1       0.229  -7.118  -0.911  0.00  0.00    +0.140 C 
BRANCH  32  33
ATOM     33  N   UNL     1       0.300  -6.590  -2.280  0.00  0.00    -0.157 NA
ATOM     34  F   UNL     1      -0.666  -7.061  -3.011  0.00  0.00    -0.136 F 
ATOM     35  H   UNL     1       1.198  -6.787  -2.697  0.00  0.00    +0.159 HD
ENDBRANCH  32  33
ENDBRANCH   1  32
TORSDOF 8
