REMARK  Name = ZINC20578649
REMARK  3 active torsions:
REMARK  status: ('A' for Active; 'I' for Inactive)
REMARK    1  A    between atoms: C_6  and  S_7
REMARK    2  A    between atoms: S_7  and  N_10
REMARK    3  A    between atoms: N_10  and  C_11
REMARK                            x       y       z     vdW  Elec       q    Type
REMARK                         _______ _______ _______ _____ _____    ______ ____
ROOT
ATOM      1  C   UNL     1       2.002  -1.894  -0.177  0.00  0.00    +0.030 A 
ATOM      2  C   UNL     1       2.096  -3.004  -0.998  0.00  0.00    +0.018 A 
ATOM      3  C   UNL     1       2.929  -2.968  -2.104  0.00  0.00    +0.029 A 
ATOM      4  C   UNL     1       3.663  -1.819  -2.392  0.00  0.00    +0.049 A 
ATOM      5  C   UNL     1       3.559  -0.711  -1.568  0.00  0.00    +0.053 A 
ATOM      6  C   UNL     1       2.727  -0.752  -0.464  0.00  0.00    +0.107 A 
ATOM      7  N   UNL     1       4.498  -1.798  -3.519  0.00  0.00    -0.284 N 
ATOM      8  C   UNL     1       4.028  -2.168  -4.716  0.00  0.00    +0.218 C 
ATOM      9  O   UNL     1       4.802  -2.331  -5.635  0.00  0.00    -0.275 OA
ATOM     10  C   UNL     1       2.561  -2.386  -4.942  0.00  0.00    +0.107 C 
ATOM     11  C   UNL     1       2.187  -3.853  -4.669  0.00  0.00    +0.083 C 
ATOM     12  S   UNL     1       3.077  -4.371  -3.163  0.00  0.00    -0.123 S 
ATOM     13  H   UNL     1       5.546  -1.476  -3.421  0.00  0.00    +0.155 HD
ENDROOT
BRANCH   6  14
ATOM     14  S   UNL     1       2.594   0.657   0.587  0.00  0.00    +0.059 S 
ATOM     15  O   UNL     1       3.790   1.405   0.416  0.00  0.00    -0.153 OA
ATOM     16  O   UNL     1       2.170   0.178   1.856  0.00  0.00    -0.153 OA
BRANCH  14  17
ATOM     17  N   UNL     1       1.362   1.593  -0.002  0.00  0.00    -0.187 NA
ATOM     18  H   UNL     1       1.603   2.518  -0.546  0.00  0.00    +0.148 HD
BRANCH  17  19
ATOM     19  C   UNL     1      -0.013   1.086   0.008  0.00  0.00    +0.077 C 
ATOM     20  C   UNL     1      -0.729   1.579   1.267  0.00  0.00    +0.020 C 
ATOM     21  C   UNL     1      -2.239   1.400   1.098  0.00  0.00    +0.002 C 
ATOM     22  C   UNL     1      -2.600  -0.076   1.276  0.00  0.00    +0.000 C 
ATOM     23  C   UNL     1      -2.205  -0.852   0.018  0.00  0.00    +0.000 C 
ATOM     24  C   UNL     1      -2.624  -0.062  -1.223  0.00  0.00    +0.000 C 
ATOM     25  C   UNL     1      -1.376   0.408  -1.973  0.00  0.00    +0.002 C 
ATOM     26  C   UNL     1      -0.752   1.593  -1.232  0.00  0.00    +0.020 C 
ENDBRANCH  17  19
ENDBRANCH  14  17
ENDBRANCH   6  14
TORSDOF 3
