REMARK  Name = ZINC39940318
REMARK  5 active torsions:
REMARK  status: ('A' for Active; 'I' for Inactive)
REMARK    1  A    between atoms: C_6  and  C_11
REMARK    2  A    between atoms: C_14  and  C_36
REMARK    3  A    between atoms: N_17  and  C_18
REMARK    4  A    between atoms: C_26  and  C_29
REMARK    5  A    between atoms: C_33  and  O_35
REMARK                            x       y       z     vdW  Elec       q    Type
REMARK                         _______ _______ _______ _____ _____    ______ ____
ROOT
ATOM      1  C   UNL     1       5.008  -2.700  -0.060  0.00  0.00    +0.123 C 
ATOM      2  C   UNL     1       5.356  -3.213   1.358  0.00  0.00    +0.058 C 
ATOM      3  C   UNL     1       5.926  -4.622   1.036  0.00  0.00    +0.179 C 
ATOM      4  N   UNL     1       5.100  -5.024  -0.131  0.00  0.00    -0.227 NA
ATOM      5  N   UNL     1       4.919  -3.904  -0.903  0.00  0.00    -0.251 N 
ATOM      6  H   UNL     1       4.215  -5.406   0.167  0.00  0.00    +0.145 HD
ENDROOT
BRANCH   5   7
ATOM      7  C   UNL     1       4.683  -3.904  -2.283  0.00  0.00    +0.104 A 
ATOM      8  C   UNL     1       4.582  -4.944  -3.116  0.00  0.00    +0.145 A 
ATOM      9  N   UNL     1       4.345  -4.745  -4.464  0.00  0.00    -0.233 N 
ATOM     10  C   UNL     1       4.205  -3.433  -4.883  0.00  0.00    +0.232 A 
ATOM     11  S   UNL     1       4.432  -2.515  -3.377  0.00  0.00    -0.029 S 
ATOM     12  N   UNL     1       3.957  -2.971  -6.064  0.00  0.00    -0.051 NA
ATOM     13  O   UNL     1       3.706  -3.851  -7.147  0.00  0.00    -0.358 OA
ATOM     14  C   UNL     1       4.742  -4.685  -7.435  0.00  0.00    +0.256 A 
ATOM     15  C   UNL     1       5.025  -5.682  -6.582  0.00  0.00    +0.100 A 
ATOM     16  N   UNL     1       4.251  -5.807  -5.407  0.00  0.00    -0.288 N 
ATOM     17  H   UNL     1       3.684  -6.579  -5.250  0.00  0.00    +0.188 HD
BRANCH  15  18
ATOM     18  C   UNL     1       6.123  -6.630  -6.866  0.00  0.00    +0.006 A 
ATOM     19  C   UNL     1       6.403  -7.666  -5.973  0.00  0.00    +0.010 A 
ATOM     20  C   UNL     1       7.428  -8.549  -6.242  0.00  0.00    +0.004 A 
ATOM     21  C   UNL     1       8.181  -8.411  -7.394  0.00  0.00    +0.045 A 
ATOM     22  C   UNL     1       7.910  -7.384  -8.287  0.00  0.00    +0.117 A 
ATOM     23  C   UNL     1       6.880  -6.495  -8.030  0.00  0.00    +0.055 A 
BRANCH  22  24
ATOM     24  O   UNL     1       8.653  -7.253  -9.418  0.00  0.00    -0.507 OA
ATOM     25  H   UNL     1       8.304  -7.740 -10.177  0.00  0.00    +0.292 HD
ENDBRANCH  22  24
ENDBRANCH  15  18
ENDBRANCH   5   7
BRANCH   1  31
ATOM     26  C   UNL     1      -0.016   1.357   0.009  0.00  0.00    +0.001 A 
ATOM     27  C   UNL     1       1.169   2.091   0.002  0.00  0.00    +0.001 A 
ATOM     28  C   UNL     1       2.378   1.468  -0.013  0.00  0.00    +0.008 A 
ATOM     29  C   UNL     1       2.438   0.063  -0.021  0.00  0.00    -0.018 A 
ATOM     30  C   UNL     1       3.668  -0.615  -0.036  0.00  0.00    +0.014 A 
ATOM     31  C   UNL     1       3.687  -1.976  -0.043  0.00  0.00    -0.025 A 
ATOM     32  C   UNL     1       2.502  -2.710  -0.036  0.00  0.00    +0.006 A 
ATOM     33  C   UNL     1       1.292  -2.087  -0.021  0.00  0.00    +0.009 A 
ATOM     34  C   UNL     1       1.233  -0.683  -0.013  0.00  0.00    -0.018 A 
ATOM     35  C   UNL     1       0.002  -0.004   0.002  0.00  0.00    +0.008 A 
ENDBRANCH   1  31
BRANCH   3  36
ATOM     36  C   UNL     1       5.718  -5.578   2.212  0.00  0.00    +0.406 C 
ATOM     37  F   UNL     1       4.349  -5.698   2.478  0.00  0.00    -0.169 F 
ATOM     38  F   UNL     1       6.242  -6.835   1.889  0.00  0.00    -0.169 F 
ATOM     39  F   UNL     1       6.371  -5.077   3.343  0.00  0.00    -0.169 F 
ENDBRANCH   3  36
TORSDOF 5
