REMARK  Name = ZINC38740038
REMARK  6 active torsions:
REMARK  status: ('A' for Active; 'I' for Inactive)
REMARK    1  A    between atoms: C_1  and  C_2
REMARK    2  A    between atoms: C_7  and  C_8
REMARK    3  A    between atoms: C_7  and  C_9
REMARK    4  A    between atoms: C_11  and  N_13
REMARK    5  A    between atoms: C_14  and  C_16
REMARK    6  A    between atoms: C_22  and  C_24
REMARK                            x       y       z     vdW  Elec       q    Type
REMARK                         _______ _______ _______ _____ _____    ______ ____
ROOT
ATOM      1  C   UNL     1      -3.981  -0.919  -2.772  0.00  0.00    +0.087 C 
ATOM      2  C   UNL     1      -3.728   0.398  -3.508  0.00  0.00    +0.013 C 
ATOM      3  C   UNL     1      -4.347   0.329  -4.906  0.00  0.00    +0.001 C 
ATOM      4  C   UNL     1      -5.854   0.093  -4.785  0.00  0.00    +0.001 C 
ATOM      5  C   UNL     1      -6.107  -1.224  -4.050  0.00  0.00    +0.013 C 
ATOM      6  C   UNL     1      -5.488  -1.155  -2.652  0.00  0.00    +0.087 C 
ENDROOT
BRANCH   6   7
ATOM      7  C   UNL     1      -5.737  -2.453  -1.928  0.00  0.00    +0.219 C 
ATOM      8  O   UNL     1      -4.902  -3.331  -1.953  0.00  0.00    -0.275 OA
ATOM      9  N   UNL     1      -6.889  -2.636  -1.252  0.00  0.00    -0.298 N 
ATOM     10  C   UNL     1      -7.961  -1.633  -1.313  0.00  0.00    +0.126 C 
ATOM     11  C   UNL     1      -9.250  -2.321  -1.777  0.00  0.00    +0.125 C 
ATOM     12  N   UNL     1      -9.456  -3.529  -0.966  0.00  0.00    -0.314 N 
ATOM     13  C   UNL     1      -8.384  -4.533  -0.905  0.00  0.00    +0.125 C 
ATOM     14  C   UNL     1      -7.097  -3.847  -0.445  0.00  0.00    +0.126 C 
ATOM     15  C   UNL     1     -10.644  -3.719  -0.269  0.00  0.00    +0.099 A 
ATOM     16  C   UNL     1     -11.594  -2.703  -0.236  0.00  0.00    +0.042 A 
ATOM     17  C   UNL     1     -12.771  -2.905   0.462  0.00  0.00    +0.005 A 
ATOM     18  C   UNL     1     -12.959  -4.121   1.106  0.00  0.00    +0.018 A 
ATOM     19  C   UNL     1     -11.974  -5.085   1.032  0.00  0.00    +0.084 A 
ATOM     20  N   UNL     1     -10.863  -4.867   0.354  0.00  0.00    -0.350 N 
ATOM     21  H   UNL     1     -10.188  -5.562   0.315  0.00  0.00    +0.166 HD
ENDBRANCH   6   7
BRANCH   1  23
ATOM     22  N   UNL     1      -2.047  -0.648  -1.254  0.00  0.00    -0.312 N 
ATOM     23  C   UNL     1      -3.372  -0.851  -1.396  0.00  0.00    +0.217 C 
ATOM     24  O   UNL     1      -4.074  -0.978  -0.415  0.00  0.00    -0.275 OA
ATOM     25  H   UNL     1      -1.486  -0.547  -2.039  0.00  0.00    +0.149 HD
BRANCH  22  35
ATOM     26  C   UNL     1      -2.787   1.371   1.210  0.00  0.00    +0.013 C 
ATOM     27  C   UNL     1      -1.465   0.885   0.611  0.00  0.00    -0.008 C 
ATOM     28  C   UNL     1      -0.890   1.744  -0.556  0.00  0.00    +0.009 C 
ATOM     29  C   UNL     1       0.610   1.371  -0.613  0.00  0.00    +0.005 C 
ATOM     30  C   UNL     1       0.798   0.323   0.526  0.00  0.00    -0.003 C 
ATOM     31  C   UNL     1      -0.233   0.853   1.583  0.00  0.00    -0.025 C 
ATOM     32  C   UNL     1      -0.435  -0.135   2.733  0.00  0.00    +0.012 C 
ATOM     33  C   UNL     1       0.133   2.249   2.091  0.00  0.00    +0.012 C 
ATOM     34  C   UNL     1       0.075  -0.956   0.003  0.00  0.00    +0.027 C 
ATOM     35  C   UNL     1      -1.455  -0.582   0.084  0.00  0.00    +0.080 C 
ENDBRANCH  22  35
ENDBRANCH   1  23
TORSDOF 3
