REMARK  Name = ZINC39661318
REMARK  6 active torsions:
REMARK  status: ('A' for Active; 'I' for Inactive)
REMARK    1  A    between atoms: C_1  and  C_2
REMARK    2  A    between atoms: C_2  and  N_3
REMARK    3  A    between atoms: C_4  and  C_10
REMARK    4  A    between atoms: C_6  and  C_8
REMARK    5  A    between atoms: C_14  and  C_23
REMARK    6  A    between atoms: N_25  and  C_26
REMARK                            x       y       z     vdW  Elec       q    Type
REMARK                         _______ _______ _______ _____ _____    ______ ____
ROOT
ATOM      1  C   UNL     1      -1.468  -0.456  -2.923  0.00  0.00    +0.266 C 
ATOM      2  O   UNL     1      -1.821  -0.762  -4.046  0.00  0.00    -0.268 OA
ATOM      3  N   UNL     1      -2.349   0.098  -2.066  0.00  0.00    -0.295 N 
ATOM      4  C   UNL     1      -2.135   0.445  -0.642  0.00  0.00    +0.121 C 
ATOM      5  C   UNL     1      -2.871   1.790  -0.453  0.00  0.00    +0.100 C 
ATOM      6  C   UNL     1      -3.931   1.817  -1.567  0.00  0.00    -0.004 C 
ATOM      7  C   UNL     1      -3.749   0.502  -2.339  0.00  0.00    +0.115 C 
ATOM      8  C   UNL     1      -5.331   1.888  -0.964  0.00  0.00    -0.010 C 
ATOM      9  C   UNL     1      -6.364   1.972  -2.091  0.00  0.00    -0.082 C 
ATOM     10  N   UNL     1      -6.102   3.162  -2.909  0.00  0.00    +0.379 N 
ATOM     11  C   UNL     1      -4.792   3.043  -3.561  0.00  0.00    -0.082 C 
ATOM     12  C   UNL     1      -3.692   3.004  -2.496  0.00  0.00    -0.010 C 
ATOM     13  H   UNL     1      -6.820   3.248  -3.613  0.00  0.00    -0.086 HD
ATOM     14  H   UNL     1      -6.111   3.982  -2.321  0.00  0.00    -0.086 HD
ENDROOT
BRANCH   1  16
ATOM     15  N   UNL     1       0.930   0.233  -2.449  0.00  0.00    -0.258 N 
ATOM     16  C   UNL     1      -0.079  -0.689  -2.500  0.00  0.00    +0.138 A 
ATOM     17  C   UNL     1       0.470  -1.887  -2.072  0.00  0.00    +0.071 A 
ATOM     18  C   UNL     1       1.808  -1.599  -1.785  0.00  0.00    +0.075 A 
ATOM     19  N   UNL     1       2.008  -0.330  -2.035  0.00  0.00    -0.175 NA
ATOM     20  C   UNL     1       2.838  -2.577  -1.282  0.00  0.00    +0.069 C 
ATOM     21 BR   UNL     1      -0.403  -3.556  -1.911  0.00  0.00    -0.046 Br
BRANCH  15  23
ATOM     22  C   UNL     1       0.991   1.799  -4.326  0.00  0.00    +0.029 C 
ATOM     23  C   UNL     1       0.802   1.645  -2.816  0.00  0.00    +0.141 C 
ENDBRANCH  15  23
ENDBRANCH   1  16
BRANCH   5  24
ATOM     24  C   UNL     1      -3.529   1.844   0.901  0.00  0.00    +0.219 C 
ATOM     25  O   UNL     1      -3.836   0.816   1.467  0.00  0.00    -0.275 OA
ATOM     26  N   UNL     1      -3.776   3.034   1.484  0.00  0.00    -0.304 N 
ATOM     27  H   UNL     1      -3.600   3.856   1.001  0.00  0.00    +0.149 HD
BRANCH  26  28
ATOM     28  C   UNL     1      -4.309   3.085   2.848  0.00  0.00    +0.151 C 
ATOM     29  C   UNL     1      -3.882   4.401   3.500  0.00  0.00    +0.042 C 
ATOM     30  C   UNL     1      -4.880   4.706   4.643  0.00  0.00    +0.079 C 
ATOM     31  S   UNL     1      -6.414   3.919   4.017  0.00  0.00    -0.086 S 
ATOM     32  C   UNL     1      -5.812   2.944   2.793  0.00  0.00    +0.209 C 
ATOM     33  O   UNL     1      -6.454   2.263   2.021  0.00  0.00    -0.283 OA
ENDBRANCH  26  28
ENDBRANCH   5  24
TORSDOF 4
