REMARK  Name = ZINC04657270
REMARK  3 active torsions:
REMARK  status: ('A' for Active; 'I' for Inactive)
REMARK    1  A    between atoms: C_1  and  C_2
REMARK    2  A    between atoms: C_5  and  C_16
REMARK    3  A    between atoms: C_10  and  C_12
REMARK                            x       y       z     vdW  Elec       q    Type
REMARK                         _______ _______ _______ _____ _____    ______ ____
ROOT
ATOM      1  C   UNL     1      -0.019   1.526   0.010  0.00  0.00    +0.028 C 
ATOM      2  C   UNL     1       0.002  -0.004   0.002  0.00  0.00    +0.071 C 
ATOM      3  C   UNL     1       0.727  -0.502  -1.253  0.00  0.00    +0.054 C 
ATOM      4  C   UNL     1       2.141   0.088  -1.308  0.00  0.00    +0.177 C 
ATOM      5  N   UNL     1       2.796  -0.130  -0.016  0.00  0.00    -0.241 N 
ATOM      6  C   UNL     1       2.121  -0.404   1.140  0.00  0.00    +0.118 A 
ATOM      7  C   UNL     1       3.024  -0.549   2.130  0.00  0.00    +0.080 A 
ATOM      8  C   UNL     1       4.308  -0.355   1.569  0.00  0.00    +0.175 A 
ATOM      9  N   UNL     1       4.159  -0.103   0.279  0.00  0.00    -0.162 NA
ATOM     10  N   UNL     1       0.723  -0.497   1.192  0.00  0.00    -0.327 N 
ATOM     11  H   UNL     1       0.257  -0.863   1.960  0.00  0.00    +0.148 HD
ENDROOT
BRANCH   8  12
ATOM     12  C   UNL     1       5.588  -0.422   2.295  0.00  0.00    +0.406 C 
ATOM     13  O   UNL     1       5.599  -0.664   3.494  0.00  0.00    -0.239 OA
ATOM     14  O   UNL     1       6.640  -0.236   1.699  0.00  0.00    -0.239 OA
ENDBRANCH   8  12
BRANCH   4  15
ATOM     15  C   UNL     1       2.941  -0.602  -2.415  0.00  0.00    +0.365 C 
ATOM     16  F   UNL     1       4.231  -0.061  -2.463  0.00  0.00    -0.207 F 
ATOM     17  F   UNL     1       3.020  -1.973  -2.148  0.00  0.00    -0.207 F 
ENDBRANCH   4  15
TORSDOF 2
