REMARK  Name = ZINC12578923
REMARK  4 active torsions:
REMARK  status: ('A' for Active; 'I' for Inactive)
REMARK    1  A    between atoms: C_1  and  C_2
REMARK    2  A    between atoms: C_5  and  C_22
REMARK    3  A    between atoms: C_6  and  C_17
REMARK    4  A    between atoms: N_9  and  C_11
REMARK                            x       y       z     vdW  Elec       q    Type
REMARK                         _______ _______ _______ _____ _____    ______ ____
ROOT
ATOM      1  C   UNL     1       0.790   6.737  -0.233  0.00  0.00    +0.068 C 
ATOM      2  C   UNL     1      -0.211   5.635   0.001  0.00  0.00    +0.070 A 
ATOM      3  C   UNL     1       0.063   4.202  -0.029  0.00  0.00    +0.043 A 
ATOM      4  C   UNL     1       1.212   3.439  -0.259  0.00  0.00    +0.027 A 
ATOM      5  C   UNL     1       1.100   2.053  -0.208  0.00  0.00    +0.047 A 
ATOM      6  C   UNL     1      -0.160   1.475   0.071  0.00  0.00    +0.119 A 
ATOM      7  N   UNL     1      -1.228   2.231   0.278  0.00  0.00    -0.223 NA
ATOM      8  C   UNL     1      -1.162   3.555   0.243  0.00  0.00    +0.164 A 
ATOM      9  N   UNL     1      -2.094   4.545   0.421  0.00  0.00    -0.214 N 
ATOM     10  N   UNL     1      -1.477   5.790   0.266  0.00  0.00    -0.169 NA
ENDROOT
BRANCH   5  11
ATOM     11  C   UNL     1       2.280   1.197  -0.443  0.00  0.00    +0.141 A 
ATOM     12  N   UNL     1       3.567   1.648  -0.573  0.00  0.00    -0.338 N 
ATOM     13  H   UNL     1       3.870   2.600  -0.527  0.00  0.00    +0.167 HD
ATOM     14  C   UNL     1       4.368   0.542  -0.780  0.00  0.00    +0.066 A 
ATOM     15  C   UNL     1       5.730   0.362  -0.977  0.00  0.00    +0.028 A 
ATOM     16  C   UNL     1       6.233  -0.909  -1.159  0.00  0.00    +0.002 A 
ATOM     17  C   UNL     1       5.387  -2.009  -1.147  0.00  0.00    +0.002 A 
ATOM     18  C   UNL     1       4.044  -1.852  -0.954  0.00  0.00    +0.030 A 
ATOM     19  C   UNL     1       3.511  -0.573  -0.767  0.00  0.00    +0.089 A 
ATOM     20  N   UNL     1       2.255  -0.109  -0.552  0.00  0.00    -0.228 NA
ENDBRANCH   5  11
BRANCH   9  21
ATOM     21  C   UNL     1      -3.448   4.341   0.713  0.00  0.00    +0.068 A 
ATOM     22  C   UNL     1      -4.121   3.256   0.167  0.00  0.00    +0.028 A 
ATOM     23  C   UNL     1      -5.456   3.054   0.461  0.00  0.00    +0.002 A 
ATOM     24  C   UNL     1      -6.124   3.938   1.288  0.00  0.00    +0.000 A 
ATOM     25  C   UNL     1      -5.458   5.023   1.829  0.00  0.00    +0.002 A 
ATOM     26  C   UNL     1      -4.122   5.227   1.543  0.00  0.00    +0.028 A 
ENDBRANCH   9  21
BRANCH   6  27
ATOM     27  C   UNL     1      -0.289   0.009   0.126  0.00  0.00    +0.154 A 
ATOM     28  C   UNL     1      -1.276  -0.730  -0.453  0.00  0.00    +0.051 A 
ATOM     29  C   UNL     1      -1.005  -2.077  -0.150  0.00  0.00    +0.042 A 
ATOM     30  C   UNL     1       0.117  -2.096   0.599  0.00  0.00    +0.196 A 
ATOM     31  O   UNL     1       0.546  -0.836   0.763  0.00  0.00    -0.461 OA
ENDBRANCH   6  27
TORSDOF 3
