REMARK  Name = ZINC39999226
REMARK  12 active torsions:
REMARK  status: ('A' for Active; 'I' for Inactive)
REMARK    1  A    between atoms: C_1  and  C_2
REMARK    2  A    between atoms: C_2  and  C_3
REMARK    3  A    between atoms: C_3  and  C_4
REMARK    4  A    between atoms: C_4  and  C_5
REMARK    5  A    between atoms: C_5  and  C_7
REMARK    6  A    between atoms: C_5  and  C_9
REMARK    7  A    between atoms: C_7  and  C_8
REMARK    8  A    between atoms: C_9  and  N_10
REMARK    9  A    between atoms: C_14  and  C_15
REMARK   10  A    between atoms: C_16  and  O_27
REMARK   11  A    between atoms: C_21  and  C_26
REMARK   12  A    between atoms: O_27  and  C_28
REMARK                            x       y       z     vdW  Elec       q    Type
REMARK                         _______ _______ _______ _____ _____    ______ ____
ROOT
ATOM      1  C   UNL     1       1.909  -5.644  -8.722  0.00  0.00    +0.103 A 
ATOM      2  C   UNL     1       3.243  -5.207  -8.879  0.00  0.00    +0.235 A 
ATOM      3  N   UNL     1       3.969  -5.671  -9.883  0.00  0.00    -0.194 NA
ATOM      4  C   UNL     1       3.474  -6.547 -10.759  0.00  0.00    +0.144 A 
ATOM      5  C   UNL     1       4.292  -7.006 -11.806  0.00  0.00    +0.047 A 
ATOM      6  C   UNL     1       3.795  -7.901 -12.706  0.00  0.00    +0.008 A 
ATOM      7  C   UNL     1       2.474  -8.352 -12.574  0.00  0.00    -0.034 A 
ATOM      8  C   UNL     1       1.701  -7.901 -11.561  0.00  0.00    +0.099 A 
ATOM      9  N   UNL     1       2.190  -7.006 -10.656  0.00  0.00    -0.267 N 
ATOM     10  C   UNL     1       1.394  -6.578  -9.652  0.00  0.00    +0.269 A 
ATOM     11  O   UNL     1       0.249  -6.986  -9.552  0.00  0.00    -0.266 OA
ATOM     12  C   UNL     1       1.915  -9.341 -13.564  0.00  0.00    +0.045 C 
ENDROOT
BRANCH   1  17
ATOM     13  N   UNL     1       1.508  -5.186  -4.015  0.00  0.00    -0.255 N 
ATOM     14  C   UNL     1       0.894  -4.920  -5.155  0.00  0.00    +0.258 C 
ATOM     15  O   UNL     1      -0.183  -4.351  -5.169  0.00  0.00    -0.269 OA
ATOM     16  C   UNL     1       1.528  -5.319  -6.367  0.00  0.00    +0.077 C 
ATOM     17  C   UNL     1       1.110  -5.165  -7.657  0.00  0.00    +0.039 C 
ATOM     18  S   UNL     1       3.020  -6.076  -5.738  0.00  0.00    -0.061 S 
ATOM     19  C   UNL     1       2.705  -5.813  -4.000  0.00  0.00    +0.121 C 
ATOM     20  S   UNL     1       3.672  -6.246  -2.655  0.00  0.00    -0.027 S 
BRANCH  13  21
ATOM     21  C   UNL     1       0.883  -4.790  -2.750  0.00  0.00    +0.118 C 
BRANCH  21  22
ATOM     22  C   UNL     1       1.444  -3.437  -2.306  0.00  0.00    +0.007 C 
BRANCH  22  23
ATOM     23  C   UNL     1       0.817  -3.039  -0.969  0.00  0.00    +0.002 C 
ATOM     24  C   UNL     1       1.269  -4.017   0.117  0.00  0.00    +0.004 C 
ENDBRANCH  22  23
BRANCH  22  25
ATOM     25  C   UNL     1       1.113  -2.378  -3.360  0.00  0.00    +0.005 C 
BRANCH  25  26
ATOM     26  C   UNL     1       1.779  -1.054  -2.979  0.00  0.00    +0.000 C 
BRANCH  26  28
ATOM     27  C   UNL     1       2.113   1.329  -3.651  0.00  0.00    +0.004 C 
ATOM     28  C   UNL     1       1.448   0.005  -4.032  0.00  0.00    -0.003 C 
ENDBRANCH  26  28
ENDBRANCH  25  26
ENDBRANCH  22  25
ENDBRANCH  21  22
ENDBRANCH  13  21
ENDBRANCH   1  17
BRANCH   2  29
ATOM     29  O   UNL     1       3.776  -4.319  -8.009  0.00  0.00    -0.434 OA
BRANCH  29  30
ATOM     30  C   UNL     1       5.025  -3.847  -8.262  0.00  0.00    +0.165 A 
ATOM     31  C   UNL     1       6.129  -4.460  -7.687  0.00  0.00    +0.049 A 
ATOM     32  C   UNL     1       7.398  -3.979  -7.947  0.00  0.00    +0.004 A 
ATOM     33  C   UNL     1       7.570  -2.888  -8.778  0.00  0.00    +0.003 A 
ATOM     34  C   UNL     1       6.472  -2.274  -9.354  0.00  0.00    +0.042 A 
ATOM     35  C   UNL     1       5.200  -2.754  -9.102  0.00  0.00    +0.165 A 
ATOM     36  F   UNL     1       4.128  -2.158  -9.668  0.00  0.00    -0.202 F 
ENDBRANCH  29  30
ENDBRANCH   2  29
TORSDOF 9
