REMARK  Name = ZINC06731132
REMARK  4 active torsions:
REMARK  status: ('A' for Active; 'I' for Inactive)
REMARK    1  A    between atoms: C_2  and  C_3
REMARK    2  A    between atoms: C_3  and  N_4
REMARK    3  A    between atoms: C_5  and  C_7
REMARK    4  A    between atoms: C_16  and  C_18
REMARK                            x       y       z     vdW  Elec       q    Type
REMARK                         _______ _______ _______ _____ _____    ______ ____
ROOT
ATOM      1  C   UNL     1       0.631  -2.235  -1.069  0.00  0.00    +0.092 C 
ATOM      2  C   UNL     1       1.451  -2.776  -2.280  0.00  0.00    +0.002 C 
ATOM      3  C   UNL     1       1.236  -4.320  -2.239  0.00  0.00    +0.004 C 
ATOM      4  C   UNL     1       2.022  -4.790  -0.994  0.00  0.00    +0.004 C 
ATOM      5  C   UNL     1       2.637  -3.487  -0.400  0.00  0.00    +0.004 C 
ATOM      6  C   UNL     1       2.910  -2.671  -1.712  0.00  0.00    +0.008 C 
ATOM      7  C   UNL     1       1.414  -2.706   0.178  0.00  0.00    +0.117 C 
ENDROOT
BRANCH   1   9
ATOM      8  N   UNL     1      -0.073  -0.057  -0.132  0.00  0.00    -0.312 N 
ATOM      9  C   UNL     1       0.564  -0.730  -1.110  0.00  0.00    +0.217 C 
ATOM     10  O   UNL     1       1.084  -0.124  -2.023  0.00  0.00    -0.275 OA
ATOM     11  H   UNL     1      -0.489  -0.541   0.599  0.00  0.00    +0.149 HD
BRANCH   8  12
ATOM     12  C   UNL     1      -0.139   1.406  -0.171  0.00  0.00    +0.131 C 
BRANCH  12  14
ATOM     13  C   UNL     1      -0.354   2.787   1.831  0.00  0.00    +0.005 C 
ATOM     14  C   UNL     1      -0.900   1.908   1.028  0.00  0.00    -0.016 C 
ENDBRANCH  12  14
ENDBRANCH   8  12
ENDBRANCH   1   9
BRANCH   7  15
ATOM     15  C   UNL     1       0.559  -3.615   1.023  0.00  0.00    +0.360 C 
ATOM     16  O   UNL     1      -0.383  -4.189   0.529  0.00  0.00    -0.246 OA
ATOM     17  O   UNL     1       0.844  -3.787   2.323  0.00  0.00    -0.246 OA
ENDBRANCH   7  15
TORSDOF 4
