REMARK  Name = ZINC12749939
REMARK  8 active torsions:
REMARK  status: ('A' for Active; 'I' for Inactive)
REMARK    1  A    between atoms: C_1  and  C_2
REMARK    2  A    between atoms: C_2  and  C_4
REMARK    3  A    between atoms: C_2  and  N_54
REMARK    4  A    between atoms: N_6  and  C_7
REMARK    5  A    between atoms: C_10  and  N_13
REMARK    6  A    between atoms: C_18  and  C_21
REMARK    7  A    between atoms: N_23  and  C_24
REMARK    8  A    between atoms: C_29  and  O_30
REMARK                            x       y       z     vdW  Elec       q    Type
REMARK                         _______ _______ _______ _____ _____    ______ ____
ROOT
ATOM      1  C   UNL     1      -5.658   0.980   0.065  0.00  0.00    -0.077 C 
ATOM      2  C   UNL     1      -4.595   2.016  -0.308  0.00  0.00    -0.006 C 
ATOM      3  C   UNL     1      -3.222   1.339  -0.348  0.00  0.00    +0.072 C 
ATOM      4  C   UNL     1      -3.261   0.183  -1.351  0.00  0.00    -0.006 C 
ATOM      5  C   UNL     1      -4.362  -0.799  -0.948  0.00  0.00    -0.077 C 
ATOM      6  N   UNL     1      -5.661  -0.092  -0.952  0.00  0.00    +0.387 N 
ATOM      7  H   UNL     1      -5.809   0.327  -1.877  0.00  0.00    -0.081 HD
ENDROOT
BRANCH   3   8
ATOM      8  C   UNL     1      -2.179   2.340  -0.773  0.00  0.00    +0.220 C 
ATOM      9  O   UNL     1      -2.501   3.483  -1.020  0.00  0.00    -0.275 OA
ATOM     10  N   UNL     1      -0.889   1.966  -0.879  0.00  0.00    -0.282 N 
ATOM     11  H   UNL     1      -0.643   1.035  -0.763  0.00  0.00    +0.155 HD
BRANCH  10  12
ATOM     12  C   UNL     1       0.097   2.921  -1.162  0.00  0.00    +0.075 A 
ATOM     13  C   UNL     1      -0.131   4.260  -0.881  0.00  0.00    +0.027 A 
ATOM     14  C   UNL     1       0.843   5.200  -1.161  0.00  0.00    +0.002 A 
ATOM     15  C   UNL     1       2.045   4.809  -1.721  0.00  0.00    +0.004 A 
ATOM     16  C   UNL     1       2.279   3.476  -2.004  0.00  0.00    +0.047 A 
ATOM     17  C   UNL     1       1.310   2.527  -1.721  0.00  0.00    +0.138 A 
BRANCH  17  18
ATOM     18  O   UNL     1       1.542   1.215  -1.993  0.00  0.00    -0.505 OA
ATOM     19  H   UNL     1       1.271   0.943  -2.881  0.00  0.00    +0.292 HD
ENDBRANCH  17  18
ENDBRANCH  10  12
ENDBRANCH   3   8
BRANCH   6  21
ATOM     20  C   UNL     1      -6.763  -1.444   0.800  0.00  0.00    -0.004 C 
ATOM     21  C   UNL     1      -6.755  -1.046  -0.677  0.00  0.00    +0.016 C 
BRANCH  21  22
ATOM     22  C   UNL     1      -8.067  -0.391  -1.027  0.00  0.00    +0.203 C 
ATOM     23  O   UNL     1      -8.099   0.789  -1.308  0.00  0.00    -0.277 OA
ATOM     24  N   UNL     1      -9.203  -1.116  -1.029  0.00  0.00    -0.287 N 
ATOM     25  H   UNL     1      -9.188  -2.042  -0.741  0.00  0.00    +0.155 HD
BRANCH  24  26
ATOM     26  C   UNL     1     -10.404  -0.533  -1.447  0.00  0.00    +0.033 A 
ATOM     27  C   UNL     1     -11.604  -0.919  -0.866  0.00  0.00    +0.025 A 
ATOM     28  C   UNL     1     -12.788  -0.338  -1.277  0.00  0.00    +0.034 A 
ATOM     29  C   UNL     1     -12.780   0.620  -2.274  0.00  0.00    +0.126 A 
ATOM     30  C   UNL     1     -11.586   1.003  -2.859  0.00  0.00    +0.034 A 
ATOM     31  C   UNL     1     -10.399   0.430  -2.448  0.00  0.00    +0.025 A 
BRANCH  29  32
ATOM     32  N   UNL     1     -14.050   1.237  -2.716  0.00  0.00    +0.056 N 
ATOM     33  O   UNL     1     -14.044   2.082  -3.594  0.00  0.00    -0.126 OA
ATOM     34  O   UNL     1     -15.102   0.900  -2.202  0.00  0.00    -0.126 OA
ENDBRANCH  29  32
ENDBRANCH  24  26
ENDBRANCH  21  22
ENDBRANCH   6  21
TORSDOF 7
