REMARK  Name = ZINC63375912
REMARK  8 active torsions:
REMARK  status: ('A' for Active; 'I' for Inactive)
REMARK    1  A    between atoms: C_1  and  O_2
REMARK    2  A    between atoms: O_2  and  C_3
REMARK    3  A    between atoms: C_3  and  C_4
REMARK    4  A    between atoms: C_4  and  C_5
REMARK    5  A    between atoms: C_5  and  N_6
REMARK    6  A    between atoms: C_7  and  C_9
REMARK    7  A    between atoms: C_14  and  N_15
REMARK    8  A    between atoms: C_31  and  C_36
REMARK                            x       y       z     vdW  Elec       q    Type
REMARK                         _______ _______ _______ _____ _____    ______ ____
ROOT
ATOM      1  N   UNL     1       3.078  -6.621   5.027  0.00  0.00    -0.192 N 
ATOM      2  C   UNL     1       2.462  -6.319   6.189  0.00  0.00    +0.248 C 
ATOM      3  O   UNL     1       1.292  -6.480   6.460  0.00  0.00    -0.273 OA
ATOM      4  C   UNL     1       3.536  -5.738   7.083  0.00  0.00    +0.169 C 
ATOM      5  C   UNL     1       3.154  -4.306   7.497  0.00  0.00    +0.065 C 
ATOM      6  C   UNL     1       4.445  -3.597   7.829  0.00  0.00    -0.034 C 
ATOM      7  C   UNL     1       4.686  -2.320   8.107  0.00  0.00    -0.001 A 
ATOM      8  C   UNL     1       3.784  -1.169   8.278  0.00  0.00    +0.010 A 
ATOM      9  C   UNL     1       4.379   0.023   8.547  0.00  0.00    +0.001 A 
ATOM     10  C   UNL     1       5.763   0.184   8.659  0.00  0.00    +0.002 A 
ATOM     11  C   UNL     1       6.666  -0.820   8.523  0.00  0.00    +0.026 A 
ATOM     12  C   UNL     1       6.161  -2.123   8.245  0.00  0.00    +0.043 A 
ATOM     13  N   UNL     1       6.786  -3.252   8.086  0.00  0.00    -0.375 N 
ATOM     14  C   UNL     1       5.792  -4.308   7.882  0.00  0.00    +0.131 C 
ATOM     15  C   UNL     1       5.985  -5.009   6.531  0.00  0.00    +0.135 C 
ATOM     16  N   UNL     1       4.718  -5.680   6.198  0.00  0.00    -0.264 N 
ATOM     17  C   UNL     1       4.375  -6.284   5.053  0.00  0.00    +0.317 C 
ATOM     18  O   UNL     1       5.150  -6.498   4.141  0.00  0.00    -0.252 OA
ATOM     19  H   UNL     1       7.748  -3.374   8.101  0.00  0.00    +0.160 HD
ENDROOT
BRANCH   1  25
ATOM     20  C   UNL     1       1.848  -6.420   2.947  0.00  0.00    +0.059 A 
ATOM     21  C   UNL     1       1.221  -7.027   1.857  0.00  0.00    +0.015 A 
ATOM     22  C   UNL     1       1.188  -8.402   1.761  0.00  0.00    +0.001 A 
ATOM     23  C   UNL     1       1.774  -9.186   2.742  0.00  0.00    +0.002 A 
ATOM     24  C   UNL     1       2.397  -8.599   3.825  0.00  0.00    +0.025 A 
ATOM     25  C   UNL     1       2.444  -7.216   3.935  0.00  0.00    +0.058 A 
BRANCH  20  27
ATOM     26  N   UNL     1       1.312  -4.188   2.103  0.00  0.00    -0.311 N 
ATOM     27  C   UNL     1       1.887  -4.949   3.055  0.00  0.00    +0.246 C 
ATOM     28  O   UNL     1       2.438  -4.424   4.004  0.00  0.00    -0.270 OA
ATOM     29  H   UNL     1       0.873  -4.606   1.347  0.00  0.00    +0.149 HD
BRANCH  26  30
ATOM     30  C   UNL     1       1.351  -2.727   2.211  0.00  0.00    +0.107 C 
BRANCH  30  31
ATOM     31  C   UNL     1       0.633  -2.108   1.011  0.00  0.00    +0.047 C 
BRANCH  31  32
ATOM     32  C   UNL     1       0.673  -0.582   1.123  0.00  0.00    +0.161 C 
BRANCH  32  34
ATOM     33  C   UNL     1      -0.017   1.425   0.010  0.00  0.00    +0.193 C 
ATOM     34  O   UNL     1       0.002  -0.004   0.002  0.00  0.00    -0.383 OA
ENDBRANCH  32  34
ENDBRANCH  31  32
ENDBRANCH  30  31
ENDBRANCH  26  30
ENDBRANCH  20  27
ENDBRANCH   1  25
BRANCH  15  35
ATOM     35  C   UNL     1       7.076  -6.042   6.641  0.00  0.00    -0.025 A 
ATOM     36  C   UNL     1       6.803  -7.280   7.192  0.00  0.00    +0.005 A 
ATOM     37  C   UNL     1       7.804  -8.227   7.293  0.00  0.00    +0.000 A 
ATOM     38  C   UNL     1       9.079  -7.938   6.841  0.00  0.00    +0.000 A 
ATOM     39  C   UNL     1       9.351  -6.701   6.288  0.00  0.00    +0.000 A 
ATOM     40  C   UNL     1       8.349  -5.754   6.184  0.00  0.00    +0.005 A 
ENDBRANCH  15  35
TORSDOF 7
