REMARK  Name = ZINC39596309
REMARK  9 active torsions:
REMARK  status: ('A' for Active; 'I' for Inactive)
REMARK    1  A    between atoms: C_1  and  C_2
REMARK    2  A    between atoms: C_2  and  C_4
REMARK    3  A    between atoms: C_2  and  O_29
REMARK    4  A    between atoms: C_4  and  N_5
REMARK    5  A    between atoms: C_6  and  C_8
REMARK    6  A    between atoms: C_19  and  C_21
REMARK    7  A    between atoms: C_25  and  O_26
REMARK    8  A    between atoms: O_26  and  C_27
REMARK    9  A    between atoms: O_29  and  C_30
REMARK                            x       y       z     vdW  Elec       q    Type
REMARK                         _______ _______ _______ _____ _____    ______ ____
ROOT
ATOM      1  C   UNL     1       1.455  -4.097   1.646  0.00  0.00    +0.100 C 
ATOM      2  C   UNL     1       0.032  -4.675   1.476  0.00  0.00    +0.121 C 
ATOM      3  N   UNL     1       0.067  -5.973   2.190  0.00  0.00    -0.296 N 
ATOM      4  C   UNL     1       0.881  -5.707   3.400  0.00  0.00    +0.115 C 
ATOM      5  C   UNL     1       2.008  -4.776   2.910  0.00  0.00    -0.004 C 
ATOM      6  C   UNL     1       2.329  -3.731   3.974  0.00  0.00    -0.010 C 
ATOM      7  C   UNL     1       2.932  -4.424   5.199  0.00  0.00    -0.082 C 
ATOM      8  N   UNL     1       4.150  -5.142   4.807  0.00  0.00    +0.379 N 
ATOM      9  C   UNL     1       3.819  -6.207   3.853  0.00  0.00    -0.082 C 
ATOM     10  C   UNL     1       3.254  -5.589   2.571  0.00  0.00    -0.010 C 
ATOM     11  C   UNL     1      -0.510  -7.134   1.821  0.00  0.00    +0.251 C 
ATOM     12  O   UNL     1      -1.063  -7.222   0.742  0.00  0.00    -0.270 OA
ATOM     13  H   UNL     1       4.796  -4.496   4.378  0.00  0.00    -0.086 HD
ATOM     14  H   UNL     1       4.579  -5.547   5.626  0.00  0.00    -0.086 HD
ENDROOT
BRANCH  11  15
ATOM     15  C   UNL     1      -0.472  -8.293   2.725  0.00  0.00    +0.087 A 
ATOM     16  C   UNL     1      -0.343  -8.142   4.089  0.00  0.00    +0.063 A 
ATOM     17  S   UNL     1      -0.347  -9.711   4.682  0.00  0.00    -0.081 S 
ATOM     18  C   UNL     1      -0.519 -10.620   3.162  0.00  0.00    +0.120 A 
ATOM     19  C   UNL     1      -0.574  -9.646   2.226  0.00  0.00    +0.158 A 
ATOM     20 CL   UNL     1      -0.603 -12.339   2.936  0.00  0.00    -0.072 Cl
BRANCH  19  21
ATOM     21  O   UNL     1      -0.711  -9.921   0.899  0.00  0.00    -0.492 OA
ATOM     22  C   UNL     1       0.491 -10.103   0.147  0.00  0.00    +0.277 C 
ENDBRANCH  19  21
ENDBRANCH  11  15
BRANCH   1  24
ATOM     23  N   UNL     1       2.412  -1.829   1.407  0.00  0.00    -0.312 N 
ATOM     24  C   UNL     1       1.396  -2.603   1.836  0.00  0.00    +0.218 C 
ATOM     25  O   UNL     1       0.434  -2.098   2.374  0.00  0.00    -0.275 OA
ATOM     26  H   UNL     1       3.182  -2.233   0.976  0.00  0.00    +0.149 HD
BRANCH  23  27
ATOM     27  C   UNL     1       2.355  -0.377   1.591  0.00  0.00    +0.148 C 
BRANCH  27  29
ATOM     28  C   UNL     1       3.622   1.760   1.324  0.00  0.00    +0.053 C 
ATOM     29  C   UNL     1       3.624   0.260   1.021  0.00  0.00    +0.187 C 
BRANCH  29  30
ATOM     30  O   UNL     1       3.663   0.060  -0.393  0.00  0.00    -0.488 OA
BRANCH  30  31
ATOM     31  C   UNL     1       4.886   0.080  -0.986  0.00  0.00    +0.121 A 
ATOM     32  C   UNL     1       6.031   0.182  -0.211  0.00  0.00    +0.048 A 
ATOM     33  C   UNL     1       7.274   0.202  -0.814  0.00  0.00    +0.042 A 
ATOM     34  C   UNL     1       7.376   0.120  -2.193  0.00  0.00    +0.124 A 
ATOM     35  C   UNL     1       6.233   0.019  -2.968  0.00  0.00    +0.042 A 
ATOM     36  C   UNL     1       4.990  -0.008  -2.366  0.00  0.00    +0.048 A 
ATOM     37  F   UNL     1       8.592   0.141  -2.782  0.00  0.00    -0.205 F 
ENDBRANCH  30  31
ENDBRANCH  29  30
ENDBRANCH  27  29
ENDBRANCH  23  27
ENDBRANCH   1  24
TORSDOF 7
