REMARK  Name = ZINC04785516
REMARK  11 active torsions:
REMARK  status: ('A' for Active; 'I' for Inactive)
REMARK    1  A    between atoms: C_1  and  C_2
REMARK    2  A    between atoms: C_2  and  O_3
REMARK    3  A    between atoms: O_3  and  C_4
REMARK    4  A    between atoms: C_4  and  C_6
REMARK    5  A    between atoms: C_10  and  N_11
REMARK    6  A    between atoms: C_12  and  C_14
REMARK    7  A    between atoms: C_14  and  N_53
REMARK    8  A    between atoms: C_15  and  C_16
REMARK    9  A    between atoms: C_15  and  N_53
REMARK   10  A    between atoms: C_24  and  C_26
REMARK   11  A    between atoms: C_24  and  C_27
REMARK                            x       y       z     vdW  Elec       q    Type
REMARK                         _______ _______ _______ _____ _____    ______ ____
ROOT
ATOM      1  C   UNL     1      -2.471  -2.957   0.056  0.00  0.00    +0.091 A 
ATOM      2  C   UNL     1      -1.390  -2.034  -0.233  0.00  0.00    -0.016 A 
ATOM      3  C   UNL     1      -0.279  -2.593  -0.764  0.00  0.00    +0.021 A 
ATOM      4  S   UNL     1      -0.652  -4.317  -0.882  0.00  0.00    -0.075 S 
ATOM      5  C   UNL     1      -2.260  -4.300  -0.236  0.00  0.00    +0.086 A 
ATOM      6  C   UNL     1       0.972  -1.869  -1.153  0.00  0.00    +0.203 C 
ATOM      7  O   UNL     1       0.678  -0.463  -1.172  0.00  0.00    -0.368 OA
ATOM      8  C   UNL     1       0.002  -0.004   0.002  0.00  0.00    +0.068 C 
ATOM      9  C   UNL     1      -1.436  -0.532   0.020  0.00  0.00    +0.071 C 
ATOM     10  C   UNL     1      -0.019   1.526   0.010  0.00  0.00    +0.041 C 
ATOM     11  C   UNL     1       0.743  -0.508   1.242  0.00  0.00    +0.041 C 
ENDROOT
BRANCH   5  12
ATOM     12  N   UNL     1      -3.127  -5.366  -0.056  0.00  0.00    -0.281 N 
ATOM     13  C   UNL     1      -2.745  -6.611  -0.402  0.00  0.00    +0.201 C 
ATOM     14  O   UNL     1      -1.643  -6.798  -0.873  0.00  0.00    -0.278 OA
ATOM     15  H   UNL     1      -4.009  -5.217   0.320  0.00  0.00    +0.155 HD
BRANCH  13  16
ATOM     16  C   UNL     1      -3.687  -7.771  -0.206  0.00  0.00    +0.016 C 
BRANCH  16  17
ATOM     17  N   UNL     1      -3.030  -9.010  -0.662  0.00  0.00    +0.387 N 
ATOM     18  H   UNL     1      -2.174  -9.160  -0.116  0.00  0.00    -0.085 HD
ATOM     19  H   UNL     1      -2.790  -8.921  -1.656  0.00  0.00    -0.085 HD
BRANCH  17  20
ATOM     20  C   UNL     1      -3.931 -10.164  -0.481  0.00  0.00    -0.046 C 
BRANCH  20  21
ATOM     21  C   UNL     1      -3.234 -11.414  -0.954  0.00  0.00    -0.064 A 
ATOM     22  C   UNL     1      -3.359 -11.819  -2.270  0.00  0.00    +0.002 A 
ATOM     23  C   UNL     1      -2.716 -12.962  -2.705  0.00  0.00    +0.000 A 
ATOM     24  C   UNL     1      -1.956 -13.707  -1.823  0.00  0.00    +0.000 A 
ATOM     25  C   UNL     1      -1.836 -13.305  -0.505  0.00  0.00    +0.000 A 
ATOM     26  C   UNL     1      -2.474 -12.158  -0.071  0.00  0.00    +0.002 A 
ENDBRANCH  20  21
ENDBRANCH  17  20
ENDBRANCH  16  17
ENDBRANCH  13  16
ENDBRANCH   5  12
BRANCH   1  27
ATOM     27  C   UNL     1      -3.734  -2.493   0.633  0.00  0.00    +0.342 C 
ATOM     28  O   UNL     1      -4.646  -2.150  -0.096  0.00  0.00    -0.245 OA
BRANCH  27  29
ATOM     29  O   UNL     1      -3.887  -2.446   1.972  0.00  0.00    -0.461 OA
BRANCH  29  31
ATOM     30  C   UNL     1      -5.152  -1.991   4.003  0.00  0.00    +0.048 C 
ATOM     31  C   UNL     1      -5.166  -1.975   2.473  0.00  0.00    +0.229 C 
ENDBRANCH  29  31
ENDBRANCH  27  29
ENDBRANCH   1  27
TORSDOF 8
