REMARK  Name = ZINC32955246
REMARK  8 active torsions:
REMARK  status: ('A' for Active; 'I' for Inactive)
REMARK    1  A    between atoms: C_1  and  C_2
REMARK    2  A    between atoms: C_2  and  O_3
REMARK    3  A    between atoms: O_3  and  C_4
REMARK    4  A    between atoms: C_13  and  C_26
REMARK    5  A    between atoms: C_16  and  C_18
REMARK    6  A    between atoms: C_21  and  O_24
REMARK    7  A    between atoms: O_24  and  C_25
REMARK    8  A    between atoms: C_31  and  O_32
REMARK                            x       y       z     vdW  Elec       q    Type
REMARK                         _______ _______ _______ _____ _____    ______ ____
ROOT
ATOM      1  C   UNL     1      -8.356   0.828   7.229  0.00  0.00    +0.403 C 
ATOM      2  O   UNL     1      -8.261  -0.089   8.020  0.00  0.00    -0.226 OA
ATOM      3  N   UNL     1      -7.917   0.674   5.964  0.00  0.00    -0.267 N 
ATOM      4  C   UNL     1      -7.322  -0.596   5.527  0.00  0.00    +0.111 C 
ATOM      5  C   UNL     1      -8.056  -1.080   4.273  0.00  0.00    +0.029 C 
ATOM      6  C   UNL     1      -8.025   0.023   3.210  0.00  0.00    +0.032 C 
ATOM      7  C   UNL     1      -8.751   1.262   3.747  0.00  0.00    +0.029 C 
ATOM      8  C   UNL     1      -8.024   1.773   4.995  0.00  0.00    +0.111 C 
ATOM      9  N   UNL     1      -8.714  -0.452   2.002  0.00  0.00    +0.401 N 
ATOM     10  C   UNL     1      -7.931  -1.521   1.359  0.00  0.00    -0.028 C 
ATOM     11  C   UNL     1      -6.644  -0.898   0.804  0.00  0.00    +0.044 C 
ATOM     12  C   UNL     1      -6.014  -0.033   1.861  0.00  0.00    +0.040 C 
ATOM     13  N   UNL     1      -6.640   0.365   2.904  0.00  0.00    -0.300 NA
ATOM     14  H   UNL     1      -9.704  -0.846   2.276  0.00  0.00    -0.081 HD
ATOM     15  H   UNL     1      -8.833   0.383   1.296  0.00  0.00    -0.081 HD
ENDROOT
BRANCH  10  16
ATOM     16  C   UNL     1      -8.728  -2.127   0.232  0.00  0.00    -0.018 A 
ATOM     17  C   UNL     1      -9.718  -1.390  -0.389  0.00  0.00    +0.025 A 
ATOM     18  C   UNL     1     -10.446  -1.944  -1.426  0.00  0.00    +0.041 A 
ATOM     19  C   UNL     1     -10.192  -3.241  -1.837  0.00  0.00    +0.023 A 
ATOM     20  C   UNL     1      -9.207  -3.983  -1.215  0.00  0.00    +0.047 A 
ATOM     21  C   UNL     1      -8.471  -3.427  -0.178  0.00  0.00    +0.119 A 
ATOM     22 CL   UNL     1     -11.685  -1.014  -2.209  0.00  0.00    -0.084 Cl
BRANCH  21  23
ATOM     23  O   UNL     1      -7.501  -4.155   0.435  0.00  0.00    -0.507 OA
ATOM     24  H   UNL     1      -7.299  -5.186   0.109  0.00  0.00    +0.292 HD
ENDBRANCH  21  23
ENDBRANCH  10  16
BRANCH  12  25
ATOM     25  C   UNL     1      -4.611   0.382   1.683  0.00  0.00    -0.004 A 
ATOM     26  C   UNL     1      -3.993   1.191   2.640  0.00  0.00    +0.013 A 
ATOM     27  C   UNL     1      -2.682   1.577   2.470  0.00  0.00    +0.046 A 
ATOM     28  C   UNL     1      -1.974   1.163   1.348  0.00  0.00    +0.120 A 
ATOM     29  C   UNL     1      -2.586   0.363   0.391  0.00  0.00    +0.046 A 
ATOM     30  C   UNL     1      -3.895  -0.032   0.556  0.00  0.00    +0.013 A 
BRANCH  28  31
ATOM     31  O   UNL     1      -0.682   1.547   1.184  0.00  0.00    -0.495 OA
ATOM     32  C   UNL     1      -0.013   1.086   0.008  0.00  0.00    +0.277 C 
ENDBRANCH  28  31
ENDBRANCH  12  25
BRANCH   1  33
ATOM     33  O   UNL     1      -8.900   1.997   7.615  0.00  0.00    -0.451 OA
BRANCH  33  35
ATOM     34  C   UNL     1      -9.934   3.483   9.243  0.00  0.00    +0.048 C 
ATOM     35  C   UNL     1      -9.351   2.092   8.992  0.00  0.00    +0.230 C 
ENDBRANCH  33  35
ENDBRANCH   1  33
TORSDOF 6
