REMARK  Name = ZINC20263015
REMARK  7 active torsions:
REMARK  status: ('A' for Active; 'I' for Inactive)
REMARK    1  A    between atoms: C_1  and  C_2
REMARK    2  A    between atoms: C_2  and  C_3
REMARK    3  A    between atoms: C_2  and  C_4
REMARK    4  A    between atoms: C_4  and  C_5
REMARK    5  A    between atoms: C_5  and  N_6
REMARK    6  A    between atoms: C_25  and  C_27
REMARK    7  A    between atoms: C_25  and  C_28
REMARK                            x       y       z     vdW  Elec       q    Type
REMARK                         _______ _______ _______ _____ _____    ______ ____
ROOT
ATOM      1  N   UNL     1       2.904  -0.655  -2.354  0.00  0.00    -0.327 N 
ATOM      2  C   UNL     1       4.239  -0.343  -2.559  0.00  0.00    +0.159 A 
ATOM      3  C   UNL     1       4.909  -0.764  -3.699  0.00  0.00    +0.083 A 
ATOM      4  C   UNL     1       6.261  -0.437  -3.886  0.00  0.00    +0.115 A 
ATOM      5  C   UNL     1       6.875  -0.934  -5.132  0.00  0.00    +0.039 A 
ATOM      6  C   UNL     1       8.228  -0.732  -5.550  0.00  0.00    -0.027 A 
ATOM      7  C   UNL     1       8.626  -1.268  -6.723  0.00  0.00    +0.006 A 
ATOM      8  C   UNL     1       7.704  -1.983  -7.512  0.00  0.00    +0.127 A 
ATOM      9  N   UNL     1       6.456  -2.160  -7.125  0.00  0.00    -0.225 NA
ATOM     10  C   UNL     1       6.036  -1.666  -5.980  0.00  0.00    +0.113 A 
ATOM     11  S   UNL     1       4.473  -1.701  -5.136  0.00  0.00    -0.063 S 
ATOM     12  N   UNL     1       8.118  -2.513  -8.726  0.00  0.00    -0.311 N 
ATOM     13  C   UNL     1       8.724  -3.852  -8.800  0.00  0.00    +0.134 C 
ATOM     14  C   UNL     1       8.000  -4.652  -9.889  0.00  0.00    +0.178 C 
ATOM     15  O   UNL     1       7.987  -3.892 -11.101  0.00  0.00    -0.377 OA
ATOM     16  C   UNL     1       7.276  -2.655 -11.009  0.00  0.00    +0.178 C 
ATOM     17  C   UNL     1       7.959  -1.756  -9.978  0.00  0.00    +0.134 C 
ATOM     18  C   UNL     1      10.023  -1.202  -7.292  0.00  0.00    +0.108 C 
ATOM     19  S   UNL     1      10.960   0.136  -6.502  0.00  0.00    -0.149 S 
ATOM     20  C   UNL     1      10.545  -0.111  -4.746  0.00  0.00    +0.015 C 
ATOM     21  C   UNL     1       9.044   0.091  -4.596  0.00  0.00    +0.053 C 
ATOM     22  C   UNL     1      11.295   0.910  -3.887  0.00  0.00    +0.023 C 
ATOM     23  C   UNL     1      10.923  -1.530  -4.317  0.00  0.00    +0.023 C 
ATOM     24  N   UNL     1       6.827   0.292  -2.901  0.00  0.00    -0.128 NA
ATOM     25  N   UNL     1       6.161   0.654  -1.869  0.00  0.00    -0.041 NA
ATOM     26  N   UNL     1       4.924   0.377  -1.669  0.00  0.00    -0.113 NA
ATOM     27  H   UNL     1       2.422  -1.180  -3.013  0.00  0.00    +0.148 HD
ENDROOT
BRANCH   1  28
ATOM     28  C   UNL     1       2.220  -0.192  -1.144  0.00  0.00    +0.103 C 
BRANCH  28  29
ATOM     29  C   UNL     1       0.766  -0.669  -1.165  0.00  0.00    +0.021 C 
BRANCH  29  31
ATOM     30  C   UNL     1      -0.023   1.342   0.089  0.00  0.00    +0.007 C 
ATOM     31  C   UNL     1       0.053  -0.186   0.099  0.00  0.00    -0.016 C 
ATOM     32  C   UNL     1      -1.363  -0.766   0.139  0.00  0.00    +0.007 C 
ENDBRANCH  29  31
ENDBRANCH  28  29
ENDBRANCH   1  28
TORSDOF 3
