REMARK  Name = ZINC09600815
REMARK  12 active torsions:
REMARK  status: ('A' for Active; 'I' for Inactive)
REMARK    1  A    between atoms: C_1  and  C_2
REMARK    2  A    between atoms: C_2  and  O_3
REMARK    3  A    between atoms: O_3  and  C_4
REMARK    4  A    between atoms: C_6  and  C_11
REMARK    5  A    between atoms: C_9  and  O_10
REMARK    6  A    between atoms: C_16  and  C_21
REMARK    7  A    between atoms: C_29  and  C_37
REMARK    8  A    between atoms: C_30  and  C_31
REMARK    9  A    between atoms: C_31  and  O_33
REMARK   10  A    between atoms: O_33  and  C_34
REMARK   11  A    between atoms: C_34  and  C_35
REMARK   12  A    between atoms: C_34  and  C_36
REMARK                            x       y       z     vdW  Elec       q    Type
REMARK                         _______ _______ _______ _____ _____    ______ ____
ROOT
ATOM      1  C   UNL     1       0.654  -4.954  -0.018  0.00  0.00    +0.092 C 
ATOM      2  C   UNL     1       0.640  -5.813   1.221  0.00  0.00    +0.024 C 
ATOM      3  C   UNL     1       0.263  -7.108   1.158  0.00  0.00    +0.016 C 
ATOM      4  C   UNL     1       0.249  -7.975   2.393  0.00  0.00    +0.059 C 
ATOM      5  C   UNL     1      -0.049  -7.114   3.622  0.00  0.00    +0.032 C 
ATOM      6  C   UNL     1       1.019  -6.019   3.720  0.00  0.00    +0.088 C 
ATOM      7  C   UNL     1       1.028  -5.229   2.439  0.00  0.00    +0.162 C 
ATOM      8  O   UNL     1       1.377  -4.066   2.459  0.00  0.00    -0.292 OA
ATOM      9  N   UNL     1      -0.114  -7.665  -0.035  0.00  0.00    -0.321 N 
ATOM     10  C   UNL     1       0.251  -7.087  -1.219  0.00  0.00    +0.016 C 
ATOM     11  C   UNL     1       0.628  -5.798  -1.258  0.00  0.00    +0.065 C 
ATOM     12  C   UNL     1       0.229  -7.900  -2.487  0.00  0.00    +0.061 C 
ATOM     13  H   UNL     1      -0.644  -8.477  -0.040  0.00  0.00    +0.152 HD
ENDROOT
BRANCH   5  14
ATOM     14  C   UNL     1      -0.017  -7.971   4.861  0.00  0.00    -0.043 A 
ATOM     15  C   UNL     1       1.141  -8.643   5.206  0.00  0.00    +0.005 A 
ATOM     16  C   UNL     1       1.171  -9.430   6.342  0.00  0.00    +0.020 A 
ATOM     17  C   UNL     1       0.043  -9.544   7.134  0.00  0.00    +0.041 A 
ATOM     18  C   UNL     1      -1.116  -8.871   6.788  0.00  0.00    +0.020 A 
ATOM     19  C   UNL     1      -1.143  -8.081   5.655  0.00  0.00    +0.005 A 
ATOM     20 CL   UNL     1       0.080 -10.532   8.561  0.00  0.00    -0.084 Cl
ENDBRANCH   5  14
BRANCH   1  23
ATOM     21  C   UNL     1      -1.498  -1.849   0.006  0.00  0.00    +0.162 A 
ATOM     22  C   UNL     1      -0.389  -2.680  -0.003  0.00  0.00    +0.054 A 
ATOM     23  C   UNL     1      -0.553  -4.052  -0.008  0.00  0.00    -0.032 A 
ATOM     24  C   UNL     1      -1.823  -4.600  -0.005  0.00  0.00    +0.008 A 
ATOM     25  C   UNL     1      -2.934  -3.777   0.004  0.00  0.00    +0.049 A 
ATOM     26  C   UNL     1      -2.776  -2.400   0.016  0.00  0.00    +0.158 A 
BRANCH  26  27
ATOM     27  O   UNL     1      -3.868  -1.589   0.030  0.00  0.00    -0.503 OA
ATOM     28  H   UNL     1      -4.192  -1.350  -0.849  0.00  0.00    +0.292 HD
ENDBRANCH  26  27
BRANCH  21  29
ATOM     29  O   UNL     1      -1.339  -0.499   0.012  0.00  0.00    -0.489 OA
BRANCH  29  31
ATOM     30  C   UNL     1      -0.019   1.526   0.010  0.00  0.00    +0.048 C 
ATOM     31  C   UNL     1       0.002  -0.004   0.002  0.00  0.00    +0.226 C 
ENDBRANCH  29  31
ENDBRANCH  21  29
ENDBRANCH   1  23
BRANCH  11  32
ATOM     32  C   UNL     1       1.008  -5.226  -2.495  0.00  0.00    +0.338 C 
ATOM     33  O   UNL     1       0.992  -5.900  -3.508  0.00  0.00    -0.245 OA
BRANCH  32  34
ATOM     34  O   UNL     1       1.389  -3.933  -2.551  0.00  0.00    -0.459 OA
BRANCH  34  35
ATOM     35  C   UNL     1       1.760  -3.421  -3.833  0.00  0.00    +0.171 C 
ATOM     36  C   UNL     1       1.440  -1.926  -3.897  0.00  0.00    +0.052 C 
ATOM     37  C   UNL     1       3.260  -3.631  -4.051  0.00  0.00    +0.052 C 
ENDBRANCH  34  35
ENDBRANCH  32  34
ENDBRANCH  11  32
TORSDOF 8
