REMARK  Name = ZINC15959325
REMARK  3 active torsions:
REMARK  status: ('A' for Active; 'I' for Inactive)
REMARK    1  A    between atoms: C_4  and  N_7
REMARK    2  A    between atoms: C_12  and  C_30
REMARK    3  A    between atoms: C_30  and  C_31
REMARK                            x       y       z     vdW  Elec       q    Type
REMARK                         _______ _______ _______ _____ _____    ______ ____
ROOT
ATOM      1  N   UNL     1       3.624  -0.652  -0.037  0.00  0.00    -0.210 N 
ATOM      2  C   UNL     1       4.801  -0.025  -0.139  0.00  0.00    +0.232 C 
ATOM      3  O   UNL     1       4.950   1.176  -0.223  0.00  0.00    -0.274 OA
ATOM      4  C   UNL     1       5.916  -1.045  -0.132  0.00  0.00    +0.108 C 
ATOM      5  C   UNL     1       6.735  -0.896   1.168  0.00  0.00    +0.072 C 
ATOM      6  N   UNL     1       6.026  -1.741   2.165  0.00  0.00    -0.295 NA
ATOM      7  C   UNL     1       5.598  -2.924   1.395  0.00  0.00    +0.136 C 
ATOM      8  C   UNL     1       5.164  -2.398   0.004  0.00  0.00    +0.123 C 
ATOM      9  C   UNL     1       3.710  -1.984   0.053  0.00  0.00    +0.233 C 
ATOM     10  O   UNL     1       2.769  -2.742   0.154  0.00  0.00    -0.274 OA
ATOM     11  C   UNL     1       4.484  -3.659   2.083  0.00  0.00    +0.005 A 
ATOM     12  C   UNL     1       3.213  -3.301   2.477  0.00  0.00    +0.027 A 
ATOM     13  C   UNL     1       2.397  -4.226   3.107  0.00  0.00    +0.041 A 
ATOM     14  C   UNL     1       2.862  -5.508   3.340  0.00  0.00    +0.022 A 
ATOM     15  C   UNL     1       4.134  -5.870   2.947  0.00  0.00    +0.025 A 
ATOM     16  C   UNL     1       4.960  -4.946   2.312  0.00  0.00    +0.039 A 
ATOM     17  N   UNL     1       6.264  -5.072   1.826  0.00  0.00    -0.283 N 
ATOM     18  C   UNL     1       6.712  -3.928   1.272  0.00  0.00    +0.243 C 
ATOM     19  O   UNL     1       7.801  -3.745   0.770  0.00  0.00    -0.273 OA
ATOM     20 CL   UNL     1       0.796  -3.777   3.604  0.00  0.00    -0.084 Cl
ATOM     21  H   UNL     1       6.642  -2.004   2.920  0.00  0.00    +0.124 HD
ATOM     22  H   UNL     1       6.787  -5.887   1.882  0.00  0.00    +0.155 HD
ENDROOT
BRANCH   1  26
ATOM     23  C   UNL     1      -0.016   1.380   0.010  0.00  0.00    +0.000 A 
ATOM     24  C   UNL     1       0.868   1.524   1.063  0.00  0.00    +0.002 A 
ATOM     25  C   UNL     1       2.075   0.852   1.050  0.00  0.00    +0.024 A 
ATOM     26  C   UNL     1       2.399   0.031  -0.021  0.00  0.00    +0.044 A 
ATOM     27  C   UNL     1       1.509  -0.112  -1.077  0.00  0.00    +0.024 A 
ATOM     28  C   UNL     1       0.304   0.563  -1.058  0.00  0.00    +0.002 A 
ENDBRANCH   1  26
BRANCH   5  29
ATOM     29  C   UNL     1       6.752   0.565   1.622  0.00  0.00    +0.056 C 
BRANCH  29  30
ATOM     30  C   UNL     1       7.655   0.709   2.819  0.00  0.00    -0.021 A 
ATOM     31  C   UNL     1       7.282   0.678   4.109  0.00  0.00    +0.087 A 
ATOM     32  N   UNL     1       8.376   0.842   4.915  0.00  0.00    -0.360 N 
ATOM     33  H   UNL     1       8.357   0.855   5.884  0.00  0.00    +0.165 HD
ATOM     34  C   UNL     1       9.508   0.984   4.144  0.00  0.00    +0.047 A 
ATOM     35  C   UNL     1       9.107   0.901   2.798  0.00  0.00    +0.003 A 
ATOM     36  C   UNL     1      10.057   1.007   1.780  0.00  0.00    +0.010 A 
ATOM     37  C   UNL     1      11.374   1.189   2.097  0.00  0.00    +0.001 A 
ATOM     38  C   UNL     1      11.775   1.268   3.424  0.00  0.00    +0.002 A 
ATOM     39  C   UNL     1      10.853   1.174   4.444  0.00  0.00    +0.026 A 
ENDBRANCH  29  30
ENDBRANCH   5  29
TORSDOF 3
