REMARK  Name = ZINC37561761
REMARK  2 active torsions:
REMARK  status: ('A' for Active; 'I' for Inactive)
REMARK    1  A    between atoms: C_3  and  N_10
REMARK    2  A    between atoms: C_6  and  C_7
REMARK                            x       y       z     vdW  Elec       q    Type
REMARK                         _______ _______ _______ _____ _____    ______ ____
ROOT
ATOM      1  N   UNL     1       3.531   2.056   1.229  0.00  0.00    -0.239 N 
ATOM      2  C   UNL     1       4.415   1.791   0.232  0.00  0.00    +0.226 C 
ATOM      3  O   UNL     1       4.294   0.965  -0.647  0.00  0.00    -0.275 OA
ATOM      4  C   UNL     1       5.570   2.724   0.437  0.00  0.00    +0.091 C 
ATOM      5  C   UNL     1       6.959   2.234   0.089  0.00  0.00    +0.040 C 
ATOM      6  C   UNL     1       7.938   3.209   0.709  0.00  0.00    -0.030 C 
ATOM      7  C   UNL     1       7.641   4.040   1.661  0.00  0.00    -0.030 C 
ATOM      8  C   UNL     1       6.277   4.142   2.312  0.00  0.00    +0.040 C 
ATOM      9  C   UNL     1       5.525   2.878   1.989  0.00  0.00    +0.091 C 
ATOM     10  C   UNL     1       4.043   2.841   2.212  0.00  0.00    +0.226 C 
ATOM     11  O   UNL     1       3.425   3.398   3.094  0.00  0.00    -0.275 OA
ENDROOT
BRANCH   1  14
ATOM     12  C   UNL     1      -0.019   1.526   0.010  0.00  0.00    +0.016 C 
ATOM     13  C   UNL     1       1.417   2.055  -0.000  0.00  0.00    +0.024 C 
ATOM     14  C   UNL     1       2.157   1.548   1.239  0.00  0.00    +0.084 C 
ATOM     15  C   UNL     1       2.178   0.019   1.231  0.00  0.00    +0.024 C 
ATOM     16  C   UNL     1       0.742  -0.511   1.242  0.00  0.00    +0.016 C 
ATOM     17  C   UNL     1       0.002  -0.004   0.002  0.00  0.00    +0.102 C 
BRANCH  17  18
ATOM     18  C   UNL     1      -1.412  -0.526   0.013  0.00  0.00    +0.359 C 
ATOM     19  O   UNL     1      -1.710  -1.492  -0.668  0.00  0.00    -0.246 OA
ATOM     20  O   UNL     1      -2.257   0.018   0.703  0.00  0.00    -0.246 OA
ENDBRANCH  17  18
ENDBRANCH   1  14
TORSDOF 2
