REMARK  Name = ZINC22065004
REMARK  14 active torsions:
REMARK  status: ('A' for Active; 'I' for Inactive)
REMARK    1  A    between atoms: C_3  and  O_10
REMARK    2  A    between atoms: C_6  and  N_7
REMARK    3  A    between atoms: O_10  and  C_11
REMARK    4  A    between atoms: C_13  and  O_42
REMARK    5  A    between atoms: C_15  and  O_41
REMARK    6  A    between atoms: C_17  and  O_40
REMARK    7  A    between atoms: C_19  and  C_22
REMARK    8  A    between atoms: C_22  and  O_23
REMARK    9  A    between atoms: O_23  and  C_24
REMARK   10  A    between atoms: C_26  and  O_39
REMARK   11  A    between atoms: C_28  and  O_38
REMARK   12  A    between atoms: C_30  and  O_37
REMARK   13  A    between atoms: C_32  and  C_35
REMARK   14  A    between atoms: C_35  and  O_36
REMARK                            x       y       z     vdW  Elec       q    Type
REMARK                         _______ _______ _______ _____ _____    ______ ____
ROOT
ATOM      1  C   UNL     1       2.518  -2.668  -0.037  0.00  0.00    +0.339 C 
ATOM      2  C   UNL     1       2.348  -4.167  -0.294  0.00  0.00    +0.214 C 
ATOM      3  C   UNL     1       3.722  -4.844  -0.250  0.00  0.00    +0.180 C 
ATOM      4  C   UNL     1       4.376  -4.557   1.105  0.00  0.00    +0.177 C 
ATOM      5  C   UNL     1       4.467  -3.042   1.309  0.00  0.00    +0.179 C 
ATOM      6  O   UNL     1       3.160  -2.472   1.225  0.00  0.00    -0.331 OA
ENDROOT
BRANCH   4   7
ATOM      7  O   UNL     1       3.587  -5.133   2.148  0.00  0.00    -0.386 OA
ATOM      8  H   UNL     1       3.902  -5.030   3.197  0.00  0.00    +0.210 HD
ENDBRANCH   4   7
BRANCH   3   9
ATOM      9  O   UNL     1       4.543  -4.326  -1.298  0.00  0.00    -0.386 OA
ATOM     10  H   UNL     1       5.572  -4.696  -1.424  0.00  0.00    +0.210 HD
ENDBRANCH   3   9
BRANCH   2  11
ATOM     11  O   UNL     1       1.759  -4.367  -1.581  0.00  0.00    -0.383 OA
ATOM     12  H   UNL     1       1.560  -5.387  -1.942  0.00  0.00    +0.210 HD
ENDBRANCH   2  11
BRANCH   1  13
ATOM     13  O   UNL     1       1.234  -2.039  -0.021  0.00  0.00    -0.461 OA
BRANCH  13  16
ATOM     14  C   UNL     1      -0.017   1.377   0.010  0.00  0.00    +0.036 A 
ATOM     15  C   UNL     1       0.002  -0.004   0.002  0.00  0.00    +0.048 A 
ATOM     16  C   UNL     1       1.213  -0.680  -0.013  0.00  0.00    +0.124 A 
ATOM     17  C   UNL     1       2.403   0.033  -0.021  0.00  0.00    +0.048 A 
ATOM     18  C   UNL     1       2.379   1.415  -0.013  0.00  0.00    +0.036 A 
ATOM     19  C   UNL     1       1.171   2.086   0.002  0.00  0.00    +0.126 A 
BRANCH  19  20
ATOM     20  N   UNL     1       1.148   3.566   0.010  0.00  0.00    +0.056 N 
ATOM     21  O   UNL     1       0.084   4.158   0.023  0.00  0.00    -0.126 OA
ATOM     22  O   UNL     1       2.193   4.191   0.003  0.00  0.00    -0.126 OA
ENDBRANCH  19  20
ENDBRANCH  13  16
ENDBRANCH   1  13
BRANCH   5  23
ATOM     23  C   UNL     1       5.065  -2.748   2.686  0.00  0.00    +0.197 C 
BRANCH  23  24
ATOM     24  O   UNL     1       5.258  -1.339   2.830  0.00  0.00    -0.346 OA
BRANCH  24  25
ATOM     25  C   UNL     1       5.816  -0.954   4.088  0.00  0.00    +0.282 C 
ATOM     26  C   UNL     1       5.748   0.568   4.233  0.00  0.00    +0.201 C 
ATOM     27  C   UNL     1       6.402   0.977   5.556  0.00  0.00    +0.179 C 
ATOM     28  C   UNL     1       7.841   0.454   5.586  0.00  0.00    +0.177 C 
ATOM     29  C   UNL     1       7.827  -1.064   5.389  0.00  0.00    +0.178 C 
ATOM     30  O   UNL     1       7.179  -1.378   4.155  0.00  0.00    -0.341 OA
BRANCH  28  31
ATOM     31  O   UNL     1       8.593   1.065   4.536  0.00  0.00    -0.386 OA
ATOM     32  H   UNL     1       9.654   0.810   4.399  0.00  0.00    +0.210 HD
ENDBRANCH  28  31
BRANCH  27  33
ATOM     33  O   UNL     1       5.667   0.418   6.647  0.00  0.00    -0.386 OA
ATOM     34  H   UNL     1       5.990   0.606   7.681  0.00  0.00    +0.210 HD
ENDBRANCH  27  33
BRANCH  26  35
ATOM     35  O   UNL     1       4.382   0.989   4.224  0.00  0.00    -0.384 OA
ATOM     36  H   UNL     1       4.135   2.056   4.318  0.00  0.00    +0.210 HD
ENDBRANCH  26  35
BRANCH  29  37
ATOM     37  C   UNL     1       9.265  -1.588   5.358  0.00  0.00    +0.190 C 
BRANCH  37  38
ATOM     38  O   UNL     1       9.251  -3.015   5.290  0.00  0.00    -0.392 OA
ATOM     39  H   UNL     1      10.198  -3.573   5.259  0.00  0.00    +0.210 HD
ENDBRANCH  37  38
ENDBRANCH  29  37
ENDBRANCH  24  25
ENDBRANCH  23  24
ENDBRANCH   5  23
TORSDOF 14
