REMARK  Name = ZINC21226485
REMARK  9 active torsions:
REMARK  status: ('A' for Active; 'I' for Inactive)
REMARK    1  A    between atoms: C_1  and  C_2
REMARK    2  A    between atoms: C_2  and  C_3
REMARK    3  A    between atoms: C_2  and  O_4
REMARK    4  A    between atoms: O_4  and  C_5
REMARK    5  A    between atoms: C_8  and  C_13
REMARK    6  A    between atoms: C_10  and  O_11
REMARK    7  A    between atoms: O_11  and  C_12
REMARK    8  A    between atoms: C_18  and  C_28
REMARK    9  A    between atoms: C_31  and  C_34
REMARK                            x       y       z     vdW  Elec       q    Type
REMARK                         _______ _______ _______ _____ _____    ______ ____
ROOT
ATOM      1  C   UNL     1      -2.690   0.993  -0.919  0.00  0.00    +0.032 C 
ATOM      2  C   UNL     1      -2.633   0.318  -2.288  0.00  0.00    +0.059 C 
ATOM      3  C   UNL     1      -3.862  -0.554  -2.489  0.00  0.00    +0.017 C 
ATOM      4  C   UNL     1      -4.445  -1.160  -1.442  0.00  0.00    +0.036 C 
ATOM      5  C   UNL     1      -5.669  -2.044  -1.498  0.00  0.00    +0.136 C 
ATOM      6  N   UNL     1      -6.064  -2.432  -2.835  0.00  0.00    -0.331 N 
ATOM      7  C   UNL     1      -6.494  -1.483  -3.759  0.00  0.00    +0.049 A 
ATOM      8  C   UNL     1      -7.799  -1.471  -4.226  0.00  0.00    +0.025 A 
ATOM      9  C   UNL     1      -8.198  -0.481  -5.107  0.00  0.00    +0.002 A 
ATOM     10  C   UNL     1      -7.306   0.493  -5.518  0.00  0.00    +0.002 A 
ATOM     11  C   UNL     1      -5.996   0.473  -5.068  0.00  0.00    +0.025 A 
ATOM     12  C   UNL     1      -5.591  -0.530  -4.206  0.00  0.00    +0.052 A 
ATOM     13  N   UNL     1      -4.274  -0.658  -3.779  0.00  0.00    -0.316 N 
ATOM     14  C   UNL     1      -3.924  -0.989  -0.138  0.00  0.00    +0.163 C 
ATOM     15  O   UNL     1      -4.455  -1.573   0.787  0.00  0.00    -0.292 OA
ATOM     16  C   UNL     1      -2.741  -0.112   0.144  0.00  0.00    +0.088 C 
ATOM     17  H   UNL     1      -6.028  -3.490  -3.134  0.00  0.00    +0.147 HD
ATOM     18  H   UNL     1      -3.542  -0.858  -4.576  0.00  0.00    +0.152 HD
ENDROOT
BRANCH   1  22
ATOM     19  C   UNL     1       0.801   3.396  -0.348  0.00  0.00    +0.162 A 
ATOM     20  C   UNL     1       0.922   2.033  -0.563  0.00  0.00    +0.050 A 
ATOM     21  C   UNL     1      -0.208   1.258  -0.744  0.00  0.00    +0.008 A 
ATOM     22  C   UNL     1      -1.461   1.841  -0.715  0.00  0.00    -0.040 A 
ATOM     23  C   UNL     1      -1.590   3.200  -0.496  0.00  0.00    +0.053 A 
ATOM     24  C   UNL     1      -0.461   3.982  -0.314  0.00  0.00    +0.162 A 
BRANCH  24  25
ATOM     25  O   UNL     1      -0.586   5.320  -0.102  0.00  0.00    -0.491 OA
ATOM     26  C   UNL     1      -1.911   5.852  -0.080  0.00  0.00    +0.277 C 
ENDBRANCH  24  25
BRANCH  19  27
ATOM     27  O   UNL     1       1.912   4.160  -0.170  0.00  0.00    -0.486 OA
BRANCH  27  29
ATOM     28  C   UNL     1       3.698   3.247  -1.519  0.00  0.00    +0.051 C 
ATOM     29  C   UNL     1       3.165   3.476  -0.103  0.00  0.00    +0.167 C 
ATOM     30  C   UNL     1       4.165   4.322   0.688  0.00  0.00    +0.051 C 
ENDBRANCH  27  29
ENDBRANCH  19  27
ENDBRANCH   1  22
BRANCH   5  31
ATOM     31  C   UNL     1      -6.818  -1.310  -0.857  0.00  0.00    -0.023 A 
ATOM     32  C   UNL     1      -7.281  -0.132  -1.415  0.00  0.00    +0.006 A 
ATOM     33  C   UNL     1      -8.336   0.541  -0.834  0.00  0.00    +0.009 A 
ATOM     34  C   UNL     1      -8.930   0.038   0.322  0.00  0.00    -0.018 A 
ATOM     35  C   UNL     1      -8.456  -1.147   0.882  0.00  0.00    +0.009 A 
ATOM     36  C   UNL     1      -7.403  -1.815   0.291  0.00  0.00    +0.006 A 
BRANCH  34  37
ATOM     37  C   UNL     1     -10.061   0.761   0.954  0.00  0.00    -0.018 A 
ATOM     38  C   UNL     1     -10.657   0.255   2.107  0.00  0.00    +0.008 A 
ATOM     39  C   UNL     1     -11.706   0.933   2.693  0.00  0.00    +0.001 A 
ATOM     40  C   UNL     1     -12.172   2.109   2.133  0.00  0.00    +0.000 A 
ATOM     41  C   UNL     1     -11.587   2.613   0.985  0.00  0.00    +0.001 A 
ATOM     42  C   UNL     1     -10.534   1.945   0.394  0.00  0.00    +0.008 A 
ENDBRANCH  34  37
ENDBRANCH   5  31
TORSDOF 6
