REMARK  Name = ZINC36202088
REMARK  12 active torsions:
REMARK  status: ('A' for Active; 'I' for Inactive)
REMARK    1  A    between atoms: C_1  and  C_2
REMARK    2  A    between atoms: C_2  and  C_3
REMARK    3  A    between atoms: C_3  and  C_4
REMARK    4  A    between atoms: C_4  and  N_5
REMARK    5  A    between atoms: C_6  and  C_27
REMARK    6  A    between atoms: C_9  and  S_10
REMARK    7  A    between atoms: S_10  and  C_11
REMARK    8  A    between atoms: C_11  and  C_12
REMARK    9  A    between atoms: C_14  and  O_15
REMARK   10  A    between atoms: C_24  and  C_26
REMARK   11  A    between atoms: C_30  and  O_33
REMARK   12  A    between atoms: O_33  and  C_34
REMARK                            x       y       z     vdW  Elec       q    Type
REMARK                         _______ _______ _______ _____ _____    ______ ____
ROOT
ATOM      1  S   UNL     1      -4.664  -2.130  -3.070  0.00  0.00    -0.081 S 
ENDROOT
BRANCH   1   6
ATOM      2  N   UNL     1      -5.013  -2.121  -0.294  0.00  0.00    -0.302 N 
ATOM      3  C   UNL     1      -6.029  -2.436   0.579  0.00  0.00    +0.165 A 
ATOM      4  N   UNL     1      -7.047  -2.839  -0.145  0.00  0.00    -0.128 NA
ATOM      5  N   UNL     1      -6.743  -2.797  -1.393  0.00  0.00    -0.122 NA
ATOM      6  C   UNL     1      -5.513  -2.361  -1.543  0.00  0.00    +0.192 A 
BRANCH   3   7
ATOM      7  C   UNL     1      -5.982  -2.341   2.053  0.00  0.00    +0.020 A 
ATOM      8  C   UNL     1      -6.895  -3.057   2.830  0.00  0.00    +0.015 A 
ATOM      9  C   UNL     1      -6.847  -2.966   4.205  0.00  0.00    +0.046 A 
ATOM     10  C   UNL     1      -5.894  -2.163   4.817  0.00  0.00    +0.120 A 
ATOM     11  C   UNL     1      -4.985  -1.449   4.048  0.00  0.00    +0.046 A 
ATOM     12  C   UNL     1      -5.022  -1.539   2.672  0.00  0.00    +0.015 A 
BRANCH  10  13
ATOM     13  O   UNL     1      -5.851  -2.076   6.172  0.00  0.00    -0.495 OA
ATOM     14  C   UNL     1      -4.846  -1.232   6.736  0.00  0.00    +0.277 C 
ENDBRANCH  10  13
ENDBRANCH   3   7
BRANCH   2  15
ATOM     15  C   UNL     1      -3.677  -1.625   0.045  0.00  0.00    +0.126 C 
BRANCH  15  16
ATOM     16  C   UNL     1      -3.676  -0.095   0.005  0.00  0.00    +0.021 C 
BRANCH  16  18
ATOM     17  C   UNL     1      -2.279   1.953   0.318  0.00  0.00    +0.004 C 
ATOM     18  C   UNL     1      -2.280   0.423   0.359  0.00  0.00    -0.002 C 
ENDBRANCH  16  18
ENDBRANCH  15  16
ENDBRANCH   2  15
ENDBRANCH   1   6
BRANCH   1  19
ATOM     19  C   UNL     1      -5.876  -2.626  -4.325  0.00  0.00    +0.113 C 
BRANCH  19  20
ATOM     20  C   UNL     1      -5.269  -2.476  -5.696  0.00  0.00    -0.020 A 
ATOM     21  C   UNL     1      -5.105  -1.227  -6.262  0.00  0.00    +0.092 A 
ATOM     22  C   UNL     1      -4.545  -1.108  -7.525  0.00  0.00    +0.285 A 
ATOM     23  O   UNL     1      -4.155  -2.183  -8.218  0.00  0.00    -0.425 OA
ATOM     24  C   UNL     1      -4.292  -3.427  -7.713  0.00  0.00    +0.141 A 
ATOM     25  C   UNL     1      -4.851  -3.607  -6.428  0.00  0.00    +0.022 A 
ATOM     26  C   UNL     1      -4.991  -4.901  -5.896  0.00  0.00    +0.013 A 
ATOM     27  C   UNL     1      -4.583  -5.978  -6.616  0.00  0.00    +0.024 A 
ATOM     28  C   UNL     1      -4.020  -5.808  -7.893  0.00  0.00    +0.037 A 
ATOM     29  C   UNL     1      -3.885  -4.531  -8.440  0.00  0.00    +0.070 A 
ATOM     30  N   UNL     1      -3.614  -6.895  -8.605  0.00  0.00    -0.286 N 
ATOM     31  C   UNL     1      -2.800  -6.745  -9.632  0.00  0.00    +0.214 C 
ATOM     32  O   UNL     1      -2.315  -5.654  -9.870  0.00  0.00    -0.276 OA
ATOM     33  C   UNL     1      -2.471  -7.925 -10.510  0.00  0.00    +0.109 C 
ATOM     34  H   UNL     1      -3.924  -7.780  -8.356  0.00  0.00    +0.155 HD
BRANCH  22  35
ATOM     35  O   UNL     1      -4.391   0.116  -8.066  0.00  0.00    -0.480 OA
ATOM     36  H   UNL     1      -3.993   0.110  -8.947  0.00  0.00    +0.295 HD
ENDBRANCH  22  35
ENDBRANCH  19  20
ENDBRANCH   1  19
TORSDOF 9
