REMARK  Name = ZINC14257506
REMARK  11 active torsions:
REMARK  status: ('A' for Active; 'I' for Inactive)
REMARK    1  A    between atoms: C_1  and  C_2
REMARK    2  A    between atoms: C_3  and  C_14
REMARK    3  A    between atoms: C_4  and  O_13
REMARK    4  A    between atoms: N_5  and  C_7
REMARK    5  A    between atoms: C_14  and  C_15
REMARK    6  A    between atoms: C_14  and  C_23
REMARK    7  A    between atoms: C_18  and  S_21
REMARK    8  A    between atoms: S_21  and  C_22
REMARK    9  A    between atoms: C_24  and  C_35
REMARK   10  A    between atoms: N_26  and  C_29
REMARK   11  A    between atoms: C_27  and  O_28
REMARK                            x       y       z     vdW  Elec       q    Type
REMARK                         _______ _______ _______ _____ _____    ______ ____
ROOT
ATOM      1  C   UNL     1       2.365   7.280   0.490  0.00  0.00    +0.093 C 
ENDROOT
BRANCH   1   4
ATOM      2  C   UNL     1       0.511   5.098   1.841  0.00  0.00    +0.068 C 
ATOM      3  C   UNL     1       1.040   5.056   0.431  0.00  0.00    +0.068 A 
ATOM      4  C   UNL     1       1.859   6.021  -0.164  0.00  0.00    +0.048 A 
ATOM      5  C   UNL     1       2.117   5.621  -1.438  0.00  0.00    +0.220 A 
ATOM      6  N   UNL     1       1.477   4.438  -1.633  0.00  0.00    -0.200 N 
ATOM      7  N   UNL     1       0.806   4.113  -0.446  0.00  0.00    -0.168 NA
BRANCH   6   8
ATOM      8  C   UNL     1       1.482   3.680  -2.812  0.00  0.00    +0.069 A 
ATOM      9  C   UNL     1       1.467   2.293  -2.748  0.00  0.00    +0.028 A 
ATOM     10  C   UNL     1       1.472   1.550  -3.912  0.00  0.00    +0.002 A 
ATOM     11  C   UNL     1       1.492   2.185  -5.140  0.00  0.00    +0.000 A 
ATOM     12  C   UNL     1       1.507   3.567  -5.207  0.00  0.00    +0.002 A 
ATOM     13  C   UNL     1       1.503   4.316  -4.046  0.00  0.00    +0.028 A 
ENDBRANCH   6   8
BRANCH   5  14
ATOM     14  O   UNL     1       2.876   6.283  -2.348  0.00  0.00    -0.492 OA
ATOM     15  H   UNL     1       2.370   6.857  -2.939  0.00  0.00    +0.294 HD
ENDBRANCH   5  14
ENDBRANCH   1   4
BRANCH   1  16
ATOM     16  C   UNL     1       3.595   7.763  -0.234  0.00  0.00    -0.035 A 
ATOM     17  C   UNL     1       3.692   9.087  -0.622  0.00  0.00    +0.005 A 
ATOM     18  C   UNL     1       4.820   9.534  -1.282  0.00  0.00    +0.015 A 
ATOM     19  C   UNL     1       5.854   8.649  -1.564  0.00  0.00    +0.008 A 
ATOM     20  C   UNL     1       5.751   7.319  -1.177  0.00  0.00    +0.015 A 
ATOM     21  C   UNL     1       4.622   6.880  -0.513  0.00  0.00    +0.005 A 
BRANCH  19  22
ATOM     22  S   UNL     1       7.292   9.213  -2.412  0.00  0.00    -0.129 S 
ATOM     23  C   UNL     1       6.970  10.975  -2.699  0.00  0.00    +0.090 C 
ENDBRANCH  19  22
ENDBRANCH   1  16
BRANCH   1  24
ATOM     24  C   UNL     1       2.708   6.995   1.930  0.00  0.00    +0.048 A 
ATOM     25  C   UNL     1       2.245   7.704   3.042  0.00  0.00    +0.068 A 
ATOM     26  N   UNL     1       2.758   7.166   4.119  0.00  0.00    -0.168 NA
ATOM     27  N   UNL     1       3.568   6.091   3.732  0.00  0.00    -0.200 N 
ATOM     28  C   UNL     1       3.519   6.000   2.377  0.00  0.00    +0.220 A 
ATOM     29  C   UNL     1       1.314   8.889   3.007  0.00  0.00    +0.068 C 
BRANCH  27  30
ATOM     30  C   UNL     1       4.296   5.254   4.590  0.00  0.00    +0.069 A 
ATOM     31  C   UNL     1       4.444   3.907   4.288  0.00  0.00    +0.028 A 
ATOM     32  C   UNL     1       5.166   3.087   5.133  0.00  0.00    +0.002 A 
ATOM     33  C   UNL     1       5.732   3.604   6.284  0.00  0.00    +0.000 A 
ATOM     34  C   UNL     1       5.581   4.944   6.591  0.00  0.00    +0.002 A 
ATOM     35  C   UNL     1       4.865   5.770   5.747  0.00  0.00    +0.028 A 
ENDBRANCH  27  30
BRANCH  28  36
ATOM     36  O   UNL     1       4.164   5.084   1.609  0.00  0.00    -0.492 OA
ATOM     37  H   UNL     1       5.080   5.317   1.405  0.00  0.00    +0.294 HD
ENDBRANCH  28  36
ENDBRANCH   1  24
TORSDOF 8
