REMARK  Name = ZINC19563014
REMARK  7 active torsions:
REMARK  status: ('A' for Active; 'I' for Inactive)
REMARK    1  A    between atoms: C_1  and  O_2
REMARK    2  A    between atoms: O_2  and  C_3
REMARK    3  A    between atoms: N_13  and  C_16
REMARK    4  A    between atoms: C_16  and  C_17
REMARK    5  A    between atoms: C_17  and  C_19
REMARK    6  A    between atoms: C_17  and  O_27
REMARK    7  A    between atoms: C_29  and  O_31
REMARK                            x       y       z     vdW  Elec       q    Type
REMARK                         _______ _______ _______ _____ _____    ______ ____
ROOT
ATOM      1  C   UNL     1      -2.748  -3.750   6.041  0.00  0.00    +0.124 A 
ATOM      2  C   UNL     1      -1.695  -4.529   6.499  0.00  0.00    +0.046 A 
ATOM      3  C   UNL     1      -0.420  -4.003   6.552  0.00  0.00    +0.013 A 
ATOM      4  C   UNL     1      -0.183  -2.699   6.150  0.00  0.00    +0.023 A 
ATOM      5  C   UNL     1      -1.230  -1.916   5.695  0.00  0.00    +0.130 A 
ATOM      6  C   UNL     1      -2.515  -2.446   5.639  0.00  0.00    +0.091 A 
ATOM      7  O   UNL     1      -1.043  -0.629   5.300  0.00  0.00    -0.485 OA
ATOM      8  C   UNL     1       0.289  -0.205   5.016  0.00  0.00    +0.110 C 
ATOM      9  C   UNL     1       0.328   1.317   4.871  0.00  0.00    +0.029 C 
ATOM     10  C   UNL     1      -0.530   1.734   3.675  0.00  0.00    -0.075 C 
ATOM     11  N   UNL     1      -0.018   1.093   2.457  0.00  0.00    +0.382 N 
ATOM     12  C   UNL     1      -0.096  -0.370   2.555  0.00  0.00    -0.075 C 
ATOM     13  C   UNL     1       0.774  -0.853   3.718  0.00  0.00    +0.029 C 
ATOM     14  C   UNL     1       1.198  -0.634   6.173  0.00  0.00    +0.084 C 
ATOM     15  C   UNL     1       1.225  -2.164   6.221  0.00  0.00    +0.152 C 
ATOM     16  H   UNL     1       1.042   1.366   2.355  0.00  0.00    -0.082 HD
ENDROOT
BRANCH   1  18
ATOM     17  C   UNL     1      -4.169  -5.618   6.417  0.00  0.00    +0.277 C 
ATOM     18  O   UNL     1      -4.004  -4.265   5.987  0.00  0.00    -0.495 OA
ENDBRANCH   1  18
BRANCH  15  19
ATOM     19  O   UNL     1       1.835  -2.590   7.441  0.00  0.00    -0.387 OA
ATOM     20  H   UNL     1       2.869  -2.296   7.671  0.00  0.00    +0.210 HD
ENDBRANCH  15  19
BRANCH  11  21
ATOM     21  C   UNL     1      -0.729   1.579   1.267  0.00  0.00    -0.042 C 
BRANCH  21  22
ATOM     22  C   UNL     1      -0.013   1.086   0.008  0.00  0.00    +0.128 C 
BRANCH  22  23
ATOM     23  C   UNL     1      -0.742   1.585  -1.213  0.00  0.00    -0.019 A 
ATOM     24  C   UNL     1      -0.474   2.848  -1.709  0.00  0.00    +0.007 A 
ATOM     25  C   UNL     1      -1.138   3.304  -2.832  0.00  0.00    +0.022 A 
ATOM     26  C   UNL     1      -2.079   2.503  -3.454  0.00  0.00    +0.059 A 
ATOM     27  C   UNL     1      -2.350   1.241  -2.953  0.00  0.00    +0.060 A 
ATOM     28  C   UNL     1      -1.681   0.783  -1.832  0.00  0.00    +0.027 A 
ATOM     29 CL   UNL     1      -3.530   0.234  -3.732  0.00  0.00    -0.082 Cl
ATOM     30 CL   UNL     1      -2.917   3.079  -4.860  0.00  0.00    -0.082 Cl
ENDBRANCH  22  23
BRANCH  22  31
ATOM     31  O   UNL     1       1.328   1.580  -0.002  0.00  0.00    -0.389 OA
ATOM     32  H   UNL     1       2.001   1.328  -0.835  0.00  0.00    +0.210 HD
ENDBRANCH  22  31
ENDBRANCH  21  22
ENDBRANCH  11  21
TORSDOF 6
