REMARK  Name = ZINC39671077
REMARK  10 active torsions:
REMARK  status: ('A' for Active; 'I' for Inactive)
REMARK    1  A    between atoms: C_1  and  C_2
REMARK    2  A    between atoms: C_2  and  C_3
REMARK    3  A    between atoms: C_2  and  C_4
REMARK    4  A    between atoms: C_4  and  C_6
REMARK    5  A    between atoms: C_4  and  O_29
REMARK    6  A    between atoms: C_10  and  C_19
REMARK    7  A    between atoms: N_21  and  C_22
REMARK    8  A    between atoms: C_22  and  C_23
REMARK    9  A    between atoms: C_23  and  C_24
REMARK   10  A    between atoms: O_29  and  C_30
REMARK                            x       y       z     vdW  Elec       q    Type
REMARK                         _______ _______ _______ _____ _____    ______ ____
ROOT
ATOM      1  C   UNL     1       0.827  -1.579   0.868  0.00  0.00    +0.257 C 
ATOM      2  O   UNL     1       0.251  -2.370   1.584  0.00  0.00    -0.272 OA
ATOM      3  N   UNL     1       1.619  -2.025  -0.128  0.00  0.00    -0.297 N 
ATOM      4  C   UNL     1       2.490  -1.227  -1.022  0.00  0.00    +0.121 C 
ATOM      5  C   UNL     1       3.768  -2.080  -1.186  0.00  0.00    +0.100 C 
ATOM      6  C   UNL     1       3.317  -3.521  -0.894  0.00  0.00    -0.004 C 
ATOM      7  C   UNL     1       1.818  -3.425  -0.572  0.00  0.00    +0.115 C 
ATOM      8  C   UNL     1       4.073  -4.079   0.308  0.00  0.00    -0.010 C 
ATOM      9  C   UNL     1       3.649  -5.531   0.543  0.00  0.00    -0.082 C 
ATOM     10  N   UNL     1       3.939  -6.328  -0.655  0.00  0.00    +0.379 N 
ATOM     11  C   UNL     1       3.138  -5.843  -1.785  0.00  0.00    -0.082 C 
ATOM     12  C   UNL     1       3.540  -4.403  -2.118  0.00  0.00    -0.010 C 
ATOM     13  H   UNL     1       4.920  -6.248  -0.881  0.00  0.00    -0.086 HD
ATOM     14  H   UNL     1       3.716  -7.295  -0.476  0.00  0.00    -0.086 HD
ENDROOT
BRANCH   5  15
ATOM     15  C   UNL     1       4.297  -1.968  -2.592  0.00  0.00    +0.218 C 
ATOM     16  O   UNL     1       3.542  -1.709  -3.505  0.00  0.00    -0.275 OA
ATOM     17  N   UNL     1       5.609  -2.156  -2.835  0.00  0.00    -0.315 N 
ATOM     18  H   UNL     1       6.213  -2.364  -2.105  0.00  0.00    +0.149 HD
BRANCH  17  19
ATOM     19  C   UNL     1       6.124  -2.048  -4.203  0.00  0.00    +0.112 C 
BRANCH  19  20
ATOM     20  C   UNL     1       7.632  -2.304  -4.202  0.00  0.00    +0.093 C 
BRANCH  20  21
ATOM     21  C   UNL     1       8.161  -2.192  -5.609  0.00  0.00    +0.106 A 
ATOM     22  C   UNL     1       8.624  -1.070  -6.188  0.00  0.00    +0.044 A 
ATOM     23  C   UNL     1       9.015  -1.418  -7.501  0.00  0.00    +0.041 A 
ATOM     24  C   UNL     1       8.768  -2.732  -7.646  0.00  0.00    +0.195 A 
ATOM     25  O   UNL     1       8.257  -3.197  -6.494  0.00  0.00    -0.468 OA
ENDBRANCH  20  21
ENDBRANCH  19  20
ENDBRANCH  17  19
ENDBRANCH   5  15
BRANCH   1  26
ATOM     26  C   UNL     1       0.659  -0.098   1.091  0.00  0.00    +0.261 C 
BRANCH  26  28
ATOM     27  C   UNL     1      -0.543   1.955   0.328  0.00  0.00    +0.011 C 
ATOM     28  C   UNL     1      -0.413   0.442   0.142  0.00  0.00    +0.033 C 
ATOM     29  C   UNL     1      -0.014   0.138  -1.304  0.00  0.00    +0.011 C 
ENDBRANCH  26  28
BRANCH  26  30
ATOM     30  O   UNL     1       0.261   0.138   2.443  0.00  0.00    -0.479 OA
BRANCH  30  31
ATOM     31  C   UNL     1       0.843   1.185   3.084  0.00  0.00    +0.122 A 
ATOM     32  C   UNL     1       0.599   1.396   4.433  0.00  0.00    +0.045 A 
ATOM     33  C   UNL     1       1.192   2.462   5.082  0.00  0.00    +0.004 A 
ATOM     34  C   UNL     1       2.027   3.318   4.388  0.00  0.00    +0.000 A 
ATOM     35  C   UNL     1       2.271   3.110   3.043  0.00  0.00    +0.004 A 
ATOM     36  C   UNL     1       1.685   2.042   2.391  0.00  0.00    +0.045 A 
ENDBRANCH  30  31
ENDBRANCH  26  30
ENDBRANCH   1  26
TORSDOF 8
