REMARK  Name = ZINC08790570
REMARK  11 active torsions:
REMARK  status: ('A' for Active; 'I' for Inactive)
REMARK    1  A    between atoms: C_1  and  C_2
REMARK    2  A    between atoms: C_2  and  C_3
REMARK    3  A    between atoms: C_17  and  C_19
REMARK    4  A    between atoms: C_19  and  C_20
REMARK    5  A    between atoms: N_25  and  C_28
REMARK    6  A    between atoms: C_28  and  C_29
REMARK    7  A    between atoms: C_29  and  C_30
REMARK    8  A    between atoms: C_33  and  O_38
REMARK    9  A    between atoms: C_34  and  O_36
REMARK   10  A    between atoms: O_36  and  C_37
REMARK   11  A    between atoms: O_38  and  C_39
REMARK                            x       y       z     vdW  Elec       q    Type
REMARK                         _______ _______ _______ _____ _____    ______ ____
ROOT
ATOM      1  C   UNL     1      -0.047   3.844   0.022  0.00  0.00    -0.026 A 
ATOM      2  C   UNL     1       1.155   3.166   0.008  0.00  0.00    +0.005 A 
ATOM      3  C   UNL     1       1.177   1.784   0.000  0.00  0.00    +0.001 A 
ATOM      4  C   UNL     1      -0.013   1.076   0.008  0.00  0.00    +0.004 A 
ATOM      5  C   UNL     1      -1.214   1.747   0.017  0.00  0.00    -0.027 A 
ATOM      6  C   UNL     1      -1.248   3.139   0.029  0.00  0.00    +0.039 A 
ATOM      7  N   UNL     1      -2.570   3.590   0.041  0.00  0.00    -0.286 N 
ATOM      8  C   UNL     1      -3.454   2.573   0.030  0.00  0.00    +0.211 C 
ATOM      9  O   UNL     1      -4.663   2.664   0.034  0.00  0.00    -0.277 OA
ATOM     10  C   UNL     1      -2.649   1.302   0.026  0.00  0.00    +0.050 C 
ATOM     11  C   UNL     1      -2.979   0.433  -1.194  0.00  0.00    +0.088 C 
ATOM     12  C   UNL     1      -3.990  -0.621  -0.663  0.00  0.00    +0.073 C 
ATOM     13  C   UNL     1      -4.183  -0.267   0.828  0.00  0.00    -0.049 C 
ATOM     14  C   UNL     1      -5.259  -0.296  -1.417  0.00  0.00    +0.224 C 
ATOM     15  O   UNL     1      -6.312  -0.887  -1.304  0.00  0.00    -0.275 OA
ATOM     16  N   UNL     1      -5.041   0.744  -2.229  0.00  0.00    -0.241 N 
ATOM     17  C   UNL     1      -3.795   1.232  -2.184  0.00  0.00    +0.225 C 
ATOM     18  O   UNL     1      -3.386   2.168  -2.837  0.00  0.00    -0.275 OA
ATOM     19  H   UNL     1      -2.823   4.526   0.044  0.00  0.00    +0.155 HD
ATOM     20  N   UNL     1      -2.969   0.474   1.176  0.00  0.00    +0.394 N 
ATOM     21  H   UNL     1      -3.136   1.062   2.001  0.00  0.00    -0.083 HD
ATOM     22  H   UNL     1      -2.199  -0.177   1.369  0.00  0.00    -0.083 HD
ENDROOT
BRANCH   1  24
ATOM     23  C   UNL     1      -0.177   5.852   1.470  0.00  0.00    +0.009 C 
ATOM     24  C   UNL     1      -0.060   5.350   0.029  0.00  0.00    +0.033 C 
ENDBRANCH   1  24
BRANCH  13  25
ATOM     25  C   UNL     1      -4.319  -1.541   1.664  0.00  0.00    +0.080 C 
BRANCH  25  26
ATOM     26  C   UNL     1      -4.553  -1.173   3.106  0.00  0.00    +0.209 C 
ATOM     27  O   UNL     1      -4.606  -0.006   3.433  0.00  0.00    -0.276 OA
ATOM     28  N   UNL     1      -4.703  -2.140   4.033  0.00  0.00    -0.329 N 
ATOM     29  H   UNL     1      -4.661  -3.073   3.771  0.00  0.00    +0.145 HD
ATOM     30  H   UNL     1      -4.854  -1.903   4.961  0.00  0.00    +0.145 HD
ENDBRANCH  25  26
ENDBRANCH  13  25
BRANCH  16  31
ATOM     31  C   UNL     1      -6.080   1.304  -3.097  0.00  0.00    +0.121 C 
BRANCH  31  32
ATOM     32  C   UNL     1      -6.834   2.403  -2.346  0.00  0.00    +0.054 C 
BRANCH  32  33
ATOM     33  C   UNL     1      -7.903   2.979  -3.239  0.00  0.00    -0.042 A 
ATOM     34  C   UNL     1      -9.171   2.429  -3.239  0.00  0.00    +0.007 A 
ATOM     35  C   UNL     1     -10.155   2.954  -4.056  0.00  0.00    +0.049 A 
ATOM     36  C   UNL     1      -9.871   4.034  -4.876  0.00  0.00    +0.161 A 
ATOM     37  C   UNL     1      -8.595   4.588  -4.876  0.00  0.00    +0.162 A 
ATOM     38  C   UNL     1      -7.614   4.060  -4.051  0.00  0.00    +0.053 A 
BRANCH  37  39
ATOM     39  O   UNL     1      -8.311   5.647  -5.679  0.00  0.00    -0.491 OA
ATOM     40  C   UNL     1      -6.980   6.164  -5.626  0.00  0.00    +0.277 C 
ENDBRANCH  37  39
BRANCH  36  41
ATOM     41  O   UNL     1     -10.838   4.551  -5.680  0.00  0.00    -0.491 OA
ATOM     42  C   UNL     1     -12.125   3.933  -5.628  0.00  0.00    +0.277 C 
ENDBRANCH  36  41
ENDBRANCH  32  33
ENDBRANCH  31  32
ENDBRANCH  16  31
TORSDOF 8
