REMARK  Name = ZINC33626391
REMARK  10 active torsions:
REMARK  status: ('A' for Active; 'I' for Inactive)
REMARK    1  A    between atoms: C_1  and  C_2
REMARK    2  A    between atoms: C_2  and  C_3
REMARK    3  A    between atoms: C_7  and  C_38
REMARK    4  A    between atoms: C_8  and  N_9
REMARK    5  A    between atoms: C_14  and  C_27
REMARK    6  A    between atoms: C_17  and  C_22
REMARK    7  A    between atoms: C_17  and  C_24
REMARK    8  A    between atoms: C_22  and  O_23
REMARK    9  A    between atoms: C_30  and  N_33
REMARK   10  A    between atoms: C_38  and  C_39
REMARK                            x       y       z     vdW  Elec       q    Type
REMARK                         _______ _______ _______ _____ _____    ______ ____
ROOT
ATOM      1  N   UNL     1       0.403   3.757  -0.392  0.00  0.00    -0.209 N 
ATOM      2  C   UNL     1       1.513   3.321   0.273  0.00  0.00    +0.229 C 
ATOM      3  O   UNL     1       2.269   3.985   0.949  0.00  0.00    -0.275 OA
ATOM      4  C   UNL     1       1.605   1.846  -0.006  0.00  0.00    +0.077 C 
ATOM      5  C   UNL     1       1.956   0.882   1.124  0.00  0.00    -0.027 C 
ATOM      6  N   UNL     1       1.006  -0.261   0.984  0.00  0.00    +0.397 N 
ATOM      7  C   UNL     1      -0.012   0.112  -0.058  0.00  0.00    +0.071 C 
ATOM      8  C   UNL     1       0.048   1.583  -0.038  0.00  0.00    +0.088 C 
ATOM      9  C   UNL     1      -0.427   2.730  -0.770  0.00  0.00    +0.229 C 
ATOM     10  O   UNL     1      -1.356   2.778  -1.547  0.00  0.00    -0.275 OA
ATOM     11  H   UNL     1       1.558  -1.160   0.673  0.00  0.00    -0.083 HD
ATOM     12  H   UNL     1       0.513  -0.449   1.949  0.00  0.00    -0.083 HD
ENDROOT
BRANCH   1  18
ATOM     13  C   UNL     1      -0.586   5.868   0.247  0.00  0.00    -0.026 A 
ATOM     14  C   UNL     1      -0.839   7.200  -0.017  0.00  0.00    +0.005 A 
ATOM     15  C   UNL     1      -0.382   7.773  -1.190  0.00  0.00    +0.001 A 
ATOM     16  C   UNL     1       0.335   7.016  -2.098  0.00  0.00    +0.005 A 
ATOM     17  C   UNL     1       0.597   5.685  -1.837  0.00  0.00    -0.026 A 
ATOM     18  C   UNL     1       0.139   5.107  -0.661  0.00  0.00    +0.050 A 
BRANCH  13  20
ATOM     19  C   UNL     1       0.010   5.292   2.584  0.00  0.00    +0.009 C 
ATOM     20  C   UNL     1      -1.091   5.243   1.522  0.00  0.00    +0.033 C 
ENDBRANCH  13  20
BRANCH  17  21
ATOM     21  C   UNL     1       1.379   4.862  -2.827  0.00  0.00    +0.033 C 
ATOM     22  C   UNL     1       0.411   4.113  -3.745  0.00  0.00    +0.009 C 
ENDBRANCH  17  21
ENDBRANCH   1  18
BRANCH   5  23
ATOM     23  C   UNL     1       1.770   1.554   2.461  0.00  0.00    -0.060 A 
ATOM     24  C   UNL     1       2.847   2.153   3.088  0.00  0.00    +0.004 A 
ATOM     25  C   UNL     1       2.678   2.774   4.310  0.00  0.00    +0.023 A 
ATOM     26  C   UNL     1       1.427   2.786   4.914  0.00  0.00    +0.030 A 
ATOM     27  C   UNL     1       0.349   2.178   4.284  0.00  0.00    +0.023 A 
ATOM     28  C   UNL     1       0.523   1.564   3.060  0.00  0.00    +0.004 A 
BRANCH  26  29
ATOM     29  N   UNL     1       1.254   3.409   6.152  0.00  0.00    -0.330 N 
ATOM     30  C   UNL     1       2.060   2.736   7.204  0.00  0.00    +0.105 C 
ATOM     31  C   UNL     1       2.171   3.816   8.310  0.00  0.00    +0.020 C 
ATOM     32  C   UNL     1       2.317   5.125   7.501  0.00  0.00    +0.020 C 
ATOM     33  C   UNL     1       1.731   4.809   6.113  0.00  0.00    +0.105 C 
ENDBRANCH  26  29
ENDBRANCH   5  23
BRANCH   7  34
ATOM     34  C   UNL     1      -1.383  -0.374   0.333  0.00  0.00    +0.348 C 
ATOM     35  O   UNL     1      -2.346   0.339   0.174  0.00  0.00    -0.248 OA
ATOM     36  O   UNL     1      -1.536  -1.600   0.859  0.00  0.00    -0.248 OA
ENDBRANCH   7  34
BRANCH   7  37
ATOM     37  C   UNL     1       0.389  -0.431  -1.431  0.00  0.00    +0.155 C 
BRANCH  37  38
ATOM     38  O   UNL     1       0.320  -1.858  -1.417  0.00  0.00    -0.396 OA
ATOM     39  H   UNL     1       0.575  -2.430  -2.322  0.00  0.00    +0.209 HD
ENDBRANCH  37  38
ENDBRANCH   7  37
TORSDOF 8
