REMARK  Name = ZINC63350865
REMARK  4 active torsions:
REMARK  status: ('A' for Active; 'I' for Inactive)
REMARK    1  A    between atoms: C_1  and  C_2
REMARK    2  A    between atoms: C_2  and  C_3
REMARK    3  A    between atoms: C_6  and  N_9
REMARK    4  A    between atoms: C_12  and  C_19
REMARK                            x       y       z     vdW  Elec       q    Type
REMARK                         _______ _______ _______ _____ _____    ______ ____
ROOT
ATOM      1  N   UNL     1       2.722  -2.020   4.567  0.00  0.00    -0.256 N 
ATOM      2  C   UNL     1       2.055  -2.175   5.728  0.00  0.00    +0.268 A 
ATOM      3  O   UNL     1       0.845  -2.032   5.764  0.00  0.00    -0.267 OA
ATOM      4  C   UNL     1       2.764  -2.503   6.897  0.00  0.00    +0.101 A 
ATOM      5  C   UNL     1       4.117  -2.659   6.829  0.00  0.00    +0.261 A 
ATOM      6  N   UNL     1       4.757  -2.491   5.627  0.00  0.00    -0.302 N 
ATOM      7  H   UNL     1       5.719  -2.601   5.574  0.00  0.00    +0.171 HD
ATOM      8  C   UNL     1       4.057  -2.182   4.520  0.00  0.00    +0.168 A 
ATOM      9  S   UNL     1       4.878  -1.987   3.031  0.00  0.00    -0.012 S 
ATOM     10  O   UNL     1       4.822  -2.974   7.936  0.00  0.00    -0.267 OA
ENDROOT
BRANCH   4  11
ATOM     11  C   UNL     1       2.039  -2.682   8.206  0.00  0.00    +0.121 C 
ATOM     12  C   UNL     1       2.352  -4.064   8.784  0.00  0.00    +0.128 C 
ATOM     13  C   UNL     1       3.836  -4.054   9.133  0.00  0.00    -0.035 C 
ATOM     14  C   UNL     1       4.371  -5.100   8.519  0.00  0.00    -0.001 A 
ATOM     15  C   UNL     1       5.732  -5.661   8.542  0.00  0.00    +0.010 A 
ATOM     16  C   UNL     1       5.942  -6.757   7.766  0.00  0.00    +0.001 A 
ATOM     17  C   UNL     1       4.947  -7.344   6.978  0.00  0.00    +0.002 A 
ATOM     18  C   UNL     1       3.667  -6.899   6.901  0.00  0.00    +0.026 A 
ATOM     19  C   UNL     1       3.323  -5.755   7.678  0.00  0.00    +0.043 A 
ATOM     20  N   UNL     1       2.165  -5.137   7.810  0.00  0.00    -0.376 N 
ATOM     21  C   UNL     1       4.451  -2.942   9.947  0.00  0.00    +0.048 C 
ATOM     22  C   UNL     1       3.951  -1.626   9.323  0.00  0.00    +0.086 C 
ATOM     23  N   UNL     1       2.493  -1.663   9.166  0.00  0.00    -0.307 NA
ATOM     24  H   UNL     1       2.131  -0.753   8.926  0.00  0.00    +0.123 HD
ATOM     25  H   UNL     1       1.338  -5.346   7.347  0.00  0.00    +0.160 HD
ENDBRANCH   4  11
BRANCH   1  29
ATOM     26  C   UNL     1       0.632  -1.045   1.096  0.00  0.00    -0.047 A 
ATOM     27  C   UNL     1       0.830  -2.372   1.433  0.00  0.00    +0.005 A 
ATOM     28  C   UNL     1       1.522  -2.698   2.583  0.00  0.00    +0.026 A 
ATOM     29  C   UNL     1       2.020  -1.692   3.400  0.00  0.00    +0.052 A 
ATOM     30  C   UNL     1       1.820  -0.361   3.059  0.00  0.00    +0.026 A 
ATOM     31  C   UNL     1       1.132  -0.042   1.905  0.00  0.00    +0.005 A 
BRANCH  26  33
ATOM     32  C   UNL     1       0.855  -0.586  -1.331  0.00  0.00    +0.009 C 
ATOM     33  C   UNL     1      -0.124  -0.693  -0.160  0.00  0.00    +0.032 C 
ENDBRANCH  26  33
ENDBRANCH   1  29
TORSDOF 3
