REMARK  Name = ZINC02027561
REMARK  1 active torsions:
REMARK  status: ('A' for Active; 'I' for Inactive)
REMARK    1  A    between atoms: C_5  and  S_7
REMARK                            x       y       z     vdW  Elec       q    Type
REMARK                         _______ _______ _______ _____ _____    ______ ____
ROOT
ATOM      1  C   UNL     1       0.851   5.437  -1.126  0.00  0.00    +0.037 A 
ATOM      2  C   UNL     1       0.780   6.048   0.108  0.00  0.00    +0.112 A 
ATOM      3  N   UNL     1       0.883   5.342   1.219  0.00  0.00    -0.261 NA
ATOM      4  C   UNL     1       1.058   4.034   1.202  0.00  0.00    +0.141 A 
ATOM      5  C   UNL     1       1.138   3.347   0.009  0.00  0.00    +0.152 A 
ATOM      6  C   UNL     1       1.039   4.056  -1.189  0.00  0.00    +0.049 A 
ATOM      7  S   UNL     1       1.143   3.228  -2.741  0.00  0.00    -0.050 SA
ENDROOT
BRANCH   5   8
ATOM      8  S   UNL     1       1.371   1.601  -0.002  0.00  0.00    +0.142 S 
ATOM      9  O   UNL     1       1.982   1.264   1.235  0.00  0.00    -0.140 OA
ATOM     10  O   UNL     1       1.958   1.278  -1.255  0.00  0.00    -0.140 OA
ATOM     11  O   UNL     1      -0.011   0.963   0.007  0.00  0.00    -0.043 OA
ENDBRANCH   5   8
TORSDOF 1
