REMARK  Name = ZINC00636528
REMARK  9 active torsions:
REMARK  status: ('A' for Active; 'I' for Inactive)
REMARK    1  A    between atoms: C_1  and  C_2
REMARK    2  A    between atoms: C_2  and  O_3
REMARK    3  A    between atoms: O_3  and  C_4
REMARK    4  A    between atoms: C_4  and  C_6
REMARK    5  A    between atoms: C_7  and  C_36
REMARK    6  A    between atoms: C_14  and  C_15
REMARK    7  A    between atoms: C_18  and  O_22
REMARK    8  A    between atoms: C_20  and  O_21
REMARK    9  A    between atoms: C_24  and  C_26
REMARK                            x       y       z     vdW  Elec       q    Type
REMARK                         _______ _______ _______ _____ _____    ______ ____
ROOT
ATOM      1  C   UNL     1      -2.755   8.175   0.800  0.00  0.00    +0.085 C 
ATOM      2  C   UNL     1      -1.474   8.481   0.434  0.00  0.00    +0.053 C 
ATOM      3  N   UNL     1      -0.628   7.523   0.077  0.00  0.00    -0.228 NA
ATOM      4  C   UNL     1      -0.916   6.246   0.042  0.00  0.00    +0.178 A 
ATOM      5  N   UNL     1      -2.146   5.725   0.371  0.00  0.00    -0.275 N 
ATOM      6  C   UNL     1      -2.323   4.400   0.295  0.00  0.00    +0.268 A 
ATOM      7  O   UNL     1      -3.393   3.893   0.577  0.00  0.00    -0.266 OA
ATOM      8  C   UNL     1      -1.188   3.576  -0.137  0.00  0.00    +0.081 A 
ATOM      9  C   UNL     1      -1.109   2.227  -0.294  0.00  0.00    +0.032 C 
ATOM     10  S   UNL     1       0.064   4.823  -0.395  0.00  0.00    -0.046 S 
ATOM     11  C   UNL     1      -3.172   6.723   0.786  0.00  0.00    +0.162 C 
ATOM     12  C   UNL     1      -1.020   9.918   0.434  0.00  0.00    +0.066 C 
ENDROOT
BRANCH  11  13
ATOM     13  C   UNL     1      -4.352   6.587  -0.141  0.00  0.00    -0.012 A 
ATOM     14  C   UNL     1      -4.172   6.637  -1.489  0.00  0.00    +0.006 A 
ATOM     15  C   UNL     1      -5.250   6.509  -2.362  0.00  0.00    +0.001 A 
ATOM     16  C   UNL     1      -6.516   6.341  -1.892  0.00  0.00    +0.008 A 
ATOM     17  C   UNL     1      -6.742   6.290  -0.507  0.00  0.00    -0.018 A 
ATOM     18  C   UNL     1      -5.645   6.415   0.382  0.00  0.00    -0.012 A 
ATOM     19  C   UNL     1      -5.871   6.364   1.768  0.00  0.00    +0.009 A 
ATOM     20  C   UNL     1      -7.137   6.195   2.238  0.00  0.00    +0.001 A 
ATOM     21  C   UNL     1      -8.216   6.072   1.364  0.00  0.00    +0.001 A 
ATOM     22  C   UNL     1      -8.035   6.117   0.016  0.00  0.00    +0.008 A 
ENDBRANCH  11  13
BRANCH   9  23
ATOM     23  C   UNL     1       0.178   1.599  -0.603  0.00  0.00    +0.018 A 
ATOM     24  C   UNL     1       1.374   2.287  -0.356  0.00  0.00    +0.015 A 
ATOM     25  C   UNL     1       2.572   1.702  -0.650  0.00  0.00    +0.046 A 
ATOM     26  C   UNL     1       2.616   0.422  -1.195  0.00  0.00    +0.120 A 
ATOM     27  C   UNL     1       1.442  -0.274  -1.446  0.00  0.00    +0.091 A 
ATOM     28  C   UNL     1       0.220   0.306  -1.153  0.00  0.00    +0.127 A 
BRANCH  28  29
ATOM     29  O   UNL     1      -0.931  -0.370  -1.396  0.00  0.00    -0.506 OA
ATOM     30  H   UNL     1      -1.296  -0.221  -2.279  0.00  0.00    +0.292 HD
ENDBRANCH  28  29
BRANCH  26  31
ATOM     31  O   UNL     1       3.814  -0.149  -1.483  0.00  0.00    -0.507 OA
ATOM     32  H   UNL     1       4.130   0.031  -2.379  0.00  0.00    +0.292 HD
ENDBRANCH  26  31
ENDBRANCH   9  23
BRANCH   1  33
ATOM     33  C   UNL     1      -3.658   9.182   1.178  0.00  0.00    +0.339 C 
ATOM     34  O   UNL     1      -3.270  10.329   1.312  0.00  0.00    -0.245 OA
BRANCH  33  35
ATOM     35  O   UNL     1      -4.957   8.879   1.393  0.00  0.00    -0.462 OA
BRANCH  35  37
ATOM     36  C   UNL     1      -7.233   9.425   1.995  0.00  0.00    +0.048 C 
ATOM     37  C   UNL     1      -5.841   9.968   1.663  0.00  0.00    +0.229 C 
ENDBRANCH  35  37
ENDBRANCH  33  35
ENDBRANCH   1  33
TORSDOF 7
