REMARK  Name = ZINC64190779
REMARK  10 active torsions:
REMARK  status: ('A' for Active; 'I' for Inactive)
REMARK    1  A    between atoms: C_1  and  O_2
REMARK    2  A    between atoms: O_2  and  C_3
REMARK    3  A    between atoms: C_3  and  C_5
REMARK    4  A    between atoms: C_5  and  C_7
REMARK    5  A    between atoms: C_5  and  N_17
REMARK    6  A    between atoms: C_7  and  C_8
REMARK    7  A    between atoms: C_18  and  C_20
REMARK    8  A    between atoms: C_20  and  C_21
REMARK    9  A    between atoms: C_21  and  N_22
REMARK   10  A    between atoms: N_25  and  C_26
REMARK                            x       y       z     vdW  Elec       q    Type
REMARK                         _______ _______ _______ _____ _____    ______ ____
ROOT
ATOM      1  N   UNL     1      -2.643  -2.570   0.013  0.00  0.00    -0.302 N 
ATOM      2  C   UNL     1      -3.328  -2.666  -1.143  0.00  0.00    +0.215 C 
ATOM      3  O   UNL     1      -2.786  -2.393  -2.193  0.00  0.00    -0.276 OA
ATOM      4  H   UNL     1      -3.076  -2.788   0.853  0.00  0.00    +0.150 HD
ENDROOT
BRANCH   1   5
ATOM      5  C   UNL     1      -1.244  -2.135   0.003  0.00  0.00    +0.186 C 
BRANCH   5   6
ATOM      6  C   UNL     1      -1.185  -0.630   0.010  0.00  0.00    +0.328 C 
ATOM      7  O   UNL     1      -2.208   0.015   0.023  0.00  0.00    -0.249 OA
BRANCH   6   9
ATOM      8  C   UNL     1      -0.017   1.425   0.010  0.00  0.00    +0.280 C 
ATOM      9  O   UNL     1       0.002  -0.004   0.002  0.00  0.00    -0.467 OA
ENDBRANCH   6   9
ENDBRANCH   5   6
BRANCH   5  10
ATOM     10  C   UNL     1      -0.531  -2.680   1.242  0.00  0.00    +0.067 C 
BRANCH  10  11
ATOM     11  C   UNL     1      -0.482  -4.184   1.173  0.00  0.00    -0.039 C 
ATOM     12  C   UNL     1       0.535  -4.944   0.706  0.00  0.00    -0.001 A 
ATOM     13  C   UNL     1       1.848  -4.610   0.142  0.00  0.00    +0.010 A 
ATOM     14  C   UNL     1       2.668  -5.612  -0.249  0.00  0.00    +0.001 A 
ATOM     15  C   UNL     1       2.297  -6.958  -0.129  0.00  0.00    +0.002 A 
ATOM     16  C   UNL     1       1.107  -7.343   0.379  0.00  0.00    +0.026 A 
ATOM     17  C   UNL     1       0.166  -6.373   0.822  0.00  0.00    +0.043 A 
ATOM     18  N   UNL     1      -1.032  -6.492   1.341  0.00  0.00    -0.380 N 
ATOM     19  C   UNL     1      -1.556  -5.151   1.619  0.00  0.00    +0.144 C 
ATOM     20  H   UNL     1      -1.492  -7.328   1.516  0.00  0.00    +0.160 HD
ENDBRANCH  10  11
ENDBRANCH   5  10
ENDBRANCH   1   5
BRANCH   2  21
ATOM     21  C   UNL     1      -4.767  -3.113  -1.132  0.00  0.00    +0.114 C 
BRANCH  21  22
ATOM     22  C   UNL     1      -5.305  -3.137  -2.564  0.00  0.00    +0.115 C 
BRANCH  22  23
ATOM     23  N   UNL     1      -6.704  -3.571  -2.553  0.00  0.00    -0.299 N 
ATOM     24  C   UNL     1      -7.389  -3.668  -3.710  0.00  0.00    +0.300 C 
ATOM     25  O   UNL     1      -6.846  -3.394  -4.763  0.00  0.00    -0.253 OA
ATOM     26  N   UNL     1      -8.676  -4.067  -3.700  0.00  0.00    -0.297 N 
ATOM     27  H   UNL     1      -7.138  -3.789  -1.713  0.00  0.00    +0.150 HD
ATOM     28  H   UNL     1      -9.109  -4.286  -2.860  0.00  0.00    +0.151 HD
BRANCH  26  29
ATOM     29  C   UNL     1      -9.420  -4.172  -4.957  0.00  0.00    +0.074 C 
ATOM     30  C   UNL     1     -10.001  -2.804  -5.322  0.00  0.00    +0.022 C 
ATOM     31  C   UNL     1     -10.778  -2.914  -6.635  0.00  0.00    +0.002 C 
ATOM     32  C   UNL     1     -11.916  -3.924  -6.471  0.00  0.00    +0.000 C 
ATOM     33  C   UNL     1     -11.335  -5.292  -6.107  0.00  0.00    +0.002 C 
ATOM     34  C   UNL     1     -10.558  -5.182  -4.794  0.00  0.00    +0.022 C 
ENDBRANCH  26  29
ENDBRANCH  22  23
ENDBRANCH  21  22
ENDBRANCH   2  21
TORSDOF 9
