REMARK  Name = ZINC37284270
REMARK  4 active torsions:
REMARK  status: ('A' for Active; 'I' for Inactive)
REMARK    1  A    between atoms: C_1  and  O_2
REMARK    2  A    between atoms: O_2  and  C_3
REMARK    3  A    between atoms: C_9  and  N_11
REMARK    4  A    between atoms: N_11  and  C_12
REMARK                            x       y       z     vdW  Elec       q    Type
REMARK                         _______ _______ _______ _____ _____    ______ ____
ROOT
ATOM      1  C   UNL     1       0.551  -3.871   0.585  0.00  0.00    +0.046 A 
ATOM      2  C   UNL     1       1.861  -4.047   1.013  0.00  0.00    +0.030 A 
ATOM      3  C   UNL     1       2.170  -5.079   1.869  0.00  0.00    -0.016 A 
ATOM      4  C   UNL     1       1.187  -5.954   2.316  0.00  0.00    +0.039 A 
ATOM      5  C   UNL     1      -0.125  -5.775   1.884  0.00  0.00    +0.045 A 
ATOM      6  C   UNL     1      -0.441  -4.738   1.030  0.00  0.00    +0.064 A 
ATOM      7 CL   UNL     1      -2.080  -4.518   0.505  0.00  0.00    -0.082 Cl
ATOM      8  N   UNL     1       1.744  -6.910   3.170  0.00  0.00    -0.285 N 
ATOM      9  C   UNL     1       3.067  -6.736   3.333  0.00  0.00    +0.222 C 
ATOM     10  O   UNL     1       3.804  -7.415   4.016  0.00  0.00    -0.275 OA
ATOM     11  C   UNL     1       3.464  -5.533   2.505  0.00  0.00    +0.133 C 
ATOM     12  H   UNL     1       1.235  -7.618   3.595  0.00  0.00    +0.155 HD
ENDROOT
BRANCH   1  13
ATOM     13  N   UNL     1       0.230  -2.824  -0.286  0.00  0.00    -0.337 N 
ATOM     14  H   UNL     1      -0.687  -2.701  -0.580  0.00  0.00    +0.146 HD
BRANCH  13  20
ATOM     15  C   UNL     1       0.652  -0.570  -1.138  0.00  0.00    +0.138 C 
ATOM     16  C   UNL     1      -0.372  -0.785  -2.254  0.00  0.00    +0.033 C 
ATOM     17  C   UNL     1       0.323  -1.392  -3.474  0.00  0.00    +0.003 C 
ATOM     18  C   UNL     1       0.949  -2.734  -3.091  0.00  0.00    +0.002 C 
ATOM     19  C   UNL     1       1.973  -2.519  -1.974  0.00  0.00    +0.025 C 
ATOM     20  C   UNL     1       1.277  -1.913  -0.754  0.00  0.00    +0.099 C 
BRANCH  15  22
ATOM     21  C   UNL     1      -0.017   1.425   0.010  0.00  0.00    +0.194 C 
ATOM     22  O   UNL     1       0.002  -0.004   0.002  0.00  0.00    -0.378 OA
ENDBRANCH  15  22
ENDBRANCH  13  20
ENDBRANCH   1  13
TORSDOF 3
