REMARK  Name = ZINC05355585
REMARK  5 active torsions:
REMARK  status: ('A' for Active; 'I' for Inactive)
REMARK    1  A    between atoms: C_1  and  C_2
REMARK    2  A    between atoms: C_2  and  C_4
REMARK    3  A    between atoms: C_2  and  O_16
REMARK    4  A    between atoms: O_16  and  C_17
REMARK    5  A    between atoms: C_17  and  C_19
REMARK                            x       y       z     vdW  Elec       q    Type
REMARK                         _______ _______ _______ _____ _____    ______ ____
ROOT
ATOM      1  C   UNL     1      -2.299  -0.109   1.871  0.00  0.00    +0.320 C 
ATOM      2  O   UNL     1      -1.373  -0.708   2.365  0.00  0.00    -0.250 OA
ENDROOT
BRANCH   1   3
ATOM      3  C   UNL     1      -3.687  -0.694   1.920  0.00  0.00    +0.165 C 
ATOM      4  C   UNL     1      -4.600   0.255   2.647  0.00  0.00    +0.013 A 
ATOM      5  C   UNL     1      -5.075   1.376   1.990  0.00  0.00    +0.008 A 
ATOM      6  C   UNL     1      -5.915   2.260   2.639  0.00  0.00    +0.001 A 
ATOM      7  C   UNL     1      -6.282   2.027   3.952  0.00  0.00    +0.004 A 
ATOM      8  C   UNL     1      -5.813   0.912   4.611  0.00  0.00    +0.046 A 
ATOM      9  C   UNL     1      -4.969   0.019   3.960  0.00  0.00    +0.133 A 
ATOM     10  O   UNL     1      -4.519  -1.071   4.626  0.00  0.00    -0.455 OA
ATOM     11  C   UNL     1      -4.058  -2.144   3.939  0.00  0.00    +0.133 A 
ATOM     12  C   UNL     1      -3.640  -2.023   2.624  0.00  0.00    +0.013 A 
ATOM     13  C   UNL     1      -3.173  -3.135   1.945  0.00  0.00    +0.008 A 
ATOM     14  C   UNL     1      -3.122  -4.364   2.574  0.00  0.00    +0.001 A 
ATOM     15  C   UNL     1      -3.539  -4.488   3.886  0.00  0.00    +0.004 A 
ATOM     16  C   UNL     1      -4.006  -3.382   4.569  0.00  0.00    +0.046 A 
ENDBRANCH   1   3
BRANCH   1  17
ATOM     17  O   UNL     1      -2.091   1.077   1.277  0.00  0.00    -0.453 OA
BRANCH  17  19
ATOM     18  C   UNL     1      -0.013   1.086   0.008  0.00  0.00    +0.060 C 
ATOM     19  C   UNL     1      -0.729   1.579   1.267  0.00  0.00    +0.239 C 
BRANCH  19  20
ATOM     20  C   UNL     1      -0.749   3.086   1.275  0.00  0.00    +0.151 A 
ATOM     21  N   UNL     1      -1.056   3.720   2.437  0.00  0.00    -0.307 N 
ATOM     22  H   UNL     1      -1.262   3.183   3.255  0.00  0.00    +0.170 HD
ATOM     23  C   UNL     1      -1.087   5.072   2.497  0.00  0.00    +0.259 A 
ATOM     24  O   UNL     1      -1.361   5.653   3.531  0.00  0.00    -0.267 OA
ATOM     25  C   UNL     1      -0.778   5.811   1.264  0.00  0.00    +0.065 A 
ATOM     26  C   UNL     1      -0.782   7.204   1.219  0.00  0.00    +0.015 A 
ATOM     27  C   UNL     1      -0.484   7.846   0.037  0.00  0.00    +0.001 A 
ATOM     28  C   UNL     1      -0.181   7.117  -1.106  0.00  0.00    +0.002 A 
ATOM     29  C   UNL     1      -0.172   5.740  -1.082  0.00  0.00    +0.028 A 
ATOM     30  C   UNL     1      -0.470   5.067   0.104  0.00  0.00    +0.078 A 
ATOM     31  N   UNL     1      -0.467   3.712   0.173  0.00  0.00    -0.230 NA
ENDBRANCH  19  20
ENDBRANCH  17  19
ENDBRANCH   1  17
TORSDOF 4
