REMARK  Name = ZINC21307540
REMARK  12 active torsions:
REMARK  status: ('A' for Active; 'I' for Inactive)
REMARK    1  A    between atoms: C_1  and  C_2
REMARK    2  A    between atoms: C_2  and  C_4
REMARK    3  A    between atoms: C_2  and  N_14
REMARK    4  A    between atoms: C_7  and  S_10
REMARK    5  A    between atoms: S_10  and  N_13
REMARK    6  A    between atoms: N_14  and  C_15
REMARK    7  A    between atoms: N_14  and  C_16
REMARK    8  A    between atoms: C_16  and  C_17
REMARK    9  A    between atoms: C_17  and  C_19
REMARK   10  A    between atoms: C_17  and  O_28
REMARK   11  A    between atoms: C_19  and  O_20
REMARK   12  A    between atoms: O_20  and  C_21
REMARK                            x       y       z     vdW  Elec       q    Type
REMARK                         _______ _______ _______ _____ _____    ______ ____
ROOT
ATOM      1  N   UNL     1       3.535  -6.320  -0.193  0.00  0.00    +0.384 N 
ATOM      2  C   UNL     1       2.933  -6.785   1.064  0.00  0.00    -0.095 C 
ATOM      3  H   UNL     1       2.833  -6.546  -1.009  0.00  0.00    -0.081 HD
ENDROOT
BRANCH   1   5
ATOM      4  C   UNL     1       5.337  -6.591  -1.829  0.00  0.00    -0.008 C 
ATOM      5  C   UNL     1       4.791  -7.030  -0.469  0.00  0.00    -0.041 C 
BRANCH   5   6
ATOM      6  C   UNL     1       4.536  -8.515  -0.486  0.00  0.00    -0.061 A 
ATOM      7  C   UNL     1       3.383  -9.011  -1.064  0.00  0.00    +0.004 A 
ATOM      8  C   UNL     1       3.151 -10.374  -1.084  0.00  0.00    +0.029 A 
ATOM      9  C   UNL     1       4.067 -11.239  -0.516  0.00  0.00    +0.105 A 
ATOM     10  C   UNL     1       5.218 -10.743   0.067  0.00  0.00    +0.029 A 
ATOM     11  C   UNL     1       5.452  -9.380   0.082  0.00  0.00    +0.004 A 
BRANCH   9  12
ATOM     12  S   UNL     1       3.768 -12.976  -0.535  0.00  0.00    +0.056 S 
ATOM     13  O   UNL     1       2.886 -13.224  -1.621  0.00  0.00    -0.153 OA
ATOM     14  O   UNL     1       5.036 -13.607  -0.423  0.00  0.00    -0.153 OA
BRANCH  12  15
ATOM     15  N   UNL     1       2.933 -13.344   0.847  0.00  0.00    -0.204 NA
ATOM     16  H   UNL     1       2.726 -14.424   0.874  0.00  0.00    +0.144 HD
ATOM     17  H   UNL     1       1.984 -12.788   0.861  0.00  0.00    +0.144 HD
ENDBRANCH  12  15
ENDBRANCH   9  12
ENDBRANCH   5   6
ENDBRANCH   1   5
BRANCH   1  18
ATOM     18  C   UNL     1       3.746  -4.867  -0.169  0.00  0.00    -0.043 C 
BRANCH  18  19
ATOM     19  C   UNL     1       2.398  -4.153  -0.291  0.00  0.00    +0.135 C 
BRANCH  19  20
ATOM     20  O   UNL     1       1.614  -4.415   0.875  0.00  0.00    -0.390 OA
ATOM     21  H   UNL     1       0.607  -3.982   0.969  0.00  0.00    +0.210 HD
ENDBRANCH  19  20
BRANCH  19  22
ATOM     22  C   UNL     1       2.628  -2.647  -0.423  0.00  0.00    +0.258 C 
BRANCH  22  23
ATOM     23  O   UNL     1       1.379  -1.992  -0.654  0.00  0.00    -0.489 OA
BRANCH  23  24
ATOM     24  C   UNL     1       1.407  -0.641  -0.796  0.00  0.00    +0.121 A 
ATOM     25  C   UNL     1       0.230   0.058  -1.022  0.00  0.00    +0.047 A 
ATOM     26  C   UNL     1       0.261   1.432  -1.166  0.00  0.00    +0.023 A 
ATOM     27  C   UNL     1       1.464   2.110  -1.086  0.00  0.00    +0.041 A 
ATOM     28  C   UNL     1       2.639   1.414  -0.861  0.00  0.00    +0.023 A 
ATOM     29  C   UNL     1       2.612   0.041  -0.716  0.00  0.00    +0.047 A 
ATOM     30 CL   UNL     1       1.500   3.836  -1.268  0.00  0.00    -0.084 Cl
ENDBRANCH  23  24
ENDBRANCH  22  23
ENDBRANCH  19  22
ENDBRANCH  18  19
ENDBRANCH   1  18
TORSDOF 10
