REMARK  Name = ZINC15214878
REMARK  8 active torsions:
REMARK  status: ('A' for Active; 'I' for Inactive)
REMARK    1  A    between atoms: C_1  and  C_2
REMARK    2  A    between atoms: C_2  and  C_3
REMARK    3  A    between atoms: C_2  and  C_4
REMARK    4  A    between atoms: C_2  and  C_6
REMARK    5  A    between atoms: C_7  and  C_16
REMARK    6  A    between atoms: C_16  and  C_17
REMARK    7  A    between atoms: CA_22  and  CB_27
REMARK    8  A    between atoms: CB_27  and  CG_28
REMARK                            x       y       z     vdW  Elec       q    Type
REMARK                         _______ _______ _______ _____ _____    ______ ____
ROOT
ATOM      1  C   UNK A   2      -2.159   1.153   1.532  0.00  0.00    +0.163 C 
ATOM      2  C   UNK A   2      -3.469   0.449   1.717  0.00  0.00    +0.234 C 
ATOM      3  O   UNK A   2      -4.493   1.093   1.631  0.00  0.00    -0.274 OA
ATOM      4  N   TRP A   1      -3.556  -0.860   1.972  0.00  0.00    -0.302 N 
ATOM      5  CA  TRP A   1      -2.386  -1.721   2.092  0.00  0.00    +0.163 C 
ATOM      6  C   TRP A   1      -1.148  -0.921   2.365  0.00  0.00    +0.234 C 
ATOM      7  O   TRP A   1      -0.185  -1.485   2.841  0.00  0.00    -0.274 OA
ATOM      8  N   UNK A   2      -1.061   0.387   2.105  0.00  0.00    -0.302 N 
ATOM      9  H   TRP A   1      -4.435  -1.254   2.082  0.00  0.00    +0.150 HD
ATOM     10  H   UNK A   2      -0.230   0.845   2.306  0.00  0.00    +0.150 HD
ENDROOT
BRANCH   1  11
ATOM     11  C   UNK A   2      -1.904   1.354   0.037  0.00  0.00    +0.069 C 
BRANCH  11  13
ATOM     12  C   UNK A   2      -0.532   3.469  -0.313  0.00  0.00    +0.030 A 
ATOM     13  C   UNK A   2      -0.633   2.140  -0.155  0.00  0.00    -0.016 A 
ATOM     14  C   UNK A   2       0.728   1.599  -0.202  0.00  0.00    +0.003 A 
ATOM     15  C   UNK A   2       1.266   0.315  -0.098  0.00  0.00    +0.010 A 
ATOM     16  C   UNK A   2       2.617   0.136  -0.192  0.00  0.00    +0.001 A 
ATOM     17  C   UNK A   2       3.460   1.221  -0.391  0.00  0.00    +0.002 A 
ATOM     18  C   UNK A   2       2.950   2.496  -0.497  0.00  0.00    +0.026 A 
ATOM     19  C   UNK A   2       1.578   2.702  -0.403  0.00  0.00    +0.047 A 
ATOM     20  N   UNK A   2       0.781   3.823  -0.466  0.00  0.00    -0.357 N 
ATOM     21  H   UNK A   2       1.102   4.728  -0.600  0.00  0.00    +0.166 HD
BRANCH  12  23
ATOM     22  C   UNK A   2      -2.483   4.293   0.977  0.00  0.00    +0.022 C 
ATOM     23  C   UNK A   2      -1.694   4.429  -0.327  0.00  0.00    +0.023 C 
ATOM     24  C   UNK A   2      -1.171   5.861  -0.459  0.00  0.00    +0.022 C 
BRANCH  23  25
ATOM     25  C   UNK A   2      -2.593   4.113  -1.494  0.00  0.00    -0.022 C 
ATOM     26  C   UNK A   2      -3.872   3.906  -1.298  0.00  0.00    +0.005 C 
ENDBRANCH  23  25
ENDBRANCH  12  23
ENDBRANCH  11  13
ENDBRANCH   1  11
BRANCH   5  27
ATOM     27  CB  TRP A   1      -2.202  -2.501   0.789  0.00  0.00    +0.069 C 
BRANCH  27  28
ATOM     28  CG  TRP A   1      -3.370  -3.433   0.593  0.00  0.00    -0.020 A 
ATOM     29  CD1 TRP A   1      -3.426  -4.728   0.944  0.00  0.00    +0.087 A 
ATOM     30  NE1 TRP A   1      -4.646  -5.249   0.608  0.00  0.00    -0.360 N 
ATOM     31  HE1 TRP A   1      -4.921  -6.167   0.763  0.00  0.00    +0.165 HD
ATOM     32  CE2 TRP A   1      -5.424  -4.279   0.018  0.00  0.00    +0.047 A 
ATOM     33  CD2 TRP A   1      -4.661  -3.097  -0.012  0.00  0.00    +0.003 A 
ATOM     34  CE3 TRP A   1      -5.199  -1.935  -0.568  0.00  0.00    +0.010 A 
ATOM     35  CZ3 TRP A   1      -6.470  -1.948  -1.069  0.00  0.00    +0.001 A 
ATOM     36  CH2 TRP A   1      -7.229  -3.110  -1.036  0.00  0.00    +0.002 A 
ATOM     37  CZ2 TRP A   1      -6.716  -4.270  -0.498  0.00  0.00    +0.026 A 
ENDBRANCH  27  28
ENDBRANCH   5  27
TORSDOF 6
