REMARK  Name = ZINC08849368
REMARK  10 active torsions:
REMARK  status: ('A' for Active; 'I' for Inactive)
REMARK    1  A    between atoms: C_1  and  C_2
REMARK    2  A    between atoms: C_7  and  N_12
REMARK    3  A    between atoms: C_9  and  C_11
REMARK    4  A    between atoms: C_13  and  C_15
REMARK    5  A    between atoms: C_15  and  C_17
REMARK    6  A    between atoms: C_15  and  S_18
REMARK    7  A    between atoms: S_18  and  C_19
REMARK    8  A    between atoms: C_22  and  C_34
REMARK    9  A    between atoms: N_23  and  C_24
REMARK   10  A    between atoms: C_24  and  C_25
REMARK                            x       y       z     vdW  Elec       q    Type
REMARK                         _______ _______ _______ _____ _____    ______ ____
ROOT
ATOM      1  C   UNL     1       1.079   2.384   0.061  0.00  0.00    +0.193 A 
ATOM      2  N   UNL     1       0.522   3.492  -0.376  0.00  0.00    -0.122 NA
ATOM      3  N   UNL     1      -0.757   3.410  -0.282  0.00  0.00    -0.128 NA
ATOM      4  C   UNL     1      -1.096   2.243   0.214  0.00  0.00    +0.165 A 
ATOM      5  N   UNL     1       0.070   1.552   0.455  0.00  0.00    -0.298 N 
ENDROOT
BRANCH   4   6
ATOM      6  C   UNL     1      -2.470   1.762   0.470  0.00  0.00    +0.019 A 
ATOM      7  C   UNL     1      -2.784   0.412   0.300  0.00  0.00    +0.011 A 
ATOM      8  C   UNL     1      -4.067  -0.030   0.545  0.00  0.00    +0.001 A 
ATOM      9  C   UNL     1      -5.045   0.862   0.947  0.00  0.00    +0.000 A 
ATOM     10  C   UNL     1      -4.742   2.202   1.113  0.00  0.00    +0.001 A 
ATOM     11  C   UNL     1      -3.461   2.657   0.876  0.00  0.00    +0.011 A 
ENDBRANCH   4   6
BRANCH   1  12
ATOM     12  S   UNL     1       2.805   2.036   0.125  0.00  0.00    -0.074 S 
BRANCH  12  13
ATOM     13  C   UNL     1       3.462   3.582  -0.550  0.00  0.00    +0.137 C 
ATOM     14  C   UNL     1       3.023   3.728  -2.009  0.00  0.00    +0.029 C 
BRANCH  13  16
ATOM     15  N   UNL     1       5.655   4.720  -0.434  0.00  0.00    -0.311 N 
ATOM     16  C   UNL     1       4.967   3.562  -0.478  0.00  0.00    +0.226 C 
ATOM     17  O   UNL     1       5.559   2.503  -0.460  0.00  0.00    -0.275 OA
ATOM     18  H   UNL     1       5.181   5.566  -0.448  0.00  0.00    +0.149 HD
BRANCH  15  24
ATOM     19  C   UNL     1       9.757   7.293  -1.432  0.00  0.00    +0.008 C 
ATOM     20  C   UNL     1       9.202   5.986  -0.861  0.00  0.00    -0.009 C 
ATOM     21  C   UNL     1       9.641   5.840   0.597  0.00  0.00    +0.003 C 
ATOM     22  C   UNL     1       9.085   4.533   1.168  0.00  0.00    +0.002 C 
ATOM     23  C   UNL     1       7.557   4.553   1.095  0.00  0.00    +0.022 C 
ATOM     24  C   UNL     1       7.118   4.700  -0.364  0.00  0.00    +0.076 C 
ATOM     25  C   UNL     1       7.674   6.007  -0.934  0.00  0.00    +0.009 C 
ATOM     26  C   UNL     1       7.235   6.153  -2.393  0.00  0.00    +0.009 C 
ENDBRANCH  15  24
ENDBRANCH  13  16
ENDBRANCH  12  13
ENDBRANCH   1  12
BRANCH   5  27
ATOM     27  C   UNL     1       0.201   0.203   1.011  0.00  0.00    +0.161 C 
BRANCH  27  28
ATOM     28  C   UNL     1       0.174   0.276   2.516  0.00  0.00    -0.024 A 
ATOM     29  C   UNL     1       1.355   0.426   3.221  0.00  0.00    +0.009 A 
ATOM     30  C   UNL     1       1.335   0.498   4.601  0.00  0.00    +0.050 A 
ATOM     31  C   UNL     1       0.132   0.410   5.283  0.00  0.00    +0.166 A 
ATOM     32  C   UNL     1      -1.056   0.254   4.574  0.00  0.00    +0.167 A 
ATOM     33  C   UNL     1      -1.029   0.188   3.190  0.00  0.00    +0.055 A 
ATOM     34  O   UNL     1      -2.090   0.193   5.463  0.00  0.00    -0.453 OA
ATOM     35  C   UNL     1      -1.568   0.722   6.696  0.00  0.00    +0.466 C 
ATOM     36  O   UNL     1      -0.157   0.447   6.616  0.00  0.00    -0.453 OA
ENDBRANCH  27  28
ENDBRANCH   5  27
TORSDOF 7
