REMARK  Name = ZINC21219842
REMARK  11 active torsions:
REMARK  status: ('A' for Active; 'I' for Inactive)
REMARK    1  A    between atoms: C_1  and  C_2
REMARK    2  A    between atoms: C_2  and  C_3
REMARK    3  A    between atoms: C_3  and  C_5
REMARK    4  A    between atoms: C_3  and  O_6
REMARK    5  A    between atoms: O_6  and  C_7
REMARK    6  A    between atoms: C_10  and  C_13
REMARK    7  A    between atoms: C_18  and  C_23
REMARK    8  A    between atoms: C_26  and  O_31
REMARK    9  A    between atoms: C_27  and  O_29
REMARK   10  A    between atoms: O_29  and  C_30
REMARK   11  A    between atoms: O_31  and  C_32
REMARK                            x       y       z     vdW  Elec       q    Type
REMARK                         _______ _______ _______ _____ _____    ______ ____
ROOT
ATOM      1  C   UNL     1      -2.618   2.358   2.566  0.00  0.00    +0.136 C 
ATOM      2  C   UNL     1      -2.147   1.836   1.229  0.00  0.00    +0.036 C 
ATOM      3  C   UNL     1      -2.911   1.656   0.139  0.00  0.00    +0.017 C 
ATOM      4  C   UNL     1      -2.308   1.098  -1.139  0.00  0.00    +0.059 C 
ATOM      5  C   UNL     1      -0.855   1.552  -1.270  0.00  0.00    +0.032 C 
ATOM      6  C   UNL     1      -0.090   1.027  -0.050  0.00  0.00    +0.088 C 
ATOM      7  C   UNL     1      -0.762   1.530   1.192  0.00  0.00    +0.163 C 
ATOM      8  O   UNL     1      -0.097   1.680   2.199  0.00  0.00    -0.292 OA
ATOM      9  N   UNL     1      -4.237   1.936   0.066  0.00  0.00    -0.316 N 
ATOM     10  C   UNL     1      -5.179   1.566   1.018  0.00  0.00    +0.052 A 
ATOM     11  C   UNL     1      -6.234   0.720   0.723  0.00  0.00    +0.025 A 
ATOM     12  C   UNL     1      -7.199   0.477   1.685  0.00  0.00    +0.002 A 
ATOM     13  C   UNL     1      -7.107   1.073   2.930  0.00  0.00    +0.002 A 
ATOM     14  C   UNL     1      -6.042   1.903   3.234  0.00  0.00    +0.025 A 
ATOM     15  C   UNL     1      -5.065   2.134   2.278  0.00  0.00    +0.049 A 
ATOM     16  N   UNL     1      -3.950   2.924   2.552  0.00  0.00    -0.331 N 
ATOM     17  H   UNL     1      -4.634   2.494  -0.795  0.00  0.00    +0.152 HD
ATOM     18  H   UNL     1      -4.095   3.994   2.760  0.00  0.00    +0.147 HD
ENDROOT
BRANCH   1  22
ATOM     19  C   UNL     1      -2.552  -0.860   5.378  0.00  0.00    +0.121 A 
ATOM     20  C   UNL     1      -1.721   0.237   5.557  0.00  0.00    +0.046 A 
ATOM     21  C   UNL     1      -1.744   1.276   4.646  0.00  0.00    +0.009 A 
ATOM     22  C   UNL     1      -2.595   1.223   3.557  0.00  0.00    -0.023 A 
ATOM     23  C   UNL     1      -3.428   0.134   3.380  0.00  0.00    +0.009 A 
ATOM     24  C   UNL     1      -3.404  -0.910   4.284  0.00  0.00    +0.046 A 
BRANCH  19  25
ATOM     25  O   UNL     1      -2.531  -1.883   6.272  0.00  0.00    -0.489 OA
BRANCH  25  26
ATOM     26  C   UNL     1      -1.724  -1.708   7.438  0.00  0.00    +0.170 C 
ATOM     27  C   UNL     1      -0.282  -2.110   7.125  0.00  0.00    +0.052 C 
BRANCH  26  29
ATOM     28  C   UNL     1      -3.661  -2.105   8.967  0.00  0.00    +0.007 C 
ATOM     29  C   UNL     1      -2.264  -2.587   8.568  0.00  0.00    +0.041 C 
ENDBRANCH  26  29
ENDBRANCH  25  26
ENDBRANCH  19  25
ENDBRANCH   1  22
BRANCH   5  30
ATOM     30  C   UNL     1      -0.254   0.988  -2.532  0.00  0.00    -0.040 A 
ATOM     31  C   UNL     1      -0.220  -0.380  -2.728  0.00  0.00    +0.008 A 
ATOM     32  C   UNL     1       0.329  -0.903  -3.883  0.00  0.00    +0.049 A 
ATOM     33  C   UNL     1       0.848  -0.055  -4.849  0.00  0.00    +0.161 A 
ATOM     34  C   UNL     1       0.815   1.322  -4.652  0.00  0.00    +0.162 A 
ATOM     35  C   UNL     1       0.257   1.839  -3.493  0.00  0.00    +0.053 A 
BRANCH  34  36
ATOM     36  O   UNL     1       1.323   2.158  -5.596  0.00  0.00    -0.491 OA
ATOM     37  C   UNL     1       1.254   3.560  -5.326  0.00  0.00    +0.277 C 
ENDBRANCH  34  36
BRANCH  33  38
ATOM     38  O   UNL     1       1.389  -0.568  -5.986  0.00  0.00    -0.491 OA
ATOM     39  C   UNL     1       1.389  -1.990  -6.121  0.00  0.00    +0.277 C 
ENDBRANCH  33  38
ENDBRANCH   5  30
TORSDOF 7
