REMARK  Name = ZINC39886391
REMARK  7 active torsions:
REMARK  status: ('A' for Active; 'I' for Inactive)
REMARK    1  A    between atoms: C_1  and  C_2
REMARK    2  A    between atoms: C_2  and  O_3
REMARK    3  A    between atoms: O_3  and  C_4
REMARK    4  A    between atoms: C_4  and  C_6
REMARK    5  A    between atoms: C_6  and  N_7
REMARK    6  A    between atoms: C_25  and  C_34
REMARK    7  A    between atoms: C_37  and  O_40
REMARK                            x       y       z     vdW  Elec       q    Type
REMARK                         _______ _______ _______ _____ _____    ______ ____
ROOT
ATOM      1  N   UNL     1       1.497  -3.844   2.426  0.00  0.00    -0.231 N 
ATOM      2  C   UNL     1       0.498  -4.625   2.965  0.00  0.00    +0.226 C 
ATOM      3  O   UNL     1      -0.615  -4.287   3.308  0.00  0.00    -0.275 OA
ATOM      4  C   UNL     1       1.109  -5.987   3.025  0.00  0.00    +0.091 C 
ATOM      5  C   UNL     1       0.301  -7.301   2.856  0.00  0.00    +0.007 C 
ATOM      6  C   UNL     1       0.393  -7.597   1.301  0.00  0.00    +0.010 C 
ATOM      7  C   UNL     1       1.960  -7.259   1.150  0.00  0.00    +0.015 C 
ATOM      8  C   UNL     1       1.800  -5.864   1.603  0.00  0.00    +0.092 C 
ATOM      9  C   UNL     1       2.479  -4.597   1.801  0.00  0.00    +0.226 C 
ATOM     10  O   UNL     1       3.610  -4.281   1.499  0.00  0.00    -0.275 OA
ATOM     11  C   UNL     1       2.450  -8.302   2.150  0.00  0.00    +0.061 C 
ATOM     12  C   UNL     1       1.425  -8.225   3.333  0.00  0.00    +0.019 C 
ATOM     13  C   UNL     1       1.370  -9.399   4.208  0.00  0.00    +0.063 C 
ATOM     14  C   UNL     1       2.759  -9.625   4.751  0.00  0.00    +0.032 A 
ATOM     15  C   UNL     1       3.947  -9.075   4.363  0.00  0.00    +0.109 A 
ATOM     16  N   UNL     1       4.998  -9.449   5.093  0.00  0.00    -0.225 NA
ATOM     17  C   UNL     1       4.889 -10.313   6.079  0.00  0.00    +0.147 A 
ATOM     18  S   UNL     1       6.154 -10.927   7.141  0.00  0.00    -0.023 SA
ATOM     19  S   UNL     1       3.246 -10.688   6.083  0.00  0.00    -0.063 S 
ATOM     20  S   UNL     1       4.071  -7.990   2.899  0.00  0.00    -0.101 S 
ENDROOT
BRANCH  13  21
ATOM     21  C   UNL     1       0.410  -9.148   5.343  0.00  0.00    -0.039 A 
ATOM     22  C   UNL     1       0.629  -8.095   6.212  0.00  0.00    +0.008 A 
ATOM     23  C   UNL     1      -0.248  -7.863   7.253  0.00  0.00    +0.045 A 
ATOM     24  C   UNL     1      -1.351  -8.688   7.426  0.00  0.00    +0.117 A 
ATOM     25  C   UNL     1      -1.569  -9.743   6.552  0.00  0.00    +0.045 A 
ATOM     26  C   UNL     1      -0.691  -9.968   5.510  0.00  0.00    +0.008 A 
BRANCH  24  27
ATOM     27  O   UNL     1      -2.216  -8.462   8.450  0.00  0.00    -0.507 OA
ATOM     28  H   UNL     1      -2.944  -7.866   8.225  0.00  0.00    +0.292 HD
ENDBRANCH  24  27
ENDBRANCH  13  21
BRANCH   1  29
ATOM     29  C   UNL     1       1.516  -2.381   2.500  0.00  0.00    +0.236 C 
BRANCH  29  30
ATOM     30  C   UNL     1       0.801  -1.808   1.304  0.00  0.00    +0.325 C 
ATOM     31  O   UNL     1       0.324  -2.546   0.475  0.00  0.00    -0.249 OA
BRANCH  30  32
ATOM     32  O   UNL     1       0.693  -0.477   1.160  0.00  0.00    -0.464 OA
BRANCH  32  34
ATOM     33  C   UNL     1      -0.019   1.526   0.010  0.00  0.00    +0.048 C 
ATOM     34  C   UNL     1       0.002  -0.004   0.002  0.00  0.00    +0.229 C 
ENDBRANCH  32  34
ENDBRANCH  30  32
ENDBRANCH  29  30
ENDBRANCH   1  29
TORSDOF 6
