REMARK  Name = ZINC09159107
REMARK  4 active torsions:
REMARK  status: ('A' for Active; 'I' for Inactive)
REMARK    1  A    between atoms: C_4  and  N_7
REMARK    2  A    between atoms: C_22  and  C_28
REMARK    3  A    between atoms: N_30  and  C_31
REMARK    4  A    between atoms: C_33  and  N_38
REMARK                            x       y       z     vdW  Elec       q    Type
REMARK                         _______ _______ _______ _____ _____    ______ ____
ROOT
ATOM      1  N   UNL     1      -5.815   4.293  -0.933  0.00  0.00    -0.210 N 
ATOM      2  C   UNL     1      -4.939   3.796  -0.047  0.00  0.00    +0.232 C 
ATOM      3  O   UNL     1      -5.156   3.604   1.130  0.00  0.00    -0.274 OA
ATOM      4  C   UNL     1      -3.634   3.512  -0.764  0.00  0.00    +0.113 C 
ATOM      5  C   UNL     1      -2.474   4.161  -0.008  0.00  0.00    +0.100 C 
ATOM      6  C   UNL     1      -1.259   3.270   0.027  0.00  0.00    -0.021 A 
ATOM      7  C   UNL     1      -1.385   1.902   0.107  0.00  0.00    +0.006 A 
ATOM      8  C   UNL     1      -0.255   1.103   0.137  0.00  0.00    +0.000 A 
ATOM      9  C   UNL     1       1.004   1.674   0.076  0.00  0.00    +0.001 A 
ATOM     10  C   UNL     1       1.144   3.043  -0.009  0.00  0.00    +0.008 A 
ATOM     11  C   UNL     1       0.010   3.857  -0.035  0.00  0.00    -0.019 A 
ATOM     12  C   UNL     1       0.151   5.324  -0.120  0.00  0.00    +0.022 C 
ATOM     13  C   UNL     1      -0.911   6.071  -0.480  0.00  0.00    +0.054 C 
ATOM     14  C   UNL     1      -3.114   5.686  -1.730  0.00  0.00    +0.156 C 
ATOM     15  C   UNL     1      -3.788   4.348  -2.068  0.00  0.00    +0.118 C 
ATOM     16  C   UNL     1      -5.290   4.549  -2.141  0.00  0.00    +0.232 C 
ATOM     17  O   UNL     1      -5.912   4.884  -3.126  0.00  0.00    -0.274 OA
ATOM     18  N   UNL     1      -2.325   5.512  -0.483  0.00  0.00    -0.383 NA
ATOM     19  H   UNL     1      -2.813   6.085   0.216  0.00  0.00    +0.127 HD
ENDROOT
BRANCH   1  23
ATOM     20  C   UNL     1      -9.821   4.987  -0.014  0.00  0.00    +0.000 A 
ATOM     21  C   UNL     1      -9.311   5.399  -1.231  0.00  0.00    +0.002 A 
ATOM     22  C   UNL     1      -7.984   5.171  -1.539  0.00  0.00    +0.024 A 
ATOM     23  C   UNL     1      -7.162   4.527  -0.624  0.00  0.00    +0.044 A 
ATOM     24  C   UNL     1      -7.678   4.109   0.595  0.00  0.00    +0.024 A 
ATOM     25  C   UNL     1      -9.005   4.345   0.899  0.00  0.00    +0.002 A 
ENDBRANCH   1  23
BRANCH  14  26
ATOM     26  C   UNL     1      -4.142   6.629  -1.160  0.00  0.00    +0.237 C 
ATOM     27  O   UNL     1      -4.243   6.761   0.041  0.00  0.00    -0.273 OA
ATOM     28  N   UNL     1      -4.948   7.326  -1.985  0.00  0.00    -0.283 N 
ATOM     29  H   UNL     1      -4.910   7.174  -2.942  0.00  0.00    +0.155 HD
BRANCH  28  30
ATOM     30  C   UNL     1      -5.839   8.269  -1.461  0.00  0.00    +0.054 A 
ATOM     31  C   UNL     1      -6.304   8.139  -0.159  0.00  0.00    +0.057 A 
ATOM     32  C   UNL     1      -7.179   9.075   0.358  0.00  0.00    +0.128 A 
ATOM     33  C   UNL     1      -7.602  10.134  -0.424  0.00  0.00    +0.034 A 
ATOM     34  C   UNL     1      -7.146  10.264  -1.722  0.00  0.00    +0.024 A 
ATOM     35  C   UNL     1      -6.266   9.335  -2.244  0.00  0.00    +0.062 A 
ATOM     36 CL   UNL     1      -5.694   9.499  -3.875  0.00  0.00    -0.082 Cl
BRANCH  32  37
ATOM     37  N   UNL     1      -7.669   8.939   1.748  0.00  0.00    +0.056 N 
ATOM     38  O   UNL     1      -8.445   9.761   2.203  0.00  0.00    -0.126 OA
ATOM     39  O   UNL     1      -7.297   8.007   2.437  0.00  0.00    -0.126 OA
ENDBRANCH  32  37
ENDBRANCH  28  30
ENDBRANCH  14  26
TORSDOF 4
