REMARK  Name = ZINC12772125
REMARK  5 active torsions:
REMARK  status: ('A' for Active; 'I' for Inactive)
REMARK    1  A    between atoms: C_1  and  C_2
REMARK    2  A    between atoms: C_2  and  C_4
REMARK    3  A    between atoms: C_2  and  N_14
REMARK    4  A    between atoms: C_15  and  C_17
REMARK    5  A    between atoms: C_19  and  N_23
REMARK                            x       y       z     vdW  Elec       q    Type
REMARK                         _______ _______ _______ _____ _____    ______ ____
ROOT
ATOM      1  N   UNL     1       0.711  -0.489   1.189  0.00  0.00    -0.304 N 
ATOM      2  C   UNL     1       2.054  -0.600   1.174  0.00  0.00    +0.261 C 
ATOM      3  O   UNL     1       2.678  -0.296   0.174  0.00  0.00    -0.269 OA
ATOM      4  H   UNL     1       0.213  -0.731   1.986  0.00  0.00    +0.150 HD
ENDROOT
BRANCH   2   5
ATOM      5  C   UNL     1       2.763  -1.086   2.362  0.00  0.00    +0.104 A 
ATOM      6  C   UNL     1       4.127  -1.243   2.489  0.00  0.00    +0.065 A 
ATOM      7  C   UNL     1       4.366  -1.726   3.780  0.00  0.00    +0.144 A 
ATOM      8  C   UNL     1       3.171  -1.853   4.404  0.00  0.00    +0.116 A 
ATOM      9  N   UNL     1       2.189  -1.462   3.555  0.00  0.00    -0.355 N 
ATOM     10  H   UNL     1       1.240  -1.452   3.754  0.00  0.00    +0.166 HD
BRANCH   7  11
ATOM     11  N   UNL     1       5.690  -2.044   4.360  0.00  0.00    +0.058 N 
ATOM     12  O   UNL     1       6.692  -1.889   3.700  0.00  0.00    -0.126 OA
ATOM     13  O   UNL     1       5.770  -2.458   5.493  0.00  0.00    -0.126 OA
ENDBRANCH   7  11
ENDBRANCH   2   5
BRANCH   1  15
ATOM     14  C   UNL     1      -0.019   1.526   0.010  0.00  0.00    +0.033 C 
ATOM     15  C   UNL     1       0.002  -0.004   0.002  0.00  0.00    +0.100 C 
BRANCH  15  16
ATOM     16  C   UNL     1      -1.412  -0.526   0.013  0.00  0.00    -0.027 A 
ATOM     17  C   UNL     1      -2.119  -0.567   1.213  0.00  0.00    +0.006 A 
ATOM     18  C   UNL     1      -3.397  -1.032   1.257  0.00  0.00    +0.009 A 
ATOM     19  C   UNL     1      -4.016  -1.479   0.077  0.00  0.00    -0.018 A 
ATOM     20  C   UNL     1      -5.334  -1.966   0.084  0.00  0.00    +0.008 A 
ATOM     21  C   UNL     1      -5.901  -2.389  -1.079  0.00  0.00    +0.001 A 
ATOM     22  C   UNL     1      -5.194  -2.348  -2.279  0.00  0.00    +0.001 A 
ATOM     23  C   UNL     1      -3.916  -1.883  -2.324  0.00  0.00    +0.008 A 
ATOM     24  C   UNL     1      -3.297  -1.437  -1.143  0.00  0.00    -0.018 A 
ATOM     25  C   UNL     1      -1.980  -0.944  -1.151  0.00  0.00    +0.014 A 
ENDBRANCH  15  16
ENDBRANCH   1  15
TORSDOF 4
