REMARK  Name = ZINC02297771
REMARK  10 active torsions:
REMARK  status: ('A' for Active; 'I' for Inactive)
REMARK    1  A    between atoms: C_1  and  C_2
REMARK    2  A    between atoms: C_4  and  O_11
REMARK    3  A    between atoms: C_7  and  N_8
REMARK    4  A    between atoms: O_11  and  C_12
REMARK    5  A    between atoms: C_12  and  C_13
REMARK    6  A    between atoms: C_15  and  C_21
REMARK    7  A    between atoms: C_18  and  O_19
REMARK    8  A    between atoms: O_19  and  C_20
REMARK    9  A    between atoms: N_32  and  C_33
REMARK   10  A    between atoms: C_33  and  C_34
REMARK                            x       y       z     vdW  Elec       q    Type
REMARK                         _______ _______ _______ _____ _____    ______ ____
ROOT
ATOM      1  C   UNL     1       0.925  -4.174  -4.183  0.00  0.00    +0.032 A 
ATOM      2  C   UNL     1       0.427  -3.491  -5.276  0.00  0.00    +0.017 A 
ATOM      3  C   UNL     1      -0.111  -4.188  -6.341  0.00  0.00    -0.009 A 
ATOM      4  C   UNL     1      -0.152  -5.570  -6.317  0.00  0.00    +0.010 A 
ATOM      5  C   UNL     1       0.345  -6.257  -5.227  0.00  0.00    +0.046 A 
ATOM      6  C   UNL     1       0.891  -5.560  -4.158  0.00  0.00    +0.126 A 
ENDROOT
BRANCH   3   7
ATOM      7  C   UNL     1      -0.655  -3.440  -7.531  0.00  0.00    +0.193 C 
ATOM      8  N   UNL     1      -1.277  -2.190  -7.078  0.00  0.00    -0.321 N 
ATOM      9  C   UNL     1      -2.525  -2.252  -6.469  0.00  0.00    +0.041 A 
ATOM     10  C   UNL     1      -2.921  -1.333  -5.513  0.00  0.00    +0.024 A 
ATOM     11  C   UNL     1      -4.172  -1.442  -4.936  0.00  0.00    +0.002 A 
ATOM     12  C   UNL     1      -5.032  -2.463  -5.308  0.00  0.00    +0.001 A 
ATOM     13  C   UNL     1      -4.654  -3.386  -6.260  0.00  0.00    +0.015 A 
ATOM     14  C   UNL     1      -3.397  -3.288  -6.851  0.00  0.00    +0.058 A 
ATOM     15  C   UNL     1      -2.945  -4.242  -7.879  0.00  0.00    +0.250 C 
ATOM     16  O   UNL     1      -3.739  -4.991  -8.415  0.00  0.00    -0.270 OA
ATOM     17  N   UNL     1      -1.642  -4.274  -8.217  0.00  0.00    -0.271 N 
ATOM     18  H   UNL     1      -0.826  -1.340  -7.199  0.00  0.00    +0.148 HD
BRANCH  17  19
ATOM     19  C   UNL     1      -1.207  -5.165  -9.295  0.00  0.00    +0.145 C 
BRANCH  19  20
ATOM     20  C   UNL     1      -1.214  -4.414 -10.602  0.00  0.00    -0.030 A 
ATOM     21  C   UNL     1      -2.327  -4.462 -11.421  0.00  0.00    +0.005 A 
ATOM     22  C   UNL     1      -2.333  -3.773 -12.619  0.00  0.00    +0.000 A 
ATOM     23  C   UNL     1      -1.228  -3.035 -12.998  0.00  0.00    +0.000 A 
ATOM     24  C   UNL     1      -0.116  -2.986 -12.179  0.00  0.00    +0.000 A 
ATOM     25  C   UNL     1      -0.111  -3.671 -10.978  0.00  0.00    +0.005 A 
ENDBRANCH  19  20
ENDBRANCH  17  19
ENDBRANCH   3   7
BRANCH   6  26
ATOM     26  O   UNL     1       1.386  -6.235  -3.087  0.00  0.00    -0.495 OA
ATOM     27  C   UNL     1       1.317  -7.661  -3.131  0.00  0.00    +0.277 C 
ENDBRANCH   6  26
BRANCH   1  28
ATOM     28  C   UNL     1       1.512  -3.413  -3.022  0.00  0.00    +0.268 C 
BRANCH  28  29
ATOM     29  O   UNL     1       1.433  -2.010  -3.282  0.00  0.00    -0.487 OA
BRANCH  29  33
ATOM     30  C   UNL     1       2.328   2.534  -1.745  0.00  0.00    +0.046 C 
ATOM     31  C   UNL     1       2.376   1.042  -1.542  0.00  0.00    -0.017 A 
ATOM     32  C   UNL     1       1.878   0.197  -2.515  0.00  0.00    +0.051 A 
ATOM     33  C   UNL     1       1.923  -1.177  -2.327  0.00  0.00    +0.121 A 
ATOM     34  C   UNL     1       2.467  -1.699  -1.162  0.00  0.00    +0.048 A 
ATOM     35  C   UNL     1       2.963  -0.849  -0.193  0.00  0.00    +0.036 A 
ATOM     36  C   UNL     1       2.923   0.520  -0.384  0.00  0.00    +0.129 A 
BRANCH  36  37
ATOM     37  N   UNL     1       3.461   1.427   0.653  0.00  0.00    +0.057 N 
ATOM     38  O   UNL     1       4.035   2.441   0.331  0.00  0.00    -0.126 OA
ATOM     39  O   UNL     1       3.327   1.155   1.823  0.00  0.00    -0.126 OA
ENDBRANCH  36  37
ENDBRANCH  29  33
ENDBRANCH  28  29
ENDBRANCH   1  28
TORSDOF 8
