REMARK  Name = ZINC20730574
REMARK  2 active torsions:
REMARK  status: ('A' for Active; 'I' for Inactive)
REMARK    1  A    between atoms: C_9  and  C_13
REMARK    2  A    between atoms: C_15  and  C_18
REMARK                            x       y       z     vdW  Elec       q    Type
REMARK                         _______ _______ _______ _____ _____    ______ ____
ROOT
ATOM      1  C   UNL     1       5.220  -9.424  -0.099  0.00  0.00    +0.001 A 
ATOM      2  C   UNL     1       3.960 -10.005  -0.090  0.00  0.00    +0.002 A 
ATOM      3  C   UNL     1       2.825  -9.225  -0.073  0.00  0.00    +0.026 A 
ATOM      4  C   UNL     1       2.939  -7.837  -0.066  0.00  0.00    +0.050 A 
ATOM      5  C   UNL     1       4.218  -7.255  -0.076  0.00  0.00    +0.046 A 
ATOM      6  C   UNL     1       5.356  -8.063  -0.093  0.00  0.00    +0.014 A 
ATOM      7  C   UNL     1       4.326  -5.785  -0.075  0.00  0.00    +0.202 A 
ATOM      8  O   UNL     1       5.410  -5.228  -0.087  0.00  0.00    -0.286 OA
ATOM      9  C   UNL     1       3.071  -5.019  -0.053  0.00  0.00    +0.102 A 
ATOM     10  C   UNL     1       1.874  -5.700  -0.045  0.00  0.00    +0.100 A 
ATOM     11  N   UNL     1       1.815  -7.041  -0.051  0.00  0.00    -0.360 N 
ATOM     12  H   UNL     1       0.816  -7.501  -0.043  0.00  0.00    +0.165 HD
ENDROOT
BRANCH   9  13
ATOM     13  C   UNL     1       3.094  -3.545  -0.045  0.00  0.00    +0.264 A 
ATOM     14  N   UNL     1       2.045  -2.742  -0.031  0.00  0.00    -0.186 NA
ATOM     15  C   UNL     1       2.550  -1.489  -0.030  0.00  0.00    +0.209 A 
ATOM     16  N   UNL     1       3.856  -1.595  -0.048  0.00  0.00    -0.055 NA
ATOM     17  O   UNL     1       4.185  -2.762  -0.052  0.00  0.00    -0.332 OA
BRANCH  15  18
ATOM     18  C   UNL     1       1.773  -0.232  -0.016  0.00  0.00    +0.060 A 
ATOM     19  C   UNL     1       2.224   1.061  -0.013  0.00  0.00    +0.019 A 
ATOM     20  C   UNL     1       1.302   2.083   0.001  0.00  0.00    +0.008 A 
ATOM     21  C   UNL     1      -0.022   1.781   0.012  0.00  0.00    +0.046 A 
ATOM     22  S   UNL     1       0.002  -0.004   0.002  0.00  0.00    -0.093 S 
ENDBRANCH  15  18
ENDBRANCH   9  13
TORSDOF 2
