REMARK  Name = ZINC11634264
REMARK  11 active torsions:
REMARK  status: ('A' for Active; 'I' for Inactive)
REMARK    1  A    between atoms: C_1  and  C_2
REMARK    2  A    between atoms: C_2  and  N_3
REMARK    3  A    between atoms: C_7  and  C_34
REMARK    4  A    between atoms: N_12  and  C_13
REMARK    5  A    between atoms: C_13  and  C_15
REMARK    6  A    between atoms: C_18  and  S_21
REMARK    7  A    between atoms: S_21  and  N_24
REMARK    8  A    between atoms: C_26  and  C_33
REMARK    9  A    between atoms: C_29  and  C_32
REMARK   10  A    between atoms: C_34  and  O_36
REMARK   11  A    between atoms: O_36  and  C_37
REMARK                            x       y       z     vdW  Elec       q    Type
REMARK                         _______ _______ _______ _____ _____    ______ ____
ROOT
ATOM      1  C   UNL     1      -2.345  -0.838  -3.443  0.00  0.00    +0.269 C 
ATOM      2  O   UNL     1      -3.476  -1.256  -3.267  0.00  0.00    -0.268 OA
ENDROOT
BRANCH   1  12
ATOM      3  N   UNL     1      -1.372  -0.511   0.012  0.00  0.00    -0.321 N 
ATOM      4  C   UNL     1      -2.010  -0.751   1.210  0.00  0.00    +0.058 A 
ATOM      5  C   UNL     1      -1.528  -0.579   2.518  0.00  0.00    +0.028 A 
ATOM      6  C   UNL     1      -2.307  -0.871   3.595  0.00  0.00    +0.017 A 
ATOM      7  C   UNL     1      -3.611  -1.352   3.437  0.00  0.00    +0.060 A 
ATOM      8  C   UNL     1      -4.116  -1.532   2.143  0.00  0.00    +0.032 A 
ATOM      9  C   UNL     1      -3.321  -1.235   1.067  0.00  0.00    +0.040 A 
ATOM     10  S   UNL     1      -3.534  -1.306  -0.693  0.00  0.00    -0.052 S 
ATOM     11  C   UNL     1      -2.022  -0.740  -1.159  0.00  0.00    +0.167 A 
ATOM     12  N   UNL     1      -1.565  -0.560  -2.393  0.00  0.00    -0.152 NA
BRANCH   3  14
ATOM     13  C   UNL     1      -0.019   1.526   0.010  0.00  0.00    +0.027 C 
ATOM     14  C   UNL     1       0.002  -0.004   0.002  0.00  0.00    +0.121 C 
ENDBRANCH   3  14
BRANCH   7  15
ATOM     15  C   UNL     1      -4.443  -1.664   4.614  0.00  0.00    +0.339 C 
ATOM     16  O   UNL     1      -5.574  -2.081   4.466  0.00  0.00    -0.245 OA
BRANCH  15  17
ATOM     17  O   UNL     1      -3.947  -1.487   5.855  0.00  0.00    -0.464 OA
ATOM     18  C   UNL     1      -4.807  -1.809   6.949  0.00  0.00    +0.280 C 
ENDBRANCH  15  17
ENDBRANCH   7  15
ENDBRANCH   1  12
BRANCH   1  19
ATOM     19  C   UNL     1      -1.835  -0.636  -4.819  0.00  0.00    +0.039 A 
ATOM     20  C   UNL     1      -0.539  -0.163  -5.023  0.00  0.00    +0.015 A 
ATOM     21  C   UNL     1      -0.070   0.023  -6.307  0.00  0.00    +0.029 A 
ATOM     22  C   UNL     1      -0.881  -0.260  -7.391  0.00  0.00    +0.106 A 
ATOM     23  C   UNL     1      -2.168  -0.730  -7.195  0.00  0.00    +0.029 A 
ATOM     24  C   UNL     1      -2.647  -0.926  -5.916  0.00  0.00    +0.015 A 
BRANCH  22  25
ATOM     25  S   UNL     1      -0.275  -0.020  -9.028  0.00  0.00    +0.061 S 
ATOM     26  O   UNL     1      -1.412   0.162  -9.860  0.00  0.00    -0.153 OA
ATOM     27  O   UNL     1       0.765   0.943  -8.938  0.00  0.00    -0.153 OA
BRANCH  25  28
ATOM     28  N   UNL     1       0.434  -1.440  -9.500  0.00  0.00    -0.176 NA
ATOM     29  C   UNL     1       1.859  -1.688  -9.240  0.00  0.00    +0.112 C 
ATOM     30  C   UNL     1       2.001  -3.021  -8.498  0.00  0.00    +0.002 C 
ATOM     31  C   UNL     1       1.307  -4.123  -9.301  0.00  0.00    +0.009 C 
ATOM     32  C   UNL     1      -0.183  -3.800  -9.434  0.00  0.00    +0.002 C 
ATOM     33  C   UNL     1      -0.350  -2.479 -10.181  0.00  0.00    +0.112 C 
ATOM     34  C   UNL     1      -0.881  -4.920 -10.208  0.00  0.00    +0.009 C 
ATOM     35  C   UNL     1       3.484  -3.361  -8.337  0.00  0.00    +0.009 C 
ENDBRANCH  25  28
ENDBRANCH  22  25
ENDBRANCH   1  19
TORSDOF 7
