REMARK  Name = ZINC09015390
REMARK  3 active torsions:
REMARK  status: ('A' for Active; 'I' for Inactive)
REMARK    1  A    between atoms: C_4  and  C_7
REMARK    2  A    between atoms: C_17  and  C_19
REMARK    3  A    between atoms: C_22  and  N_25
REMARK                            x       y       z     vdW  Elec       q    Type
REMARK                         _______ _______ _______ _____ _____    ______ ____
ROOT
ATOM      1  C   UNL     1       3.696  -0.686  -0.037  0.00  0.00    +0.071 A 
ATOM      2  C   UNL     1       4.017  -1.742  -0.821  0.00  0.00    +0.027 A 
ATOM      3  C   UNL     1       5.344  -2.118  -0.523  0.00  0.00    +0.151 A 
ATOM      4  N   UNL     1       5.798  -1.326   0.404  0.00  0.00    -0.158 NA
ATOM      5  N   UNL     1       4.791  -0.404   0.731  0.00  0.00    -0.275 N 
ATOM      6  H   UNL     1       4.859   0.307   1.388  0.00  0.00    +0.189 HD
ATOM      7  N   UNL     1       5.966  -3.182  -1.195  0.00  0.00    -0.269 N 
ATOM      8  C   UNL     1       5.334  -3.709  -2.264  0.00  0.00    +0.219 C 
ATOM      9  O   UNL     1       5.747  -4.750  -2.731  0.00  0.00    -0.275 OA
ATOM     10  C   UNL     1       4.141  -3.057  -2.900  0.00  0.00    +0.109 C 
ATOM     11  C   UNL     1       3.192  -2.470  -1.851  0.00  0.00    +0.063 C 
ATOM     12  H   UNL     1       6.824  -3.527  -0.900  0.00  0.00    +0.156 HD
ENDROOT
BRANCH   1  16
ATOM     13  C   UNL     1      -0.017   1.379   0.010  0.00  0.00    +0.000 A 
ATOM     14  C   UNL     1       1.168   2.093   0.002  0.00  0.00    +0.001 A 
ATOM     15  C   UNL     1       2.377   1.428  -0.013  0.00  0.00    +0.010 A 
ATOM     16  C   UNL     1       2.403   0.033  -0.021  0.00  0.00    +0.000 A 
ATOM     17  C   UNL     1       1.205  -0.680  -0.013  0.00  0.00    +0.010 A 
ATOM     18  C   UNL     1       0.002  -0.004   0.002  0.00  0.00    +0.001 A 
ENDBRANCH   1  16
BRANCH  11  19
ATOM     19  C   UNL     1       2.416  -3.579  -1.190  0.00  0.00    -0.039 A 
ATOM     20  C   UNL     1       3.086  -4.588  -0.523  0.00  0.00    +0.006 A 
ATOM     21  C   UNL     1       2.374  -5.606   0.084  0.00  0.00    +0.033 A 
ATOM     22  C   UNL     1       0.993  -5.615   0.025  0.00  0.00    +0.126 A 
ATOM     23  C   UNL     1       0.324  -4.606  -0.641  0.00  0.00    +0.033 A 
ATOM     24  C   UNL     1       1.035  -3.586  -1.244  0.00  0.00    +0.006 A 
BRANCH  22  25
ATOM     25  N   UNL     1       0.232  -6.706   0.674  0.00  0.00    +0.056 N 
ATOM     26  O   UNL     1       0.817  -7.589   1.256  0.00  0.00    -0.126 OA
ATOM     27  O   UNL     1      -0.976  -6.713   0.622  0.00  0.00    -0.126 OA
ENDBRANCH  22  25
ENDBRANCH  11  19
TORSDOF 3
