REMARK  Name = ZINC33937814
REMARK  6 active torsions:
REMARK  status: ('A' for Active; 'I' for Inactive)
REMARK    1  A    between atoms: C_1  and  C_2
REMARK    2  A    between atoms: C_2  and  O_4
REMARK    3  A    between atoms: O_4  and  C_5
REMARK    4  A    between atoms: C_9  and  C_32
REMARK    5  A    between atoms: C_14  and  C_31
REMARK    6  A    between atoms: N_26  and  N_27
REMARK                            x       y       z     vdW  Elec       q    Type
REMARK                         _______ _______ _______ _____ _____    ______ ____
ROOT
ATOM      1  C   UNL     1      -1.117  -3.570  -1.043  0.00  0.00    +0.180 C 
ATOM      2  C   UNL     1      -2.501  -4.003  -1.518  0.00  0.00    +0.046 C 
ATOM      3  C   UNL     1      -3.619  -3.269  -0.784  0.00  0.00    +0.015 C 
ATOM      4  C   UNL     1      -3.438  -3.395   0.736  0.00  0.00    -0.008 C 
ATOM      5  C   UNL     1      -4.730  -3.828   1.385  0.00  0.00    +0.003 C 
ATOM      6  C   UNL     1      -4.904  -3.435   2.839  0.00  0.00    +0.005 C 
ATOM      7  C   UNL     1      -6.325  -3.782   3.328  0.00  0.00    +0.013 C 
ATOM      8  C   UNL     1      -6.585  -5.254   3.155  0.00  0.00    +0.011 C 
ATOM      9  C   UNL     1      -6.267  -5.704   1.718  0.00  0.00    +0.005 C 
ATOM     10  C   UNL     1      -4.888  -5.364   1.248  0.00  0.00    +0.001 C 
ATOM     11  C   UNL     1      -3.760  -6.034   2.021  0.00  0.00    +0.031 C 
ATOM     12  C   UNL     1      -2.437  -5.525   1.508  0.00  0.00    -0.027 C 
ATOM     13  C   UNL     1      -2.304  -4.365   0.951  0.00  0.00    -0.064 C 
ATOM     14  C   UNL     1      -0.939  -3.936   0.437  0.00  0.00    +0.075 C 
ATOM     15  C   UNL     1      -6.711  -7.171   1.763  0.00  0.00    +0.010 C 
ATOM     16  C   UNL     1      -8.036  -7.073   2.578  0.00  0.00    +0.053 C 
ATOM     17  C   UNL     1      -8.038  -5.694   3.236  0.00  0.00    +0.043 C 
ATOM     18  N   UNL     1      -9.011  -5.049   3.736  0.00  0.00    -0.187 NA
ATOM     19  C   UNL     1      -5.856  -6.057   4.231  0.00  0.00    +0.018 C 
ATOM     20  C   UNL     1      -3.021  -2.023   1.262  0.00  0.00    +0.016 C 
ENDROOT
BRANCH  18  21
ATOM     21  N   UNL     1     -10.297  -5.604   3.728  0.00  0.00    -0.191 N 
ATOM     22  C   UNL     1     -11.330  -4.920   4.259  0.00  0.00    +0.317 C 
ATOM     23  O   UNL     1     -12.446  -5.402   4.253  0.00  0.00    -0.251 OA
ATOM     24  N   UNL     1     -11.125  -3.701   4.796  0.00  0.00    -0.312 N 
ATOM     25  H   UNL     1     -10.445  -6.481   3.342  0.00  0.00    +0.179 HD
ATOM     26  H   UNL     1     -10.235  -3.316   4.801  0.00  0.00    +0.147 HD
ATOM     27  H   UNL     1     -11.868  -3.208   5.178  0.00  0.00    +0.147 HD
ENDBRANCH  18  21
BRANCH   1  28
ATOM     28  O   UNL     1      -0.965  -2.160  -1.213  0.00  0.00    -0.461 OA
BRANCH  28  30
ATOM     29  C   UNL     1       0.514  -0.230  -1.644  0.00  0.00    +0.136 C 
ATOM     30  C   UNL     1       0.276  -1.706  -1.453  0.00  0.00    +0.304 C 
ATOM     31  O   UNL     1       1.201  -2.481  -1.517  0.00  0.00    -0.251 OA
ENDBRANCH  28  30
ENDBRANCH   1  28
TORSDOF 3
