REMARK  Name = ZINC17835405
REMARK  9 active torsions:
REMARK  status: ('A' for Active; 'I' for Inactive)
REMARK    1  A    between atoms: C_1  and  C_2
REMARK    2  A    between atoms: C_2  and  O_3
REMARK    3  A    between atoms: O_3  and  C_4
REMARK    4  A    between atoms: C_6  and  C_13
REMARK    5  A    between atoms: C_9  and  O_10
REMARK    6  A    between atoms: O_10  and  C_11
REMARK    7  A    between atoms: C_13  and  N_14
REMARK    8  A    between atoms: N_14  and  C_15
REMARK    9  A    between atoms: C_24  and  O_27
REMARK                            x       y       z     vdW  Elec       q    Type
REMARK                         _______ _______ _______ _____ _____    ______ ____
ROOT
ATOM      1  N   UNL     1      -1.621  -5.282   0.128  0.00  0.00    +0.386 N 
ATOM      2  H   UNL     1      -2.161  -4.431   0.101  0.00  0.00    -0.085 HD
ATOM      3  H   UNL     1      -1.647  -5.726  -0.778  0.00  0.00    -0.085 HD
ENDROOT
BRANCH   1   4
ATOM      4  C   UNL     1      -2.187  -6.190   1.135  0.00  0.00    -0.065 C 
ATOM      5  C   UNL     1      -1.367  -7.481   1.176  0.00  0.00    -0.009 C 
ATOM      6  C   UNL     1      -1.957  -8.426   2.225  0.00  0.00    -0.009 C 
ATOM      7  C   UNL     1      -1.917  -7.753   3.598  0.00  0.00    +0.007 C 
ATOM      8  C   UNL     1      -2.737  -6.462   3.557  0.00  0.00    -0.009 C 
ATOM      9  C   UNL     1      -2.147  -5.516   2.508  0.00  0.00    -0.009 C 
ATOM     10  C   UNL     1      -4.186  -6.789   3.191  0.00  0.00    +0.038 C 
ATOM     11  C   UNL     1      -4.226  -7.462   1.818  0.00  0.00    +0.065 C 
ATOM     12  C   UNL     1      -3.406  -8.754   1.859  0.00  0.00    +0.038 C 
ATOM     13  C   UNL     1      -3.636  -6.517   0.769  0.00  0.00    +0.022 C 
BRANCH  11  14
ATOM     14  O   UNL     1      -5.579  -7.768   1.476  0.00  0.00    -0.389 OA
ATOM     15  H   UNL     1      -6.017  -8.364   2.099  0.00  0.00    +0.210 HD
ENDBRANCH  11  14
ENDBRANCH   1   4
BRANCH   1  16
ATOM     16  C   UNL     1      -0.229  -4.968   0.479  0.00  0.00    -0.046 C 
BRANCH  16  19
ATOM     17  C   UNL     1       0.777  -1.811  -1.336  0.00  0.00    +0.164 A 
ATOM     18  C   UNL     1       0.243  -2.669  -0.388  0.00  0.00    +0.051 A 
ATOM     19  C   UNL     1       0.352  -4.037  -0.554  0.00  0.00    -0.059 A 
ATOM     20  C   UNL     1       0.992  -4.553  -1.665  0.00  0.00    +0.025 A 
ATOM     21  C   UNL     1       1.527  -3.703  -2.616  0.00  0.00    +0.086 A 
ATOM     22  C   UNL     1       1.416  -2.329  -2.458  0.00  0.00    +0.180 A 
ATOM     23 CL   UNL     1       2.331  -4.354  -4.010  0.00  0.00    -0.080 Cl
BRANCH  22  24
ATOM     24  O   UNL     1       1.936  -1.491  -3.395  0.00  0.00    -0.490 OA
ATOM     25  C   UNL     1       3.292  -1.079  -3.215  0.00  0.00    +0.277 C 
ENDBRANCH  22  24
BRANCH  17  26
ATOM     26  O   UNL     1       0.671  -0.465  -1.174  0.00  0.00    -0.489 OA
BRANCH  26  28
ATOM     27  C   UNL     1      -0.019   1.526   0.010  0.00  0.00    +0.048 C 
ATOM     28  C   UNL     1       0.002  -0.004   0.002  0.00  0.00    +0.226 C 
ENDBRANCH  26  28
ENDBRANCH  17  26
ENDBRANCH  16  19
ENDBRANCH   1  16
TORSDOF 7
