REMARK  Name = ZINC39886748
REMARK  5 active torsions:
REMARK  status: ('A' for Active; 'I' for Inactive)
REMARK    1  A    between atoms: C_1  and  C_2
REMARK    2  A    between atoms: C_2  and  C_3
REMARK    3  A    between atoms: C_2  and  C_4
REMARK    4  A    between atoms: C_2  and  C_5
REMARK    5  A    between atoms: C_8  and  C_11
REMARK                            x       y       z     vdW  Elec       q    Type
REMARK                         _______ _______ _______ _____ _____    ______ ____
ROOT
ATOM      1  C   UNL     1       2.707  -1.868  -4.752  0.00  0.00    +0.072 C 
ATOM      2  C   UNL     1       3.971  -2.579  -4.368  0.00  0.00    +0.032 A 
ATOM      3  C   UNL     1       5.260  -2.127  -4.377  0.00  0.00    +0.110 A 
ATOM      4  N   UNL     1       6.171  -3.022  -3.998  0.00  0.00    -0.225 NA
ATOM      5  C   UNL     1       5.835  -4.239  -3.627  0.00  0.00    +0.147 A 
ATOM      6  S   UNL     1       6.887  -5.549  -3.096  0.00  0.00    -0.023 SA
ATOM      7  S   UNL     1       4.158  -4.242  -3.783  0.00  0.00    -0.063 S 
ATOM      8  S   UNL     1       5.638  -0.447  -4.854  0.00  0.00    -0.091 S 
ATOM      9  C   UNL     1       3.977   0.276  -4.811  0.00  0.00    +0.152 C 
ATOM     10  C   UNL     1       3.067  -0.692  -5.627  0.00  0.00    +0.110 C 
ATOM     11  C   UNL     1       1.987   0.247  -6.063  0.00  0.00    +0.235 C 
ATOM     12  O   UNL     1       0.829  -0.025  -6.272  0.00  0.00    -0.274 OA
ATOM     13  N   UNL     1       2.572   1.468  -6.175  0.00  0.00    -0.162 N 
ATOM     14  C   UNL     1       3.823   1.543  -5.608  0.00  0.00    +0.244 C 
ATOM     15  O   UNL     1       4.638   2.426  -5.729  0.00  0.00    -0.273 OA
ATOM     16  C   UNL     1       1.976   2.520  -6.771  0.00  0.00    +0.313 C 
ATOM     17  O   UNL     1       0.862   2.401  -7.240  0.00  0.00    -0.252 OA
ATOM     18  N   UNL     1       2.617   3.704  -6.847  0.00  0.00    -0.313 N 
ATOM     19  H   UNL     1       3.506   3.799  -6.473  0.00  0.00    +0.147 HD
ATOM     20  H   UNL     1       2.188   4.461  -7.276  0.00  0.00    +0.147 HD
ENDROOT
BRANCH   1  24
ATOM     21  C   UNL     1       0.707  -0.490  -1.238  0.00  0.00    -0.042 A 
ATOM     22  C   UNL     1      -0.027  -0.879  -2.344  0.00  0.00    +0.004 A 
ATOM     23  C   UNL     1       0.621  -1.325  -3.481  0.00  0.00    +0.004 A 
ATOM     24  C   UNL     1       2.001  -1.381  -3.513  0.00  0.00    -0.039 A 
ATOM     25  C   UNL     1       2.735  -0.992  -2.408  0.00  0.00    +0.004 A 
ATOM     26  C   UNL     1       2.088  -0.542  -1.272  0.00  0.00    +0.004 A 
BRANCH  21  28
ATOM     27  C   UNL     1       0.432   1.432   0.304  0.00  0.00    +0.015 C 
ATOM     28  C   UNL     1       0.001  -0.004   0.002  0.00  0.00    -0.013 C 
ATOM     29  C   UNL     1       0.366  -0.906   1.183  0.00  0.00    +0.015 C 
ATOM     30  C   UNL     1      -1.512  -0.046  -0.223  0.00  0.00    +0.015 C 
ENDBRANCH  21  28
ENDBRANCH   1  24
TORSDOF 2
