REMARK  Name = ZINC07976624
REMARK  7 active torsions:
REMARK  status: ('A' for Active; 'I' for Inactive)
REMARK    1  A    between atoms: C_1  and  C_2
REMARK    2  A    between atoms: C_7  and  N_12
REMARK    3  A    between atoms: C_9  and  C_11
REMARK    4  A    between atoms: C_13  and  C_15
REMARK    5  A    between atoms: C_15  and  N_16
REMARK    6  A    between atoms: C_19  and  C_23
REMARK    7  A    between atoms: C_19  and  C_29
REMARK                            x       y       z     vdW  Elec       q    Type
REMARK                         _______ _______ _______ _____ _____    ______ ____
ROOT
ATOM      1  N   UNL     1      -2.384  -5.985   1.385  0.00  0.00    -0.215 N 
ATOM      2  C   UNL     1      -2.180  -7.306   1.218  0.00  0.00    +0.256 C 
ATOM      3  O   UNL     1      -1.986  -7.891   0.174  0.00  0.00    -0.272 OA
ATOM      4  C   UNL     1      -2.244  -7.910   2.608  0.00  0.00    +0.164 C 
ATOM      5  N   UNL     1      -2.500  -6.749   3.478  0.00  0.00    -0.278 N 
ATOM      6  C   UNL     1      -2.561  -5.672   2.674  0.00  0.00    +0.310 C 
ATOM      7  O   UNL     1      -2.758  -4.541   3.074  0.00  0.00    -0.252 OA
ATOM      8  H   UNL     1      -2.602  -6.759   4.442  0.00  0.00    +0.152 HD
ENDROOT
BRANCH   4   9
ATOM      9  C   UNL     1      -0.932  -8.560   2.964  0.00  0.00    -0.011 A 
ATOM     10  C   UNL     1      -0.325  -8.275   4.173  0.00  0.00    +0.006 A 
ATOM     11  C   UNL     1       0.879  -8.871   4.500  0.00  0.00    +0.000 A 
ATOM     12  C   UNL     1       1.475  -9.753   3.618  0.00  0.00    +0.000 A 
ATOM     13  C   UNL     1       0.867 -10.039   2.409  0.00  0.00    +0.000 A 
ATOM     14  C   UNL     1      -0.338  -9.446   2.085  0.00  0.00    +0.006 A 
ENDBRANCH   4   9
BRANCH   4  15
ATOM     15  C   UNL     1      -3.373  -8.903   2.703  0.00  0.00    -0.011 A 
ATOM     16  C   UNL     1      -4.281  -8.820   3.742  0.00  0.00    +0.006 A 
ATOM     17  C   UNL     1      -5.317  -9.732   3.829  0.00  0.00    +0.000 A 
ATOM     18  C   UNL     1      -5.444 -10.726   2.878  0.00  0.00    +0.000 A 
ATOM     19  C   UNL     1      -4.537 -10.809   1.838  0.00  0.00    +0.000 A 
ATOM     20  C   UNL     1      -3.504  -9.895   1.748  0.00  0.00    +0.006 A 
ENDBRANCH   4  15
BRANCH   1  21
ATOM     21  C   UNL     1      -2.404  -5.011   0.292  0.00  0.00    +0.213 C 
BRANCH  21  23
ATOM     22  N   UNL     1      -0.785  -3.570  -0.901  0.00  0.00    -0.311 N 
ATOM     23  C   UNL     1      -1.010  -4.485   0.063  0.00  0.00    +0.231 C 
ATOM     24  O   UNL     1      -0.091  -4.884   0.746  0.00  0.00    -0.274 OA
ATOM     25  H   UNL     1      -1.520  -3.250  -1.448  0.00  0.00    +0.149 HD
BRANCH  22  31
ATOM     26  C   UNL     1      -0.319  -0.383  -3.746  0.00  0.00    +0.008 C 
ATOM     27  C   UNL     1      -0.242  -1.770  -3.104  0.00  0.00    -0.009 C 
ATOM     28  C   UNL     1       0.516  -2.721  -4.034  0.00  0.00    +0.003 C 
ATOM     29  C   UNL     1       0.593  -4.107  -3.392  0.00  0.00    +0.002 C 
ATOM     30  C   UNL     1       1.327  -4.010  -2.053  0.00  0.00    +0.022 C 
ATOM     31  C   UNL     1       0.570  -3.059  -1.124  0.00  0.00    +0.076 C 
ATOM     32  C   UNL     1       0.493  -1.672  -1.766  0.00  0.00    +0.009 C 
ATOM     33  C   UNL     1      -0.265  -0.722  -0.837  0.00  0.00    +0.009 C 
ENDBRANCH  22  31
ENDBRANCH  21  23
ENDBRANCH   1  21
TORSDOF 5
