REMARK  Name = ZINC16477924
REMARK  6 active torsions:
REMARK  status: ('A' for Active; 'I' for Inactive)
REMARK    1  A    between atoms: C_4  and  C_7
REMARK    2  A    between atoms: C_8  and  S_24
REMARK    3  A    between atoms: C_9  and  C_17
REMARK    4  A    between atoms: C_11  and  C_15
REMARK    5  A    between atoms: C_12  and  N_14
REMARK    6  A    between atoms: S_24  and  C_27
REMARK                            x       y       z     vdW  Elec       q    Type
REMARK                         _______ _______ _______ _____ _____    ______ ____
ROOT
ATOM      1  C   UNL     1       0.078  -0.010  -0.169  0.00  0.00    +0.159 C 
ATOM      2  C   UNL     1       1.313  -0.392  -0.460  0.00  0.00    +0.126 C 
ATOM      3  C   UNL     1       2.508   0.319   0.113  0.00  0.00    +0.116 C 
ATOM      4  C   UNL     1       2.097   1.658   0.662  0.00  0.00    +0.099 C 
ATOM      5  C   UNL     1       0.791   1.938   0.899  0.00  0.00    +0.199 C 
ATOM      6  O   UNL     1      -0.174   1.034   0.652  0.00  0.00    -0.439 OA
ENDROOT
BRANCH   3   7
ATOM      7  C   UNL     1       3.102  -0.514   1.219  0.00  0.00    -0.033 A 
ATOM      8  C   UNL     1       2.342  -0.832   2.329  0.00  0.00    +0.007 A 
ATOM      9  C   UNL     1       2.885  -1.599   3.342  0.00  0.00    +0.038 A 
ATOM     10  C   UNL     1       4.193  -2.042   3.250  0.00  0.00    +0.123 A 
ATOM     11  C   UNL     1       4.955  -1.719   2.140  0.00  0.00    +0.038 A 
ATOM     12  C   UNL     1       4.409  -0.956   1.126  0.00  0.00    +0.007 A 
ATOM     13  F   UNL     1       4.726  -2.789   4.242  0.00  0.00    -0.205 F 
ENDBRANCH   3   7
BRANCH   1  17
ATOM     14  C   UNL     1      -3.188  -2.128  -1.872  0.00  0.00    +0.000 A 
ATOM     15  C   UNL     1      -2.451  -2.703  -0.853  0.00  0.00    +0.001 A 
ATOM     16  C   UNL     1      -1.389  -2.020  -0.296  0.00  0.00    +0.011 A 
ATOM     17  C   UNL     1      -1.060  -0.748  -0.762  0.00  0.00    +0.019 A 
ATOM     18  C   UNL     1      -1.811  -0.171  -1.786  0.00  0.00    +0.011 A 
ATOM     19  C   UNL     1      -2.867  -0.867  -2.339  0.00  0.00    +0.001 A 
ENDBRANCH   1  17
BRANCH   5  20
ATOM     20  N   UNL     1       0.448   3.169   1.401  0.00  0.00    -0.328 N 
ATOM     21  H   UNL     1      -0.483   3.380   1.575  0.00  0.00    +0.145 HD
ATOM     22  H   UNL     1       1.136   3.828   1.583  0.00  0.00    +0.145 HD
ENDBRANCH   5  20
BRANCH   2  23
ATOM     23  S   UNL     1       1.561  -1.762  -1.540  0.00  0.00    +0.026 S 
ATOM     24  O   UNL     1       2.469  -2.637  -0.885  0.00  0.00    -0.164 OA
ATOM     25  O   UNL     1       0.271  -2.182  -1.966  0.00  0.00    -0.164 OA
BRANCH  23  26
ATOM     26  C   UNL     1       2.390  -1.155  -2.971  0.00  0.00    +0.093 A 
ATOM     27  C   UNL     1       1.660  -0.703  -4.054  0.00  0.00    +0.027 A 
ATOM     28  C   UNL     1       2.311  -0.221  -5.174  0.00  0.00    +0.002 A 
ATOM     29  C   UNL     1       3.692  -0.203  -5.216  0.00  0.00    +0.000 A 
ATOM     30  C   UNL     1       4.423  -0.659  -4.135  0.00  0.00    +0.002 A 
ATOM     31  C   UNL     1       3.772  -1.136  -3.013  0.00  0.00    +0.027 A 
ENDBRANCH  23  26
ENDBRANCH   2  23
BRANCH   4  32
ATOM     32  C   UNL     1       3.095   2.647   0.936  0.00  0.00    +0.101 C 
ATOM     33  N   UNL     1       3.887   3.432   1.154  0.00  0.00    -0.191 NA
ENDBRANCH   4  32
TORSDOF 6
