REMARK  Name = ZINC15802584
REMARK  10 active torsions:
REMARK  status: ('A' for Active; 'I' for Inactive)
REMARK    1  A    between atoms: C_1  and  C_2
REMARK    2  A    between atoms: C_5  and  C_8
REMARK    3  A    between atoms: C_10  and  C_18
REMARK    4  A    between atoms: C_18  and  O_20
REMARK    5  A    between atoms: O_20  and  C_21
REMARK    6  A    between atoms: C_21  and  C_23
REMARK    7  A    between atoms: C_21  and  C_24
REMARK    8  A    between atoms: N_29  and  C_30
REMARK    9  A    between atoms: C_30  and  C_31
REMARK   10  A    between atoms: C_30  and  C_32
REMARK                            x       y       z     vdW  Elec       q    Type
REMARK                         _______ _______ _______ _____ _____    ______ ____
ROOT
ATOM      1  C   UNL     1       0.045  -4.255  -0.021  0.00  0.00    +0.072 A 
ATOM      2  C   UNL     1       0.054  -4.939   1.204  0.00  0.00    +0.044 A 
ATOM      3  C   UNL     1       0.085  -6.327   1.210  0.00  0.00    +0.070 A 
ATOM      4  C   UNL     1       0.107  -7.003  -0.088  0.00  0.00    +0.014 A 
ATOM      5  C   UNL     1       0.138  -8.398  -0.185  0.00  0.00    +0.011 A 
ATOM      6  C   UNL     1       0.158  -8.988  -1.414  0.00  0.00    +0.001 A 
ATOM      7  C   UNL     1       0.147  -8.218  -2.575  0.00  0.00    +0.002 A 
ATOM      8  C   UNL     1       0.117  -6.859  -2.517  0.00  0.00    +0.028 A 
ATOM      9  C   UNL     1       0.096  -6.214  -1.266  0.00  0.00    +0.072 A 
ATOM     10  N   UNL     1       0.060  -4.884  -1.177  0.00  0.00    -0.247 NA
ENDROOT
BRANCH   1  15
ATOM     11  C   UNL     1      -0.088   1.502   0.010  0.00  0.00    +0.044 C 
ATOM     12  C   UNL     1      -0.053  -0.005   0.002  0.00  0.00    -0.050 A 
ATOM     13  C   UNL     1      -0.035  -0.687  -1.201  0.00  0.00    +0.004 A 
ATOM     14  C   UNL     1      -0.004  -2.067  -1.215  0.00  0.00    +0.010 A 
ATOM     15  C   UNL     1       0.011  -2.773  -0.013  0.00  0.00    +0.000 A 
ATOM     16  C   UNL     1      -0.006  -2.080   1.196  0.00  0.00    +0.010 A 
ATOM     17  C   UNL     1      -0.032  -0.700   1.198  0.00  0.00    +0.004 A 
ENDBRANCH   1  15
BRANCH   3  18
ATOM     18  C   UNL     1       0.096  -7.091   2.475  0.00  0.00    +0.341 C 
ATOM     19  O   UNL     1       0.019  -8.303   2.453  0.00  0.00    -0.245 OA
BRANCH  18  20
ATOM     20  O   UNL     1       0.191  -6.442   3.652  0.00  0.00    -0.449 OA
BRANCH  20  21
ATOM     21  C   UNL     1       0.195  -7.244   4.835  0.00  0.00    +0.259 C 
ATOM     22  C   UNL     1      -1.241  -7.440   5.324  0.00  0.00    +0.062 C 
BRANCH  21  23
ATOM     23  C   UNL     1       1.000  -6.554   5.906  0.00  0.00    +0.261 C 
ATOM     24  O   UNL     1       1.442  -5.442   5.710  0.00  0.00    -0.271 OA
ATOM     25  N   UNL     1       1.228  -7.172   7.082  0.00  0.00    -0.237 N 
ATOM     26  C   UNL     1       1.948  -6.555   8.039  0.00  0.00    +0.306 C 
ATOM     27  O   UNL     1       2.392  -5.441   7.843  0.00  0.00    -0.252 OA
ATOM     28  N   UNL     1       2.177  -7.174   9.215  0.00  0.00    -0.297 N 
ATOM     29  H   UNL     1       0.875  -8.062   7.238  0.00  0.00    +0.159 HD
ATOM     30  H   UNL     1       1.823  -8.063   9.371  0.00  0.00    +0.151 HD
BRANCH  28  31
ATOM     31  C   UNL     1       2.959  -6.503  10.256  0.00  0.00    +0.068 C 
ATOM     32  C   UNL     1       2.574  -7.065  11.625  0.00  0.00    +0.027 C 
ATOM     33  C   UNL     1       4.450  -6.743  10.007  0.00  0.00    +0.027 C 
ENDBRANCH  28  31
ENDBRANCH  21  23
ENDBRANCH  20  21
ENDBRANCH  18  20
ENDBRANCH   3  18
TORSDOF 6
