REMARK  Name = ZINC36213574
REMARK  10 active torsions:
REMARK  status: ('A' for Active; 'I' for Inactive)
REMARK    1  A    between atoms: C_1  and  C_2
REMARK    2  A    between atoms: C_7  and  S_8
REMARK    3  A    between atoms: S_8  and  C_11
REMARK    4  A    between atoms: C_11  and  C_12
REMARK    5  A    between atoms: C_15  and  C_17
REMARK    6  A    between atoms: N_19  and  C_20
REMARK    7  A    between atoms: C_20  and  C_21
REMARK    8  A    between atoms: N_25  and  C_27
REMARK    9  A    between atoms: C_27  and  C_29
REMARK   10  A    between atoms: C_27  and  C_30
REMARK                            x       y       z     vdW  Elec       q    Type
REMARK                         _______ _______ _______ _____ _____    ______ ____
ROOT
ATOM      1  C   UNL     1       1.240   4.808   6.058  0.00  0.00    +0.279 C 
ATOM      2  O   UNL     1       1.526   5.039   7.218  0.00  0.00    -0.267 OA
ATOM      3  N   UNL     1       0.637   5.754   5.311  0.00  0.00    -0.309 N 
ATOM      4  H   UNL     1       0.409   5.569   4.386  0.00  0.00    +0.149 HD
ENDROOT
BRANCH   1   8
ATOM      5  C   UNL     1       1.713   1.857   4.027  0.00  0.00    +0.127 A 
ATOM      6  C   UNL     1       2.256   1.413   5.182  0.00  0.00    +0.047 A 
ATOM      7  C   UNL     1       2.158   2.458   6.114  0.00  0.00    +0.055 A 
ATOM      8  C   UNL     1       1.552   3.500   5.473  0.00  0.00    +0.189 A 
ATOM      9  O   UNL     1       1.295   3.117   4.205  0.00  0.00    -0.453 OA
BRANCH   5  10
ATOM     10  C   UNL     1       1.603   1.067   2.749  0.00  0.00    +0.246 C 
BRANCH  10  11
ATOM     11  S   UNL     1       0.026   0.171   2.726  0.00  0.00    +0.004 S 
ATOM     12  O   UNL     1      -1.056   1.087   2.623  0.00  0.00    -0.169 OA
ATOM     13  O   UNL     1       0.024  -0.843   3.721  0.00  0.00    -0.169 OA
BRANCH  11  20
ATOM     14  C   UNL     1      -0.018   1.503   0.010  0.00  0.00    +0.046 C 
ATOM     15  C   UNL     1       0.002  -0.004   0.002  0.00  0.00    -0.026 A 
ATOM     16  C   UNL     1       0.006  -0.689  -1.199  0.00  0.00    +0.005 A 
ATOM     17  C   UNL     1       0.025  -2.071  -1.207  0.00  0.00    +0.000 A 
ATOM     18  C   UNL     1       0.040  -2.768  -0.013  0.00  0.00    +0.002 A 
ATOM     19  C   UNL     1       0.037  -2.084   1.188  0.00  0.00    +0.027 A 
ATOM     20  C   UNL     1       0.023  -0.702   1.195  0.00  0.00    +0.092 A 
ENDBRANCH  11  20
ENDBRANCH  10  11
ENDBRANCH   5  10
ENDBRANCH   1   8
BRANCH   3  21
ATOM     21  C   UNL     1       0.326   7.061   5.895  0.00  0.00    +0.106 C 
BRANCH  21  22
ATOM     22  C   UNL     1      -0.351   7.941   4.843  0.00  0.00    -0.012 C 
ATOM     23  C   UNL     1      -1.767   7.405   4.507  0.00  0.00    -0.015 C 
ATOM     24  C   UNL     1      -2.485   8.692   4.030  0.00  0.00    -0.078 C 
ATOM     25  N   UNL     1      -1.958   9.763   4.902  0.00  0.00    +0.384 N 
ATOM     26  C   UNL     1      -0.633   9.349   5.410  0.00  0.00    -0.073 C 
ATOM     27  H   UNL     1      -2.588   9.912   5.676  0.00  0.00    -0.081 HD
BRANCH  25  28
ATOM     28  C   UNL     1      -1.821  11.006   4.131  0.00  0.00    -0.041 C 
ATOM     29  C   UNL     1      -3.194  11.441   3.617  0.00  0.00    -0.008 C 
BRANCH  28  30
ATOM     30  C   UNL     1      -1.251  12.085   5.016  0.00  0.00    -0.061 A 
ATOM     31  C   UNL     1      -1.665  12.193   6.330  0.00  0.00    +0.002 A 
ATOM     32  C   UNL     1      -1.142  13.183   7.141  0.00  0.00    +0.000 A 
ATOM     33  C   UNL     1      -0.204  14.065   6.637  0.00  0.00    +0.000 A 
ATOM     34  C   UNL     1       0.210  13.957   5.323  0.00  0.00    +0.000 A 
ATOM     35  C   UNL     1      -0.309  12.965   4.513  0.00  0.00    +0.002 A 
ENDBRANCH  28  30
ENDBRANCH  25  28
ENDBRANCH  21  22
ENDBRANCH   3  21
TORSDOF 8
