REMARK  Name = ZINC21490135
REMARK  6 active torsions:
REMARK  status: ('A' for Active; 'I' for Inactive)
REMARK    1  A    between atoms: C_1  and  S_2
REMARK    2  A    between atoms: S_2  and  N_5
REMARK    3  A    between atoms: C_12  and  C_14
REMARK    4  A    between atoms: C_14  and  O_16
REMARK    5  A    between atoms: O_16  and  C_17
REMARK    6  A    between atoms: C_17  and  C_18
REMARK                            x       y       z     vdW  Elec       q    Type
REMARK                         _______ _______ _______ _____ _____    ______ ____
ROOT
ATOM      1  C   UNL     1      -0.122   1.798   0.000  0.00  0.00    +0.308 C 
ENDROOT
BRANCH   1   2
ATOM      2  C   UNL     1       1.347   2.134  -0.005  0.00  0.00    +0.170 A 
ATOM      3  N   UNL     1       1.964   2.351   1.143  0.00  0.00    -0.214 NA
ATOM      4  C   UNL     1       3.253   2.644   1.205  0.00  0.00    +0.128 A 
ATOM      5  C   UNL     1       4.000   2.740  -0.002  0.00  0.00    +0.051 A 
ATOM      6  C   UNL     1       5.423   3.051  -0.173  0.00  0.00    -0.025 A 
ATOM      7  C   UNL     1       5.888   3.085  -1.439  0.00  0.00    -0.004 A 
ATOM      8  S   UNL     1       4.487   2.704  -2.460  0.00  0.00    -0.073 S 
ATOM      9  C   UNL     1       3.273   2.502  -1.184  0.00  0.00    +0.114 A 
ATOM     10  N   UNL     1       1.987   2.209  -1.156  0.00  0.00    -0.221 NA
ATOM     11  C   UNL     1       7.280   3.393  -1.897  0.00  0.00    +0.043 C 
ATOM     12  C   UNL     1       8.278   2.560  -1.083  0.00  0.00    +0.005 C 
ATOM     13  C   UNL     1       8.671   3.358   0.156  0.00  0.00    +0.001 C 
ATOM     14  C   UNL     1       7.491   4.206   0.627  0.00  0.00    +0.005 C 
ATOM     15  C   UNL     1       6.323   3.315   1.031  0.00  0.00    +0.037 C 
ATOM     16  N   UNL     1       3.865   2.860   2.427  0.00  0.00    -0.343 N 
ATOM     17  H   UNL     1       4.937   3.103   2.470  0.00  0.00    +0.144 HD
ATOM     18  H   UNL     1       3.280   2.788   3.356  0.00  0.00    +0.144 HD
ENDBRANCH   1   2
BRANCH   1  19
ATOM     19  O   UNL     1      -0.289   0.358   0.084  0.00  0.00    -0.453 OA
BRANCH  19  20
ATOM     20  C   UNL     1      -1.552  -0.111   0.100  0.00  0.00    +0.340 C 
ATOM     21  O   UNL     1      -2.489   0.662   0.045  0.00  0.00    -0.245 OA
BRANCH  20  29
ATOM     22  N   UNL     1      -2.717  -5.610   0.416  0.00  0.00    -0.207 N 
ATOM     23  C   UNL     1      -4.182  -5.652   0.405  0.00  0.00    +0.136 C 
ATOM     24  C   UNL     1      -4.627  -4.184   0.313  0.00  0.00    +0.058 C 
ATOM     25  C   UNL     1      -3.334  -3.399   0.278  0.00  0.00    -0.022 A 
ATOM     26  C   UNL     1      -2.274  -4.296   0.341  0.00  0.00    +0.054 A 
ATOM     27  C   UNL     1      -0.962  -3.807   0.324  0.00  0.00    +0.026 A 
ATOM     28  C   UNL     1      -0.725  -2.456   0.246  0.00  0.00    +0.017 A 
ATOM     29  C   UNL     1      -1.799  -1.562   0.183  0.00  0.00    +0.059 A 
ATOM     30  C   UNL     1      -3.107  -2.054   0.205  0.00  0.00    +0.020 A 
BRANCH  22  32
ATOM     31  C   UNL     1      -1.472  -7.208   2.279  0.00  0.00    +0.218 C 
ATOM     32  S   UNL     1      -1.733  -6.939   0.504  0.00  0.00    +0.043 S 
ATOM     33  O   UNL     1      -2.504  -7.999  -0.043  0.00  0.00    -0.155 OA
ATOM     34  O   UNL     1      -0.519  -6.532  -0.112  0.00  0.00    -0.155 OA
ENDBRANCH  22  32
ENDBRANCH  20  29
ENDBRANCH  19  20
ENDBRANCH   1  19
TORSDOF 5
