REMARK  Name = ZINC12497851
REMARK  12 active torsions:
REMARK  status: ('A' for Active; 'I' for Inactive)
REMARK    1  A    between atoms: C_1  and  C_2
REMARK    2  A    between atoms: C_2  and  O_3
REMARK    3  A    between atoms: O_3  and  C_4
REMARK    4  A    between atoms: C_7  and  N_10
REMARK    5  A    between atoms: C_15  and  C_30
REMARK    6  A    between atoms: C_17  and  C_22
REMARK    7  A    between atoms: C_17  and  C_26
REMARK    8  A    between atoms: C_22  and  C_23
REMARK    9  A    between atoms: C_23  and  S_24
REMARK   10  A    between atoms: S_24  and  C_25
REMARK   11  A    between atoms: C_26  and  O_28
REMARK   12  A    between atoms: O_28  and  C_29
REMARK                            x       y       z     vdW  Elec       q    Type
REMARK                         _______ _______ _______ _____ _____    ______ ____
ROOT
ATOM      1  N   UNL     1      -2.939   3.740   4.162  0.00  0.00    -0.210 N 
ATOM      2  C   UNL     1      -3.699   4.390   3.221  0.00  0.00    +0.229 C 
ATOM      3  O   UNL     1      -4.765   4.942   3.386  0.00  0.00    -0.275 OA
ATOM      4  C   UNL     1      -2.949   4.289   1.985  0.00  0.00    +0.077 C 
ATOM      5  C   UNL     1      -2.816   4.964   0.680  0.00  0.00    -0.024 C 
ATOM      6  C   UNL     1      -0.759   3.833   1.279  0.00  0.00    +0.044 C 
ATOM      7  C   UNL     1      -1.467   4.342   2.523  0.00  0.00    +0.086 C 
ATOM      8  C   UNL     1      -1.670   3.478   3.727  0.00  0.00    +0.229 C 
ATOM      9  O   UNL     1      -0.874   2.706   4.215  0.00  0.00    -0.275 OA
ATOM     10  N   UNL     1      -1.564   4.347   0.139  0.00  0.00    +0.395 N 
ATOM     11  H   UNL     1      -1.025   5.052  -0.376  0.00  0.00    -0.083 HD
ATOM     12  H   UNL     1      -1.805   3.573  -0.492  0.00  0.00    -0.083 HD
ENDROOT
BRANCH   5  13
ATOM     13  C   UNL     1      -4.000   4.665  -0.202  0.00  0.00    -0.025 A 
ATOM     14  C   UNL     1      -3.934   3.635  -1.122  0.00  0.00    +0.005 A 
ATOM     15  C   UNL     1      -5.023   3.357  -1.927  0.00  0.00    +0.000 A 
ATOM     16  C   UNL     1      -6.174   4.115  -1.822  0.00  0.00    +0.003 A 
ATOM     17  C   UNL     1      -6.240   5.149  -0.907  0.00  0.00    +0.038 A 
ATOM     18  C   UNL     1      -5.152   5.425  -0.095  0.00  0.00    +0.125 A 
ATOM     19  F   UNL     1      -5.216   6.435   0.799  0.00  0.00    -0.205 F 
ENDBRANCH   5  13
BRANCH   1  23
ATOM     20  C   UNL     1      -4.352   2.681   7.942  0.00  0.00    +0.121 A 
ATOM     21  C   UNL     1      -5.186   3.336   7.049  0.00  0.00    +0.047 A 
ATOM     22  C   UNL     1      -4.719   3.688   5.798  0.00  0.00    +0.027 A 
ATOM     23  C   UNL     1      -3.414   3.384   5.434  0.00  0.00    +0.044 A 
ATOM     24  C   UNL     1      -2.581   2.723   6.326  0.00  0.00    +0.027 A 
ATOM     25  C   UNL     1      -3.047   2.377   7.579  0.00  0.00    +0.047 A 
BRANCH  20  26
ATOM     26  O   UNL     1      -4.812   2.335   9.174  0.00  0.00    -0.492 OA
BRANCH  26  28
ATOM     27  C   UNL     1      -4.590   1.356  11.372  0.00  0.00    +0.048 C 
ATOM     28  C   UNL     1      -3.898   1.662  10.042  0.00  0.00    +0.225 C 
ENDBRANCH  26  28
ENDBRANCH  20  26
ENDBRANCH   1  23
BRANCH   6  29
ATOM     29  C   UNL     1       0.646   4.373   1.221  0.00  0.00    +0.297 C 
ATOM     30  O   UNL     1       1.218   4.682   2.239  0.00  0.00    -0.252 OA
BRANCH  29  31
ATOM     31  O   UNL     1       1.263   4.512   0.037  0.00  0.00    -0.469 OA
ATOM     32  C   UNL     1       2.616   5.038   0.056  0.00  0.00    +0.280 C 
ENDBRANCH  29  31
ENDBRANCH   6  29
BRANCH   6  33
ATOM     33  C   UNL     1      -0.739   2.303   1.271  0.00  0.00    +0.010 C 
BRANCH  33  34
ATOM     34  C   UNL     1      -0.022   1.810   0.012  0.00  0.00    +0.068 C 
BRANCH  34  35
ATOM     35  S   UNL     1       0.002  -0.004   0.002  0.00  0.00    -0.164 S 
ATOM     36  C   UNL     1       0.873  -0.423  -1.533  0.00  0.00    +0.084 C 
ENDBRANCH  34  35
ENDBRANCH  33  34
ENDBRANCH   6  33
TORSDOF 9
