REMARK  Name = ZINC09299718
REMARK  13 active torsions:
REMARK  status: ('A' for Active; 'I' for Inactive)
REMARK    1  A    between atoms: C_1  and  C_2
REMARK    2  A    between atoms: C_2  and  C_16
REMARK    3  A    between atoms: N_3  and  N_4
REMARK    4  A    between atoms: C_8  and  C_12
REMARK    5  A    between atoms: C_18  and  C_27
REMARK    6  A    between atoms: C_19  and  O_26
REMARK    7  A    between atoms: C_20  and  C_22
REMARK    8  A    between atoms: C_22  and  C_23
REMARK    9  A    between atoms: C_22  and  C_24
REMARK   10  A    between atoms: C_22  and  C_25
REMARK   11  A    between atoms: C_27  and  C_28
REMARK   12  A    between atoms: C_27  and  C_29
REMARK   13  A    between atoms: C_27  and  C_30
REMARK                            x       y       z     vdW  Elec       q    Type
REMARK                         _______ _______ _______ _____ _____    ______ ____
ROOT
ATOM      1  C   UNL     1      -0.018   1.503   0.010  0.00  0.00    +0.068 C 
ATOM      2  C   UNL     1       0.002  -0.004   0.002  0.00  0.00    +0.063 C 
ATOM      3  N   UNL     1       0.022  -0.659   1.123  0.00  0.00    -0.186 NA
ENDROOT
BRANCH   3   4
ATOM      4  N   UNL     1       0.024   0.035   2.340  0.00  0.00    -0.219 N 
ATOM      5  C   UNL     1       0.044  -0.664   3.536  0.00  0.00    +0.160 A 
ATOM      6  C   UNL     1       0.041   0.036   4.742  0.00  0.00    +0.102 A 
ATOM      7  C   UNL     1       0.062  -0.667   5.931  0.00  0.00    +0.083 A 
ATOM      8  C   UNL     1       0.086  -2.071   5.875  0.00  0.00    +0.108 A 
ATOM      9  C   UNL     1       0.088  -2.700   4.628  0.00  0.00    +0.150 A 
ATOM     10  N   UNL     1       0.062  -1.990   3.518  0.00  0.00    -0.216 NA
ATOM     11 CL   UNL     1       0.118  -4.434   4.539  0.00  0.00    -0.061 Cl
ATOM     12 CL   UNL     1       0.058   0.164   7.455  0.00  0.00    -0.080 Cl
ATOM     13 CL   UNL     1       0.011   1.772   4.748  0.00  0.00    -0.078 Cl
ATOM     14  H   UNL     1       0.011   1.005   2.345  0.00  0.00    +0.176 HD
BRANCH   8  15
ATOM     15  C   UNL     1       0.109  -2.845   7.080  0.00  0.00    +0.104 C 
ATOM     16  N   UNL     1       0.127  -3.459   8.036  0.00  0.00    -0.191 NA
ENDBRANCH   8  15
ENDBRANCH   3   4
BRANCH   2  17
ATOM     17  C   UNL     1      -0.000  -0.734  -1.279  0.00  0.00    -0.002 A 
ATOM     18  C   UNL     1      -0.015  -0.031  -2.486  0.00  0.00    +0.017 A 
ATOM     19  C   UNL     1      -0.017  -0.718  -3.681  0.00  0.00    +0.000 A 
ATOM     20  C   UNL     1      -0.005  -2.107  -3.686  0.00  0.00    +0.124 A 
ATOM     21  C   UNL     1       0.010  -2.810  -2.489  0.00  0.00    +0.000 A 
ATOM     22  C   UNL     1       0.019  -2.131  -1.289  0.00  0.00    +0.017 A 
BRANCH  21  23
ATOM     23  C   UNL     1       0.022  -4.317  -2.501  0.00  0.00    -0.009 C 
ATOM     24  C   UNL     1       0.037  -4.838  -1.062  0.00  0.00    +0.015 C 
ATOM     25  C   UNL     1      -1.228  -4.831  -3.217  0.00  0.00    +0.015 C 
ATOM     26  C   UNL     1       1.271  -4.810  -3.235  0.00  0.00    +0.015 C 
ENDBRANCH  21  23
BRANCH  19  27
ATOM     27  C   UNL     1      -0.034   0.039  -4.984  0.00  0.00    -0.009 C 
ATOM     28  C   UNL     1      -0.046   1.542  -4.700  0.00  0.00    +0.015 C 
ATOM     29  C   UNL     1       1.213  -0.317  -5.796  0.00  0.00    +0.015 C 
ATOM     30  C   UNL     1      -1.285  -0.340  -5.778  0.00  0.00    +0.015 C 
ENDBRANCH  19  27
BRANCH  20  31
ATOM     31  O   UNL     1      -0.007  -2.780  -4.867  0.00  0.00    -0.506 OA
ATOM     32  H   UNL     1       0.875  -2.966  -5.215  0.00  0.00    +0.292 HD
ENDBRANCH  20  31
ENDBRANCH   2  17
TORSDOF 6
