REMARK  Name = ZINC02670706
REMARK  8 active torsions:
REMARK  status: ('A' for Active; 'I' for Inactive)
REMARK    1  A    between atoms: C_1  and  C_2
REMARK    2  A    between atoms: C_9  and  N_14
REMARK    3  A    between atoms: C_10  and  C_11
REMARK    4  A    between atoms: C_15  and  C_17
REMARK    5  A    between atoms: C_17  and  C_34
REMARK    6  A    between atoms: C_18  and  C_19
REMARK    7  A    between atoms: C_22  and  C_24
REMARK    8  A    between atoms: C_27  and  N_31
REMARK                            x       y       z     vdW  Elec       q    Type
REMARK                         _______ _______ _______ _____ _____    ______ ____
ROOT
ATOM      1  N   UNL     1      -1.191   1.871   0.018  0.00  0.00    -0.275 N 
ATOM      2  C   UNL     1      -0.014   1.213   0.009  0.00  0.00    +0.259 C 
ATOM      3  O   UNL     1       0.002  -0.004   0.002  0.00  0.00    -0.269 OA
ATOM      4  H   UNL     1      -1.204   2.841   0.023  0.00  0.00    +0.156 HD
ENDROOT
BRANCH   1  12
ATOM      5  C   UNL     1      -7.677  -2.499   0.121  0.00  0.00    +0.008 C 
ATOM      6  C   UNL     1      -6.688  -1.366   0.406  0.00  0.00    -0.009 C 
ATOM      7  C   UNL     1      -7.062  -0.134  -0.423  0.00  0.00    +0.008 C 
ATOM      8  C   UNL     1      -6.239   1.071   0.037  0.00  0.00    +0.037 C 
ATOM      9  C   UNL     1      -4.764   0.689   0.029  0.00  0.00    -0.023 A 
ATOM     10  C   UNL     1      -4.381  -0.606   0.020  0.00  0.00    -0.004 A 
ATOM     11  S   UNL     1      -2.611  -0.555   0.004  0.00  0.00    -0.077 S 
ATOM     12  C   UNL     1      -2.381   1.162   0.020  0.00  0.00    +0.085 A 
ATOM     13  C   UNL     1      -3.678   1.655   0.029  0.00  0.00    +0.068 A 
ATOM     14  C   UNL     1      -5.270  -1.811   0.018  0.00  0.00    +0.046 C 
BRANCH  13  15
ATOM     15  C   UNL     1      -3.944   3.097   0.037  0.00  0.00    +0.244 C 
ATOM     16  O   UNL     1      -4.059   3.701  -1.014  0.00  0.00    -0.270 OA
ATOM     17  N   UNL     1      -4.061   3.753   1.208  0.00  0.00    -0.325 N 
ATOM     18  H   UNL     1      -3.969   3.272   2.045  0.00  0.00    +0.145 HD
ATOM     19  H   UNL     1      -4.236   4.707   1.214  0.00  0.00    +0.145 HD
ENDBRANCH  13  15
ENDBRANCH   1  12
BRANCH   2  20
ATOM     20  C   UNL     1       1.246   1.964   0.001  0.00  0.00    +0.117 C 
ATOM     21  C   UNL     1       2.458   1.286  -0.015  0.00  0.00    +0.070 C 
BRANCH  21  22
ATOM     22  C   UNL     1       3.664   2.004  -0.022  0.00  0.00    +0.130 A 
ATOM     23  C   UNL     1       4.938   1.455  -0.037  0.00  0.00    +0.050 A 
ATOM     24  C   UNL     1       5.836   2.522  -0.040  0.00  0.00    +0.050 A 
ATOM     25  C   UNL     1       5.088   3.680  -0.027  0.00  0.00    +0.137 A 
ATOM     26  O   UNL     1       3.785   3.349  -0.022  0.00  0.00    -0.455 OA
BRANCH  25  27
ATOM     27  C   UNL     1       5.627   5.053  -0.024  0.00  0.00    +0.036 A 
ATOM     28  C   UNL     1       6.611   5.420   0.897  0.00  0.00    +0.015 A 
ATOM     29  C   UNL     1       7.114   6.703   0.890  0.00  0.00    +0.033 A 
ATOM     30  C   UNL     1       6.640   7.632  -0.020  0.00  0.00    +0.128 A 
ATOM     31  C   UNL     1       5.662   7.279  -0.932  0.00  0.00    +0.053 A 
ATOM     32  C   UNL     1       5.152   5.996  -0.941  0.00  0.00    +0.054 A 
ATOM     33 CL   UNL     1       3.924   5.555  -2.087  0.00  0.00    -0.083 Cl
BRANCH  30  34
ATOM     34  N   UNL     1       7.182   9.009  -0.017  0.00  0.00    +0.056 N 
ATOM     35  O   UNL     1       6.766   9.829  -0.816  0.00  0.00    -0.126 OA
ATOM     36  O   UNL     1       8.043   9.323   0.785  0.00  0.00    -0.126 OA
ENDBRANCH  30  34
ENDBRANCH  25  27
ENDBRANCH  21  22
BRANCH  20  37
ATOM     37  C   UNL     1       1.227   3.396   0.009  0.00  0.00    +0.104 C 
ATOM     38  N   UNL     1       1.211   4.531   0.015  0.00  0.00    -0.191 NA
ENDBRANCH  20  37
ENDBRANCH   2  20
TORSDOF 7
