REMARK  Name = ZINC39328642
REMARK  5 active torsions:
REMARK  status: ('A' for Active; 'I' for Inactive)
REMARK    1  A    between atoms: C_1  and  C_2
REMARK    2  A    between atoms: C_2  and  C_3
REMARK    3  A    between atoms: C_6  and  N_8
REMARK    4  A    between atoms: C_9  and  C_11
REMARK    5  A    between atoms: C_23  and  C_25
REMARK                            x       y       z     vdW  Elec       q    Type
REMARK                         _______ _______ _______ _____ _____    ______ ____
ROOT
ATOM      1  C   UNL     1       4.062  -2.563   6.087  0.00  0.00    +0.107 C 
ATOM      2  C   UNL     1       3.750  -2.929   7.401  0.00  0.00    +0.037 C 
ATOM      3  C   UNL     1       4.768  -3.536   8.116  0.00  0.00    -0.009 C 
ATOM      4  C   UNL     1       5.012  -3.741   9.451  0.00  0.00    +0.004 A 
ATOM      5  C   UNL     1       4.185  -3.635  10.592  0.00  0.00    +0.010 A 
ATOM      6  C   UNL     1       4.771  -3.863  11.803  0.00  0.00    +0.001 A 
ATOM      7  C   UNL     1       6.117  -4.192  11.953  0.00  0.00    +0.002 A 
ATOM      8  C   UNL     1       6.976  -4.335  10.905  0.00  0.00    +0.026 A 
ATOM      9  C   UNL     1       6.440  -4.133   9.604  0.00  0.00    +0.044 A 
ATOM     10  N   UNL     1       7.012  -4.264   8.429  0.00  0.00    -0.372 N 
ATOM     11  C   UNL     1       5.994  -4.097   7.416  0.00  0.00    +0.152 C 
ATOM     12  C   UNL     1       6.298  -3.271   6.219  0.00  0.00    +0.017 C 
ATOM     13  N   UNL     1       5.338  -2.625   5.631  0.00  0.00    -0.356 N 
ATOM     14  C   UNL     1       7.706  -3.188   5.690  0.00  0.00    +0.061 C 
ATOM     15  H   UNL     1       7.953  -4.440   8.269  0.00  0.00    +0.161 HD
ATOM     16  H   UNL     1       5.550  -2.152   4.811  0.00  0.00    +0.165 HD
ENDROOT
BRANCH   1  18
ATOM     17  N   UNL     1       3.275  -1.768   3.951  0.00  0.00    -0.180 NA
ATOM     18  C   UNL     1       2.993  -2.109   5.188  0.00  0.00    +0.296 C 
ATOM     19  O   UNL     1       1.716  -2.043   5.634  0.00  0.00    -0.264 OA
BRANCH  17  23
ATOM     20  C   UNL     1       0.731  -0.503   1.223  0.00  0.00    +0.104 A 
ATOM     21  N   UNL     1       0.249  -0.797   2.411  0.00  0.00    -0.144 NA
ATOM     22  N   UNL     1       0.985  -1.211   3.352  0.00  0.00    -0.121 NA
ATOM     23  C   UNL     1       2.292  -1.351   3.125  0.00  0.00    +0.218 A 
ATOM     24  S   UNL     1       2.372  -0.835   1.415  0.00  0.00    -0.031 S 
BRANCH  20  26
ATOM     25  C   UNL     1      -0.019   1.526   0.010  0.00  0.00    +0.011 C 
ATOM     26  C   UNL     1       0.002  -0.004   0.002  0.00  0.00    +0.061 C 
ENDBRANCH  20  26
ENDBRANCH  17  23
ENDBRANCH   1  18
TORSDOF 3
