REMARK  Name = ZINC39637416
REMARK  8 active torsions:
REMARK  status: ('A' for Active; 'I' for Inactive)
REMARK    1  A    between atoms: C_1  and  C_2
REMARK    2  A    between atoms: C_5  and  O_8
REMARK    3  A    between atoms: O_8  and  C_9
REMARK    4  A    between atoms: C_10  and  C_15
REMARK    5  A    between atoms: C_19  and  C_28
REMARK    6  A    between atoms: N_30  and  C_31
REMARK    7  A    between atoms: C_36  and  C_41
REMARK    8  A    between atoms: C_38  and  C_40
REMARK                            x       y       z     vdW  Elec       q    Type
REMARK                         _______ _______ _______ _____ _____    ______ ____
ROOT
ATOM      1  C   UNL     1       0.278  -6.858  -0.128  0.00  0.00    +0.252 C 
ATOM      2  O   UNL     1       0.238  -6.289  -1.202  0.00  0.00    -0.270 OA
ATOM      3  N   UNL     1       0.307  -8.204  -0.080  0.00  0.00    -0.296 N 
ATOM      4  C   UNL     1       0.427  -9.068   1.119  0.00  0.00    +0.121 C 
ATOM      5  C   UNL     1      -0.526 -10.253   0.843  0.00  0.00    +0.100 C 
ATOM      6  C   UNL     1      -0.653 -10.306  -0.688  0.00  0.00    -0.004 C 
ATOM      7  C   UNL     1       0.219  -9.156  -1.213  0.00  0.00    +0.115 C 
ATOM      8  C   UNL     1      -2.105 -10.093  -1.106  0.00  0.00    -0.010 C 
ATOM      9  C   UNL     1      -2.215 -10.207  -2.629  0.00  0.00    -0.082 C 
ATOM     10  N   UNL     1      -1.751 -11.533  -3.057  0.00  0.00    +0.379 N 
ATOM     11  C   UNL     1      -0.329 -11.695  -2.733  0.00  0.00    -0.082 C 
ATOM     12  C   UNL     1      -0.139 -11.643  -1.215  0.00  0.00    -0.010 C 
ATOM     13  H   UNL     1      -2.286 -12.244  -2.581  0.00  0.00    -0.086 HD
ATOM     14  H   UNL     1      -1.882 -11.628  -4.053  0.00  0.00    -0.086 HD
ENDROOT
BRANCH   1  16
ATOM     15  C   UNL     1      -0.436  -4.881   1.227  0.00  0.00    +0.233 A 
ATOM     16  C   UNL     1       0.295  -6.074   1.122  0.00  0.00    +0.099 A 
ATOM     17  C   UNL     1       1.039  -6.509   2.225  0.00  0.00    +0.020 A 
ATOM     18  C   UNL     1       1.021  -5.738   3.374  0.00  0.00    +0.021 A 
ATOM     19  C   UNL     1       0.276  -4.573   3.401  0.00  0.00    +0.114 A 
ATOM     20  N   UNL     1      -0.414  -4.179   2.348  0.00  0.00    -0.220 NA
BRANCH  15  21
ATOM     21  O   UNL     1      -1.163  -4.442   0.172  0.00  0.00    -0.437 OA
BRANCH  21  26
ATOM     22  C   UNL     1      -3.669   0.585   0.595  0.00  0.00    +0.044 C 
ATOM     23  C   UNL     1      -2.998  -0.760   0.482  0.00  0.00    -0.050 A 
ATOM     24  C   UNL     1      -1.618  -0.845   0.473  0.00  0.00    +0.007 A 
ATOM     25  C   UNL     1      -1.001  -2.076   0.369  0.00  0.00    +0.046 A 
ATOM     26  C   UNL     1      -1.767  -3.229   0.274  0.00  0.00    +0.130 A 
ATOM     27  C   UNL     1      -3.152  -3.142   0.283  0.00  0.00    +0.046 A 
ATOM     28  C   UNL     1      -3.764  -1.908   0.393  0.00  0.00    +0.007 A 
ENDBRANCH  21  26
ENDBRANCH  15  21
ENDBRANCH   1  16
BRANCH   5  29
ATOM     29  C   UNL     1      -1.871 -10.002   1.475  0.00  0.00    +0.218 C 
ATOM     30  O   UNL     1      -2.317  -8.875   1.525  0.00  0.00    -0.275 OA
ATOM     31  N   UNL     1      -2.579 -11.029   1.985  0.00  0.00    -0.312 N 
ATOM     32  H   UNL     1      -2.222 -11.931   1.945  0.00  0.00    +0.149 HD
BRANCH  31  33
ATOM     33  C   UNL     1      -3.886 -10.785   2.599  0.00  0.00    +0.076 C 
ATOM     34  C   UNL     1      -4.965 -10.772   1.514  0.00  0.00    +0.022 C 
ATOM     35  C   UNL     1      -6.330 -10.518   2.155  0.00  0.00    +0.002 C 
ATOM     36  C   UNL     1      -6.635 -11.627   3.164  0.00  0.00    +0.003 C 
ATOM     37  C   UNL     1      -5.557 -11.640   4.249  0.00  0.00    -0.009 C 
ATOM     38  C   UNL     1      -4.191 -11.895   3.607  0.00  0.00    +0.009 C 
ATOM     39  C   UNL     1      -3.112 -11.908   4.692  0.00  0.00    +0.009 C 
ATOM     40  C   UNL     1      -5.539 -10.289   4.966  0.00  0.00    +0.008 C 
ENDBRANCH  31  33
ENDBRANCH   5  29
TORSDOF 5
