REMARK  Name = ZINC18055285
REMARK  6 active torsions:
REMARK  status: ('A' for Active; 'I' for Inactive)
REMARK    1  A    between atoms: C_1  and  C_2
REMARK    2  A    between atoms: C_5  and  N_9
REMARK    3  A    between atoms: C_6  and  C_8
REMARK    4  A    between atoms: C_10  and  C_12
REMARK    5  A    between atoms: C_12  and  S_13
REMARK    6  A    between atoms: S_13  and  C_14
REMARK                            x       y       z     vdW  Elec       q    Type
REMARK                         _______ _______ _______ _____ _____    ______ ____
ROOT
ATOM      1  C   UNL     1      -0.356  -8.692  -2.728  0.00  0.00    +0.171 A 
ATOM      2  N   UNL     1      -0.336  -9.226  -1.525  0.00  0.00    -0.185 NA
ATOM      3  C   UNL     1      -0.408 -10.545  -1.325  0.00  0.00    +0.282 A 
ATOM      4  C   UNL     1      -0.515 -11.450  -2.494  0.00  0.00    +0.075 A 
ATOM      5  C   UNL     1      -0.605 -12.911  -2.514  0.00  0.00    -0.023 A 
ATOM      6  C   UNL     1      -0.696 -13.501  -3.723  0.00  0.00    -0.004 A 
ATOM      7  S   UNL     1      -0.667 -12.164  -4.886  0.00  0.00    -0.075 S 
ATOM      8  C   UNL     1      -0.532 -10.819  -3.738  0.00  0.00    +0.092 A 
ATOM      9  N   UNL     1      -0.459  -9.464  -3.847  0.00  0.00    -0.328 N 
ATOM     10  C   UNL     1      -0.796 -14.967  -4.013  0.00  0.00    +0.043 C 
ATOM     11  C   UNL     1      -0.409 -15.739  -2.744  0.00  0.00    +0.005 C 
ATOM     12  C   UNL     1      -1.158 -15.134  -1.553  0.00  0.00    +0.005 C 
ATOM     13  C   UNL     1      -0.599 -13.747  -1.237  0.00  0.00    +0.037 C 
ATOM     14  O   UNL     1      -0.386 -11.000  -0.192  0.00  0.00    -0.265 OA
ATOM     15  H   UNL     1      -0.476  -9.047  -4.722  0.00  0.00    +0.168 HD
ENDROOT
BRANCH   1  16
ATOM     16  S   UNL     1      -0.255  -6.941  -2.895  0.00  0.00    -0.078 S 
BRANCH  16  17
ATOM     17  C   UNL     1      -0.134  -6.343  -1.187  0.00  0.00    +0.173 C 
BRANCH  17  19
ATOM     18  N   UNL     1       0.059  -4.170  -0.021  0.00  0.00    -0.285 N 
ATOM     19  C   UNL     1      -0.040  -4.839  -1.187  0.00  0.00    +0.227 C 
ATOM     20  O   UNL     1      -0.054  -4.230  -2.236  0.00  0.00    -0.275 OA
ATOM     21  H   UNL     1       0.135  -4.658   0.814  0.00  0.00    +0.155 HD
BRANCH  18  26
ATOM     22  C   UNL     1       0.025   1.503   0.005  0.00  0.00    +0.044 C 
ATOM     23  C   UNL     1       0.034  -0.004  -0.002  0.00  0.00    -0.050 A 
ATOM     24  C   UNL     1       0.632  -0.685  -1.046  0.00  0.00    +0.005 A 
ATOM     25  C   UNL     1       0.641  -2.066  -1.055  0.00  0.00    +0.024 A 
ATOM     26  C   UNL     1       0.051  -2.771  -0.014  0.00  0.00    +0.036 A 
ATOM     27  C   UNL     1      -0.548  -2.083   1.033  0.00  0.00    -0.029 A 
ATOM     28  C   UNL     1      -0.550  -0.702   1.039  0.00  0.00    +0.008 A 
ATOM     29  C   UNL     1      -1.190  -2.843   2.165  0.00  0.00    +0.045 C 
ENDBRANCH  18  26
ENDBRANCH  17  19
ENDBRANCH  16  17
ENDBRANCH   1  16
TORSDOF 4
