REMARK  Name = ZINC06149543
REMARK  10 active torsions:
REMARK  status: ('A' for Active; 'I' for Inactive)
REMARK    1  A    between atoms: C_1  and  C_2
REMARK    2  A    between atoms: C_2  and  C_3
REMARK    3  A    between atoms: C_3  and  C_4
REMARK    4  A    between atoms: C_3  and  C_5
REMARK    5  A    between atoms: C_3  and  N_6
REMARK    6  A    between atoms: C_7  and  C_11
REMARK    7  A    between atoms: C_11  and  C_13
REMARK    8  A    between atoms: C_11  and  N_66
REMARK    9  A    between atoms: C_18  and  C_26
REMARK   10  A    between atoms: C_19  and  C_25
REMARK                            x       y       z     vdW  Elec       q    Type
REMARK                         _______ _______ _______ _____ _____    ______ ____
ROOT
ATOM      1  C   UNL     1       0.034  -0.396   0.124  0.00  0.00    +0.039 C 
ENDROOT
BRANCH   1   2
ATOM      2  C   UNL     1      -0.076   1.094  -0.072  0.00  0.00    +0.011 A 
ATOM      3  C   UNL     1       1.046   1.849  -0.160  0.00  0.00    +0.017 A 
ATOM      4  C   UNL     1       0.904   3.294  -0.350  0.00  0.00    -0.001 A 
ATOM      5  C   UNL     1       2.026   4.124  -0.448  0.00  0.00    +0.010 A 
ATOM      6  C   UNL     1       1.860   5.468  -0.625  0.00  0.00    +0.004 A 
ATOM      7  C   UNL     1       0.588   6.018  -0.710  0.00  0.00    -0.046 A 
ATOM      8  C   UNL     1      -0.531   5.219  -0.616  0.00  0.00    -0.024 A 
ATOM      9  C   UNL     1      -0.387   3.847  -0.435  0.00  0.00    +0.052 A 
ATOM     10  N   UNL     1      -1.489   3.024  -0.339  0.00  0.00    -0.322 N 
ATOM     11  H   UNL     1      -2.405   3.419  -0.397  0.00  0.00    +0.169 HD
ATOM     12  C   UNL     1      -1.348   1.698  -0.170  0.00  0.00    +0.251 A 
ATOM     13  O   UNL     1      -2.345   1.000  -0.094  0.00  0.00    -0.268 OA
ATOM     14  C   UNL     1      -1.906   5.829  -0.709  0.00  0.00    +0.046 C 
ATOM     15  C   UNL     1       0.428   7.503  -0.906  0.00  0.00    +0.044 C 
ENDBRANCH   1   2
BRANCH   1  25
ATOM     16  C   UNL     1      -0.723  -2.542  -0.710  0.00  0.00    -0.072 C 
ATOM     17  C   UNL     1      -1.810  -3.167  -1.585  0.00  0.00    +0.017 C 
ATOM     18  C   UNL     1      -1.675  -2.674  -3.003  0.00  0.00    -0.048 A 
ATOM     19  C   UNL     1      -2.323  -3.373  -4.010  0.00  0.00    +0.004 A 
ATOM     20  C   UNL     1      -2.233  -2.951  -5.321  0.00  0.00    +0.000 A 
ATOM     21  C   UNL     1      -1.492  -1.825  -5.632  0.00  0.00    +0.000 A 
ATOM     22  C   UNL     1      -0.846  -1.130  -4.630  0.00  0.00    +0.002 A 
ATOM     23  C   UNL     1      -0.934  -1.554  -3.312  0.00  0.00    -0.061 A 
ATOM     24  C   UNL     1      -0.207  -0.765  -2.255  0.00  0.00    -0.041 C 
ATOM     25  N   UNL     1      -0.755  -1.081  -0.925  0.00  0.00    +0.392 N 
ATOM     26  H   UNL     1      -1.728  -0.756  -0.877  0.00  0.00    -0.080 HD
ENDBRANCH   1  25
BRANCH   1  28
ATOM     27  N   UNL     1       0.181  -1.229   2.530  0.00  0.00    -0.225 N 
ATOM     28  C   UNL     1      -0.517  -0.767   1.476  0.00  0.00    +0.143 A 
ATOM     29  N   UNL     1      -1.771  -0.708   1.853  0.00  0.00    -0.115 NA
ATOM     30  N   UNL     1      -1.839  -1.108   3.076  0.00  0.00    -0.023 NA
ATOM     31  N   UNL     1      -0.660  -1.421   3.489  0.00  0.00    -0.043 NA
BRANCH  27  32
ATOM     32  C   UNL     1       1.626  -1.467   2.579  0.00  0.00    +0.061 C 
ATOM     33  C   UNL     1       2.003  -2.533   1.548  0.00  0.00    +0.036 C 
ATOM     34  C   UNL     1       2.368  -0.167   2.263  0.00  0.00    +0.036 C 
BRANCH  32  36
ATOM     35  C   UNL     1       3.525  -2.198   4.029  0.00  0.00    +0.006 C 
ATOM     36  C   UNL     1       2.016  -1.950   3.978  0.00  0.00    +0.026 C 
ENDBRANCH  32  36
ENDBRANCH  27  32
ENDBRANCH   1  28
TORSDOF 5
