REMARK  Name = ZINC59889865
REMARK  7 active torsions:
REMARK  status: ('A' for Active; 'I' for Inactive)
REMARK    1  A    between atoms: C_1  and  C_2
REMARK    2  A    between atoms: C_5  and  C_32
REMARK    3  A    between atoms: N_8  and  S_10
REMARK    4  A    between atoms: S_10  and  C_13
REMARK    5  A    between atoms: C_17  and  C_19
REMARK    6  A    between atoms: N_21  and  C_22
REMARK    7  A    between atoms: C_22  and  C_23
REMARK                            x       y       z     vdW  Elec       q    Type
REMARK                         _______ _______ _______ _____ _____    ______ ____
ROOT
ATOM      1  C   UNL     1       2.629   2.448   2.067  0.00  0.00    +0.106 A 
ATOM      2  C   UNL     1       3.559   3.149   1.320  0.00  0.00    +0.028 A 
ATOM      3  C   UNL     1       3.377   4.496   1.064  0.00  0.00    +0.003 A 
ATOM      4  C   UNL     1       2.264   5.149   1.554  0.00  0.00    +0.013 A 
ATOM      5  C   UNL     1       1.323   4.448   2.308  0.00  0.00    +0.039 A 
ATOM      6  C   UNL     1       1.510   3.088   2.558  0.00  0.00    +0.041 A 
ENDROOT
BRANCH   5   7
ATOM      7  C   UNL     1       0.129   5.142   2.836  0.00  0.00    +0.244 C 
ATOM      8  O   UNL     1      -0.690   4.529   3.493  0.00  0.00    -0.270 OA
ATOM      9  N   UNL     1      -0.052   6.455   2.589  0.00  0.00    -0.307 N 
ATOM     10  H   UNL     1       0.601   6.944   2.065  0.00  0.00    +0.149 HD
BRANCH   9  11
ATOM     11  C   UNL     1      -1.235   7.143   3.112  0.00  0.00    +0.143 C 
BRANCH  11  12
ATOM     12  C   UNL     1      -1.198   8.591   2.698  0.00  0.00    +0.015 A 
ATOM     13  C   UNL     1      -0.765   9.554   3.591  0.00  0.00    +0.009 A 
ATOM     14  C   UNL     1      -0.730  10.884   3.215  0.00  0.00    +0.004 A 
ATOM     15  C   UNL     1      -1.127  11.257   1.944  0.00  0.00    +0.049 A 
ATOM     16  C   UNL     1      -1.562  10.297   1.044  0.00  0.00    +0.167 A 
ATOM     17  C   UNL     1      -1.593   8.957   1.422  0.00  0.00    +0.171 A 
ATOM     18  O   UNL     1      -2.048   8.217   0.369  0.00  0.00    -0.452 OA
ATOM     19  C   UNL     1      -2.676   9.160  -0.520  0.00  0.00    +0.466 C 
ATOM     20  O   UNL     1      -2.001  10.398  -0.244  0.00  0.00    -0.453 OA
ENDBRANCH  11  12
ENDBRANCH   9  11
ENDBRANCH   5   7
BRANCH   1  21
ATOM     21  S   UNL     1       2.871   0.732   2.387  0.00  0.00    +0.061 S 
ATOM     22  O   UNL     1       2.133   0.430   3.563  0.00  0.00    -0.153 OA
ATOM     23  O   UNL     1       4.268   0.492   2.281  0.00  0.00    -0.153 OA
BRANCH  21  29
ATOM     24  C   UNL     1      -0.019   1.526   0.010  0.00  0.00    +0.009 C 
ATOM     25  C   UNL     1       0.002  -0.004   0.002  0.00  0.00    +0.002 C 
ATOM     26  C   UNL     1       0.720  -0.498  -1.256  0.00  0.00    +0.009 C 
ATOM     27  C   UNL     1       2.145   0.059  -1.285  0.00  0.00    +0.002 C 
ATOM     28  C   UNL     1       2.912  -0.448  -0.060  0.00  0.00    +0.112 C 
ATOM     29  N   UNL     1       2.153  -0.103   1.150  0.00  0.00    -0.176 NA
ATOM     30  C   UNL     1       0.744  -0.512   1.242  0.00  0.00    +0.112 C 
ATOM     31  C   UNL     1       2.850  -0.408  -2.559  0.00  0.00    +0.009 C 
ENDBRANCH  21  29
ENDBRANCH   1  21
TORSDOF 5
