REMARK  Name = ZINC14549501
REMARK  7 active torsions:
REMARK  status: ('A' for Active; 'I' for Inactive)
REMARK    1  A    between atoms: C_1  and  O_2
REMARK    2  A    between atoms: O_2  and  C_3
REMARK    3  A    between atoms: C_3  and  C_4
REMARK    4  A    between atoms: C_4  and  C_5
REMARK    5  A    between atoms: C_5  and  N_6
REMARK    6  A    between atoms: C_7  and  C_9
REMARK    7  A    between atoms: C_22  and  C_25
REMARK                            x       y       z     vdW  Elec       q    Type
REMARK                         _______ _______ _______ _____ _____    ______ ____
ROOT
ATOM      1  C   UNL     1       3.672   1.607  -0.892  0.00  0.00    +0.037 A 
ATOM      2  C   UNL     1       4.057   2.627  -0.016  0.00  0.00    +0.015 A 
ATOM      3  C   UNL     1       3.137   3.150   0.863  0.00  0.00    +0.024 A 
ATOM      4  C   UNL     1       1.830   2.668   0.879  0.00  0.00    +0.031 A 
ATOM      5  C   UNL     1       1.437   1.653   0.014  0.00  0.00    -0.019 A 
ATOM      6  C   UNL     1       2.362   1.127  -0.870  0.00  0.00    +0.019 A 
ATOM      7  C   UNL     1       0.045   1.106   0.003  0.00  0.00    +0.049 C 
ATOM      8  C   UNL     1      -0.731   1.600  -1.195  0.00  0.00    -0.023 C 
ATOM      9  C   UNL     1      -1.970   1.821  -0.890  0.00  0.00    -0.030 C 
ATOM     10  C   UNL     1      -2.217   1.498   0.570  0.00  0.00    +0.033 C 
ATOM     11  C   UNL     1      -0.797   1.581   1.203  0.00  0.00    +0.029 C 
ATOM     12  C   UNL     1      -0.516   3.044   1.504  0.00  0.00    +0.106 C 
ATOM     13  N   UNL     1       0.915   3.217   1.774  0.00  0.00    -0.336 N 
ATOM     14  H   UNL     1       1.216   3.702   2.558  0.00  0.00    +0.147 HD
ENDROOT
BRANCH  12  15
ATOM     15  C   UNL     1      -0.908   3.877   0.310  0.00  0.00    -0.012 A 
ATOM     16  C   UNL     1      -2.110   4.582   0.311  0.00  0.00    -0.012 A 
ATOM     17  C   UNL     1      -2.982   4.533   1.420  0.00  0.00    +0.009 A 
ATOM     18  C   UNL     1      -4.146   5.232   1.388  0.00  0.00    +0.001 A 
ATOM     19  C   UNL     1      -4.509   6.002   0.283  0.00  0.00    +0.001 A 
ATOM     20  C   UNL     1      -3.712   6.101  -0.811  0.00  0.00    +0.008 A 
ATOM     21  C   UNL     1      -2.489   5.396  -0.848  0.00  0.00    -0.017 A 
ATOM     22  C   UNL     1      -1.654   5.462  -1.962  0.00  0.00    +0.017 A 
ATOM     23  C   UNL     1      -0.455   4.752  -1.965  0.00  0.00    -0.017 A 
ATOM     24  C   UNL     1      -0.073   3.942  -0.804  0.00  0.00    -0.012 A 
ATOM     25  C   UNL     1       1.149   3.236  -0.841  0.00  0.00    +0.009 A 
ATOM     26  C   UNL     1       1.938   3.321  -1.942  0.00  0.00    +0.001 A 
ATOM     27  C   UNL     1       1.575   4.092  -3.047  0.00  0.00    +0.001 A 
ATOM     28  C   UNL     1       0.414   4.796  -3.077  0.00  0.00    +0.008 A 
ENDBRANCH  12  15
BRANCH   1  30
ATOM     29  N   UNL     1       5.915   1.504  -1.860  0.00  0.00    -0.311 N 
ATOM     30  C   UNL     1       4.650   1.040  -1.839  0.00  0.00    +0.244 C 
ATOM     31  O   UNL     1       4.315   0.153  -2.600  0.00  0.00    -0.270 OA
ATOM     32  H   UNL     1       6.182   2.211  -1.252  0.00  0.00    +0.149 HD
BRANCH  29  33
ATOM     33  C   UNL     1       6.887   0.940  -2.800  0.00  0.00    +0.107 C 
BRANCH  33  34
ATOM     34  C   UNL     1       8.236   1.638  -2.619  0.00  0.00    +0.047 C 
BRANCH  34  35
ATOM     35  C   UNL     1       9.251   1.049  -3.601  0.00  0.00    +0.161 C 
BRANCH  35  37
ATOM     36  C   UNL     1      11.535   1.223  -4.306  0.00  0.00    +0.193 C 
ATOM     37  O   UNL     1      10.511   1.701  -3.431  0.00  0.00    -0.383 OA
ENDBRANCH  35  37
ENDBRANCH  34  35
ENDBRANCH  33  34
ENDBRANCH  29  33
ENDBRANCH   1  30
TORSDOF 6
