REMARK  Name = ZINC36900808
REMARK  8 active torsions:
REMARK  status: ('A' for Active; 'I' for Inactive)
REMARK    1  A    between atoms: C_1  and  C_2
REMARK    2  A    between atoms: C_2  and  O_3
REMARK    3  A    between atoms: O_3  and  C_4
REMARK    4  A    between atoms: C_7  and  N_23
REMARK    5  A    between atoms: C_9  and  S_10
REMARK    6  A    between atoms: S_10  and  N_13
REMARK    7  A    between atoms: C_14  and  C_22
REMARK    8  A    between atoms: C_19  and  C_21
REMARK                            x       y       z     vdW  Elec       q    Type
REMARK                         _______ _______ _______ _____ _____    ______ ____
ROOT
ATOM      1  C   UNL     1      -1.416  -2.164   0.149  0.00  0.00    +0.147 A 
ATOM      2  C   UNL     1      -0.377  -3.083   0.177  0.00  0.00    +0.049 A 
ATOM      3  C   UNL     1      -0.646  -4.423   0.374  0.00  0.00    +0.026 A 
ATOM      4  C   UNL     1      -1.957  -4.850   0.544  0.00  0.00    +0.027 A 
ATOM      5  C   UNL     1      -2.995  -3.929   0.516  0.00  0.00    +0.055 A 
ATOM      6  C   UNL     1      -2.724  -2.589   0.325  0.00  0.00    +0.149 A 
ENDROOT
BRANCH   6   7
ATOM      7  S   UNL     1      -4.041  -1.419   0.296  0.00  0.00    +0.065 S 
ATOM      8  O   UNL     1      -3.805  -0.569  -0.818  0.00  0.00    -0.153 OA
ATOM      9  O   UNL     1      -5.245  -2.159   0.449  0.00  0.00    -0.153 OA
BRANCH   7  10
ATOM     10  N   UNL     1      -3.890  -0.477   1.650  0.00  0.00    -0.171 NA
ATOM     11  C   UNL     1      -3.292   0.862   1.567  0.00  0.00    +0.077 C 
ATOM     12  C   UNL     1      -4.262   1.874   2.186  0.00  0.00    +0.020 C 
ATOM     13  C   UNL     1      -4.618   1.431   3.607  0.00  0.00    +0.003 C 
ATOM     14  C   UNL     1      -5.308   0.066   3.560  0.00  0.00    +0.020 C 
ATOM     15  C   UNL     1      -4.356  -0.964   2.956  0.00  0.00    +0.077 C 
ATOM     16  C   UNL     1      -5.089  -2.294   2.776  0.00  0.00    +0.026 C 
ATOM     17  C   UNL     1      -1.968   0.882   2.334  0.00  0.00    +0.026 C 
ENDBRANCH   7  10
ENDBRANCH   6   7
BRANCH   4  18
ATOM     18  N   UNL     1      -2.230  -6.208   0.743  0.00  0.00    -0.358 N 
ATOM     19  H   UNL     1      -1.505  -6.851   0.762  0.00  0.00    +0.142 HD
ATOM     20  H   UNL     1      -3.146  -6.506   0.862  0.00  0.00    +0.142 HD
ENDBRANCH   4  18
BRANCH   1  21
ATOM     21  O   UNL     1      -1.150  -0.844  -0.045  0.00  0.00    -0.490 OA
BRANCH  21  23
ATOM     22  C   UNL     1       0.325   1.044  -0.366  0.00  0.00    +0.048 C 
ATOM     23  C   UNL     1       0.225  -0.468  -0.152  0.00  0.00    +0.226 C 
ENDBRANCH  21  23
ENDBRANCH   1  21
TORSDOF 5
