REMARK  Name = ZINC09764820
REMARK  8 active torsions:
REMARK  status: ('A' for Active; 'I' for Inactive)
REMARK    1  A    between atoms: C_1  and  C_2
REMARK    2  A    between atoms: C_3  and  N_11
REMARK    3  A    between atoms: C_7  and  N_8
REMARK    4  A    between atoms: C_12  and  C_14
REMARK    5  A    between atoms: C_14  and  N_15
REMARK    6  A    between atoms: C_18  and  C_22
REMARK    7  A    between atoms: C_18  and  C_29
REMARK    8  A    between atoms: C_22  and  C_23
REMARK                            x       y       z     vdW  Elec       q    Type
REMARK                         _______ _______ _______ _____ _____    ______ ____
ROOT
ATOM      1  N   UNL     1       4.169  -2.354   1.582  0.00  0.00    -0.215 N 
ATOM      2  C   UNL     1       4.109  -1.005   1.534  0.00  0.00    +0.252 C 
ATOM      3  O   UNL     1       4.381  -0.224   2.421  0.00  0.00    -0.272 OA
ATOM      4  C   UNL     1       3.628  -0.671   0.136  0.00  0.00    +0.142 C 
ATOM      5  N   UNL     1       3.461  -1.989  -0.501  0.00  0.00    -0.281 N 
ATOM      6  C   UNL     1       3.800  -2.907   0.421  0.00  0.00    +0.310 C 
ATOM      7  O   UNL     1       3.774  -4.106   0.223  0.00  0.00    -0.252 OA
ATOM      8  H   UNL     1       3.164  -2.161  -1.408  0.00  0.00    +0.152 HD
ENDROOT
BRANCH   4   9
ATOM      9  C   UNL     1       2.314   0.064   0.188  0.00  0.00    -0.015 A 
ATOM     10  C   UNL     1       1.127  -0.645   0.223  0.00  0.00    +0.006 A 
ATOM     11  C   UNL     1      -0.079   0.029   0.271  0.00  0.00    +0.000 A 
ATOM     12  C   UNL     1      -0.099   1.411   0.286  0.00  0.00    +0.000 A 
ATOM     13  C   UNL     1       1.088   2.120   0.252  0.00  0.00    +0.000 A 
ATOM     14  C   UNL     1       2.294   1.446   0.202  0.00  0.00    +0.006 A 
ENDBRANCH   4   9
BRANCH   1  15
ATOM     15  C   UNL     1       4.589  -3.116   2.761  0.00  0.00    +0.214 C 
BRANCH  15  17
ATOM     16  N   UNL     1       6.694  -4.013   3.702  0.00  0.00    -0.284 N 
ATOM     17  C   UNL     1       6.080  -3.331   2.714  0.00  0.00    +0.235 C 
ATOM     18  O   UNL     1       6.728  -2.891   1.788  0.00  0.00    -0.274 OA
ATOM     19  H   UNL     1       6.191  -4.293   4.482  0.00  0.00    +0.155 HD
BRANCH  16  22
ATOM     20  C   UNL     1       8.155  -4.453   6.104  0.00  0.00    +0.048 C 
ATOM     21  C   UNL     1       8.807  -4.538   4.748  0.00  0.00    +0.001 A 
ATOM     22  C   UNL     1       8.056  -4.316   3.601  0.00  0.00    +0.039 A 
ATOM     23  C   UNL     1       8.660  -4.401   2.353  0.00  0.00    +0.024 A 
ATOM     24  C   UNL     1      10.006  -4.694   2.257  0.00  0.00    +0.004 A 
ATOM     25  C   UNL     1      10.750  -4.915   3.401  0.00  0.00    +0.033 A 
ATOM     26  C   UNL     1      10.151  -4.837   4.646  0.00  0.00    +0.131 A 
BRANCH  26  27
ATOM     27  N   UNL     1      10.951  -5.074   5.868  0.00  0.00    +0.057 N 
ATOM     28  O   UNL     1      12.153  -4.880   5.856  0.00  0.00    -0.126 OA
ATOM     29  O   UNL     1      10.407  -5.464   6.886  0.00  0.00    -0.126 OA
ENDBRANCH  26  27
ENDBRANCH  16  22
ENDBRANCH  15  17
ENDBRANCH   1  15
BRANCH   4  30
ATOM     30  C   UNL     1       4.676   0.158  -0.610  0.00  0.00    +0.075 C 
BRANCH  30  31
ATOM     31  C   UNL     1       5.942  -0.647  -0.756  0.00  0.00    -0.045 A 
ATOM     32  C   UNL     1       6.922  -0.576   0.216  0.00  0.00    +0.004 A 
ATOM     33  C   UNL     1       8.081  -1.318   0.085  0.00  0.00    +0.000 A 
ATOM     34  C   UNL     1       8.264  -2.123  -1.024  0.00  0.00    +0.000 A 
ATOM     35  C   UNL     1       7.287  -2.190  -1.999  0.00  0.00    +0.000 A 
ATOM     36  C   UNL     1       6.126  -1.452  -1.865  0.00  0.00    +0.004 A 
ENDBRANCH  30  31
ENDBRANCH   4  30
TORSDOF 7
