REMARK  Name = ZINC37931641
REMARK  9 active torsions:
REMARK  status: ('A' for Active; 'I' for Inactive)
REMARK    1  A    between atoms: C_1  and  N_2
REMARK    2  A    between atoms: N_2  and  C_3
REMARK    3  A    between atoms: C_3  and  C_4
REMARK    4  A    between atoms: C_4  and  C_5
REMARK    5  A    between atoms: C_8  and  C_10
REMARK    6  A    between atoms: C_10  and  C_11
REMARK    7  A    between atoms: C_14  and  N_16
REMARK    8  A    between atoms: N_16  and  S_17
REMARK    9  A    between atoms: S_17  and  C_20
REMARK                            x       y       z     vdW  Elec       q    Type
REMARK                         _______ _______ _______ _____ _____    ______ ____
ROOT
ATOM      1  C   UNL     1      -0.023   0.089  -2.470  0.00  0.00    +0.152 C 
ENDROOT
BRANCH   1   2
ATOM      2  C   UNL     1      -0.020  -0.884  -3.620  0.00  0.00    +0.059 A 
ATOM      3  C   UNL     1      -0.973  -0.845  -4.582  0.00  0.00    +0.072 A 
ATOM      4  S   UNL     1      -0.449  -2.194  -5.627  0.00  0.00    -0.057 S 
ATOM      5  C   UNL     1       0.906  -2.659  -4.745  0.00  0.00    +0.201 A 
ATOM      6  N   UNL     1       0.915  -1.810  -3.739  0.00  0.00    -0.227 NA
BRANCH   5   7
ATOM      7  N   UNL     1       1.800  -3.684  -5.015  0.00  0.00    -0.075 NA
BRANCH   7   8
ATOM      8  S   UNL     1       1.593  -4.630  -6.358  0.00  0.00    +0.061 S 
ATOM      9  O   UNL     1       0.359  -5.302  -6.141  0.00  0.00    -0.154 OA
ATOM     10  O   UNL     1       1.752  -3.742  -7.455  0.00  0.00    -0.154 OA
ATOM     11  C   UNL     1       2.966  -5.815  -6.309  0.00  0.00    +0.220 C 
ENDBRANCH   7   8
ENDBRANCH   5   7
ENDBRANCH   1   2
BRANCH   1  14
ATOM     12  C   UNL     1      -0.018   1.461   0.010  0.00  0.00    +0.132 C 
ATOM     13  N   UNL     1       0.002  -0.004   0.002  0.00  0.00    -0.304 N 
ATOM     14  C   UNL     1       0.000  -0.672  -1.169  0.00  0.00    +0.221 C 
ATOM     15  O   UNL     1       0.017  -1.884  -1.175  0.00  0.00    -0.275 OA
BRANCH  13  16
ATOM     16  C   UNL     1       0.024  -0.743   1.267  0.00  0.00    +0.118 C 
BRANCH  16  17
ATOM     17  C   UNL     1      -1.411  -1.020   1.720  0.00  0.00    +0.144 C 
BRANCH  17  18
ATOM     18  C   UNL     1      -1.388  -1.781   3.021  0.00  0.00    +0.358 C 
ATOM     19  O   UNL     1      -0.323  -2.074   3.538  0.00  0.00    -0.246 OA
ATOM     20  O   UNL     1      -2.434  -2.103   3.558  0.00  0.00    -0.246 OA
ENDBRANCH  17  18
ENDBRANCH  16  17
ENDBRANCH  13  16
ENDBRANCH   1  14
TORSDOF 7
