REMARK  Name = ZINC14905670
REMARK  9 active torsions:
REMARK  status: ('A' for Active; 'I' for Inactive)
REMARK    1  A    between atoms: C_1  and  C_2
REMARK    2  A    between atoms: C_2  and  C_3
REMARK    3  A    between atoms: C_3  and  C_28
REMARK    4  A    between atoms: N_6  and  C_10
REMARK    5  A    between atoms: C_10  and  C_11
REMARK    6  A    between atoms: C_11  and  O_13
REMARK    7  A    between atoms: O_13  and  C_14
REMARK    8  A    between atoms: C_17  and  C_20
REMARK    9  A    between atoms: C_23  and  C_26
REMARK                            x       y       z     vdW  Elec       q    Type
REMARK                         _______ _______ _______ _____ _____    ______ ____
ROOT
ATOM      1  C   UNL     1      -3.784   1.723  -2.740  0.00  0.00    +0.238 C 
ENDROOT
BRANCH   1   5
ATOM      2  C   UNL     1      -1.244   2.232  -0.078  0.00  0.00    +0.138 C 
ATOM      3  C   UNL     1      -1.768   2.457  -1.483  0.00  0.00    +0.252 C 
ATOM      4  O   UNL     1      -1.249   3.109  -2.363  0.00  0.00    -0.272 OA
ATOM      5  N   UNL     1      -2.932   1.780  -1.549  0.00  0.00    -0.213 N 
ATOM      6  C   UNL     1      -3.212   1.165  -0.395  0.00  0.00    +0.310 C 
ATOM      7  O   UNL     1      -4.208   0.494  -0.211  0.00  0.00    -0.252 OA
ATOM      8  N   UNL     1      -2.269   1.374   0.541  0.00  0.00    -0.281 N 
ATOM      9  H   UNL     1      -2.264   1.028   1.447  0.00  0.00    +0.152 HD
BRANCH   2  10
ATOM     10  C   UNL     1       0.087   1.525  -0.116  0.00  0.00    -0.015 A 
ATOM     11  C   UNL     1       1.258   2.259  -0.165  0.00  0.00    +0.006 A 
ATOM     12  C   UNL     1       2.478   1.610  -0.207  0.00  0.00    +0.000 A 
ATOM     13  C   UNL     1       2.527   0.229  -0.198  0.00  0.00    +0.000 A 
ATOM     14  C   UNL     1       1.357  -0.504  -0.148  0.00  0.00    +0.000 A 
ATOM     15  C   UNL     1       0.136   0.144  -0.108  0.00  0.00    +0.006 A 
ENDBRANCH   2  10
BRANCH   2  17
ATOM     16  C   UNL     1      -2.509   4.197   0.803  0.00  0.00    +0.007 C 
ATOM     17  C   UNL     1      -1.124   3.561   0.671  0.00  0.00    +0.037 C 
ENDBRANCH   2  17
ENDBRANCH   1   5
BRANCH   1  18
ATOM     18  C   UNL     1      -3.379   0.549  -3.592  0.00  0.00    +0.330 C 
ATOM     19  O   UNL     1      -2.471  -0.168  -3.242  0.00  0.00    -0.249 OA
BRANCH  18  20
ATOM     20  O   UNL     1      -4.026   0.298  -4.742  0.00  0.00    -0.425 OA
BRANCH  20  21
ATOM     21  C   UNL     1      -3.546  -0.712  -5.513  0.00  0.00    +0.132 A 
ATOM     22  C   UNL     1      -2.801  -0.424  -6.648  0.00  0.00    +0.047 A 
ATOM     23  C   UNL     1      -2.308  -1.447  -7.430  0.00  0.00    +0.012 A 
ATOM     24  C   UNL     1      -2.567  -2.773  -7.085  0.00  0.00    -0.018 A 
ATOM     25  C   UNL     1      -3.321  -3.059  -5.947  0.00  0.00    +0.012 A 
ATOM     26  C   UNL     1      -3.806  -2.032  -5.166  0.00  0.00    +0.047 A 
BRANCH  24  27
ATOM     27  C   UNL     1      -2.044  -3.875  -7.926  0.00  0.00    -0.018 A 
ATOM     28  C   UNL     1      -2.300  -5.202  -7.576  0.00  0.00    +0.010 A 
ATOM     29  C   UNL     1      -1.820  -6.226  -8.359  0.00  0.00    +0.019 A 
ATOM     30  C   UNL     1      -1.064  -5.938  -9.499  0.00  0.00    +0.052 A 
ATOM     31  C   UNL     1      -0.804  -4.609  -9.846  0.00  0.00    +0.019 A 
ATOM     32  C   UNL     1      -1.291  -3.586  -9.064  0.00  0.00    +0.010 A 
BRANCH  30  33
ATOM     33  C   UNL     1      -0.558  -7.003 -10.312  0.00  0.00    +0.099 C 
ATOM     34  N   UNL     1      -0.156  -7.848 -10.956  0.00  0.00    -0.191 NA
ENDBRANCH  30  33
ENDBRANCH  24  27
ENDBRANCH  20  21
ENDBRANCH  18  20
ENDBRANCH   1  18
TORSDOF 8
