REMARK  Name = ZINC11073848
REMARK  8 active torsions:
REMARK  status: ('A' for Active; 'I' for Inactive)
REMARK    1  A    between atoms: C_1  and  C_2
REMARK    2  A    between atoms: C_15  and  C_17
REMARK    3  A    between atoms: C_17  and  N_55
REMARK    4  A    between atoms: C_18  and  N_55
REMARK    5  A    between atoms: C_19  and  C_21
REMARK    6  A    between atoms: C_19  and  C_22
REMARK    7  A    between atoms: C_19  and  N_55
REMARK    8  A    between atoms: N_24  and  C_25
REMARK                            x       y       z     vdW  Elec       q    Type
REMARK                         _______ _______ _______ _____ _____    ______ ____
ROOT
ATOM      1  C   UNL     1       0.209   3.878  -2.134  0.00  0.00    +0.020 C 
ENDROOT
BRANCH   1  15
ATOM      2  C   UNL     1       0.088   5.160   2.315  0.00  0.00    +0.029 C 
ATOM      3  C   UNL     1       1.281   5.004   1.369  0.00  0.00    +0.087 C 
ATOM      4  C   UNL     1       2.439   4.342   2.116  0.00  0.00    +0.118 C 
ATOM      5  C   UNL     1       3.458   3.822   1.136  0.00  0.00    +0.219 C 
ATOM      6  O   UNL     1       4.500   4.420   0.976  0.00  0.00    -0.275 OA
ATOM      7  N   UNL     1       3.217   2.693   0.435  0.00  0.00    -0.284 N 
ATOM      8  C   UNL     1       1.980   2.045   0.535  0.00  0.00    +0.055 A 
ATOM      9  C   UNL     1       1.909   0.680   0.757  0.00  0.00    +0.025 A 
ATOM     10  C   UNL     1       0.676   0.057   0.822  0.00  0.00    +0.002 A 
ATOM     11  C   UNL     1      -0.485   0.790   0.662  0.00  0.00    +0.002 A 
ATOM     12  C   UNL     1      -0.423   2.155   0.447  0.00  0.00    +0.025 A 
ATOM     13  C   UNL     1       0.808   2.789   0.393  0.00  0.00    +0.058 A 
ATOM     14  N   UNL     1       0.889   4.177   0.226  0.00  0.00    -0.268 N 
ATOM     15  C   UNL     1       0.611   4.742  -0.966  0.00  0.00    +0.204 C 
ATOM     16  O   UNL     1       0.684   5.946  -1.099  0.00  0.00    -0.277 OA
ATOM     17  H   UNL     1       3.905   2.329  -0.143  0.00  0.00    +0.155 HD
ENDBRANCH   1  15
BRANCH   1  19
ATOM     18  C   UNL     1       1.201   5.372  -3.761  0.00  0.00    -0.094 C 
ATOM     19  N   UNL     1      -0.057   4.747  -3.300  0.00  0.00    +0.391 N 
ATOM     20  H   UNL     1      -0.714   5.485  -3.023  0.00  0.00    -0.080 HD
BRANCH  19  21
ATOM     21  C   UNL     1      -0.657   3.954  -4.393  0.00  0.00    +0.017 C 
ATOM     22  C   UNL     1       0.163   2.688  -4.651  0.00  0.00    -0.004 C 
BRANCH  21  23
ATOM     23  C   UNL     1      -2.061   3.572  -4.001  0.00  0.00    +0.203 C 
ATOM     24  O   UNL     1      -2.502   3.906  -2.921  0.00  0.00    -0.277 OA
ATOM     25  N   UNL     1      -2.828   2.859  -4.849  0.00  0.00    -0.285 N 
ATOM     26  H   UNL     1      -2.504   2.654  -5.740  0.00  0.00    +0.155 HD
BRANCH  25  27
ATOM     27  C   UNL     1      -4.093   2.413  -4.444  0.00  0.00    +0.069 A 
ATOM     28  C   UNL     1      -4.855   3.180  -3.574  0.00  0.00    +0.027 A 
ATOM     29  C   UNL     1      -6.101   2.738  -3.176  0.00  0.00    +0.022 A 
ATOM     30  C   UNL     1      -6.592   1.532  -3.644  0.00  0.00    +0.044 A 
ATOM     31  C   UNL     1      -5.837   0.764  -4.512  0.00  0.00    +0.060 A 
ATOM     32  C   UNL     1      -4.590   1.204  -4.918  0.00  0.00    +0.146 A 
ATOM     33  F   UNL     1      -3.854   0.457  -5.771  0.00  0.00    -0.203 F 
ATOM     34 CL   UNL     1      -8.160   0.980  -3.140  0.00  0.00    -0.083 Cl
ENDBRANCH  25  27
ENDBRANCH  21  23
ENDBRANCH  19  21
ENDBRANCH   1  19
TORSDOF 5
