REMARK  Name = ZINC39995214
REMARK  5 active torsions:
REMARK  status: ('A' for Active; 'I' for Inactive)
REMARK    1  A    between atoms: C_1  and  C_2
REMARK    2  A    between atoms: N_11  and  C_12
REMARK    3  A    between atoms: C_12  and  C_13
REMARK    4  A    between atoms: C_13  and  N_14
REMARK    5  A    between atoms: C_15  and  C_17
REMARK                            x       y       z     vdW  Elec       q    Type
REMARK                         _______ _______ _______ _____ _____    ______ ____
ROOT
ATOM      1  N   UNL     1       3.545   1.265   2.811  0.00  0.00    -0.309 N 
ATOM      2  C   UNL     1       3.853   2.332   3.574  0.00  0.00    +0.265 C 
ATOM      3  O   UNL     1       2.974   3.084   3.951  0.00  0.00    -0.268 OA
ATOM      4  H   UNL     1       4.246   0.666   2.510  0.00  0.00    +0.149 HD
ENDROOT
BRANCH   2   5
ATOM      5  C   UNL     1       5.254   2.589   3.952  0.00  0.00    +0.154 A 
ATOM      6  C   UNL     1       5.755   3.700   4.773  0.00  0.00    +0.032 A 
ATOM      7  C   UNL     1       5.184   4.789   5.423  0.00  0.00    +0.012 A 
ATOM      8  C   UNL     1       5.981   5.654   6.121  0.00  0.00    +0.001 A 
ATOM      9  C   UNL     1       7.354   5.452   6.186  0.00  0.00    +0.002 A 
ATOM     10  C   UNL     1       7.939   4.380   5.550  0.00  0.00    +0.028 A 
ATOM     11  C   UNL     1       7.147   3.488   4.834  0.00  0.00    +0.066 A 
ATOM     12  N   UNL     1       7.390   2.353   4.106  0.00  0.00    -0.276 N 
ATOM     13  N   UNL     1       6.304   1.866   3.626  0.00  0.00    -0.168 NA
ATOM     14  H   UNL     1       8.269   1.965   3.974  0.00  0.00    +0.189 HD
ENDBRANCH   2   5
BRANCH   1  15
ATOM     15  C   UNL     1       2.152   1.010   2.435  0.00  0.00    +0.123 C 
BRANCH  15  16
ATOM     16  C   UNL     1       2.079  -0.253   1.574  0.00  0.00    +0.125 C 
BRANCH  16  26
ATOM     17  C   UNL     1      -0.019   1.526   0.010  0.00  0.00    +0.049 C 
ATOM     18  C   UNL     1       0.002  -0.004   0.002  0.00  0.00    +0.155 C 
ATOM     19  N   UNL     1      -1.367  -0.530   0.072  0.00  0.00    -0.325 N 
ATOM     20  C   UNL     1      -1.462  -1.292   1.245  0.00  0.00    +0.050 A 
ATOM     21  C   UNL     1      -2.533  -2.000   1.777  0.00  0.00    +0.025 A 
ATOM     22  C   UNL     1      -2.388  -2.688   2.966  0.00  0.00    +0.002 A 
ATOM     23  C   UNL     1      -1.176  -2.675   3.632  0.00  0.00    +0.002 A 
ATOM     24  C   UNL     1      -0.106  -1.975   3.111  0.00  0.00    +0.025 A 
ATOM     25  C   UNL     1      -0.242  -1.279   1.915  0.00  0.00    +0.052 A 
ATOM     26  N   UNL     1       0.686  -0.508   1.199  0.00  0.00    -0.309 N 
ATOM     27  H   UNL     1      -2.075  -0.377  -0.573  0.00  0.00    +0.148 HD
ENDBRANCH  16  26
ENDBRANCH  15  16
ENDBRANCH   1  15
TORSDOF 4
