REMARK  Name = ZINC67447187
REMARK  1 active torsions:
REMARK  status: ('A' for Active; 'I' for Inactive)
REMARK    1  A    between atoms: C_3  and  N_17
REMARK                            x       y       z     vdW  Elec       q    Type
REMARK                         _______ _______ _______ _____ _____    ______ ____
ROOT
ATOM      1  C   UNL     1      -0.015   1.318  -0.089  0.00  0.00    +0.156 A 
ATOM      2  C   UNL     1       1.182   2.010  -0.101  0.00  0.00    +0.181 A 
ATOM      3  C   UNL     1       2.373   1.283  -0.014  0.00  0.00    +0.162 A 
ATOM      4  N   UNL     1       2.314  -0.042   0.077  0.00  0.00    -0.196 NA
ATOM      5  C   UNL     1       1.146  -0.666   0.085  0.00  0.00    +0.220 A 
ATOM      6  N   UNL     1       0.002  -0.004   0.004  0.00  0.00    -0.220 NA
ATOM      7  N   UNL     1       1.121  -2.048   0.181  0.00  0.00    -0.299 N 
ATOM      8  C   UNL     1       2.369  -2.816   0.278  0.00  0.00    +0.108 C 
ATOM      9  C   UNL     1       2.384  -3.881  -0.823  0.00  0.00    +0.019 C 
ATOM     10  C   UNL     1       1.120  -4.738  -0.714  0.00  0.00    +0.008 C 
ATOM     11  C   UNL     1      -0.112  -3.857  -0.890  0.00  0.00    -0.030 C 
ATOM     12  C   UNL     1      -0.157  -2.776   0.193  0.00  0.00    +0.113 C 
ATOM     13  C   UNL     1      -0.101  -3.207  -2.288  0.00  0.00    -0.013 C 
ATOM     14  C   UNL     1      -1.022  -4.144  -3.110  0.00  0.00    -0.082 C 
ATOM     15  N   UNL     1      -2.080  -4.522  -2.137  0.00  0.00    +0.379 N 
ATOM     16  C   UNL     1      -1.389  -4.710  -0.842  0.00  0.00    -0.074 C 
ATOM     17  F   UNL     1       1.200   3.358  -0.195  0.00  0.00    -0.200 F 
ATOM     18  H   UNL     1      -2.764  -3.785  -2.063  0.00  0.00    -0.086 HD
ATOM     19  H   UNL     1      -2.523  -5.383  -2.423  0.00  0.00    -0.086 HD
ENDROOT
BRANCH   3  20
ATOM     20  N   UNL     1       3.597   1.934  -0.022  0.00  0.00    -0.308 N 
ATOM     21  C   UNL     1       4.229   2.375   1.231  0.00  0.00    +0.134 C 
ATOM     22  C   UNL     1       5.677   1.871   1.246  0.00  0.00    +0.178 C 
ATOM     23  O   UNL     1       6.325   2.266   0.034  0.00  0.00    -0.377 OA
ATOM     24  C   UNL     1       5.746   1.708  -1.148  0.00  0.00    +0.178 C 
ATOM     25  C   UNL     1       4.305   2.199  -1.285  0.00  0.00    +0.134 C 
ENDBRANCH   3  20
TORSDOF 1
