REMARK  Name = ZINC37034022
REMARK  2 active torsions:
REMARK  status: ('A' for Active; 'I' for Inactive)
REMARK    1  A    between atoms: C_6  and  N_7
REMARK    2  A    between atoms: C_8  and  C_10
REMARK                            x       y       z     vdW  Elec       q    Type
REMARK                         _______ _______ _______ _____ _____    ______ ____
ROOT
ATOM      1  C   UNL     1       0.069   1.236   0.627  0.00  0.00    +0.052 A 
ATOM      2  C   UNL     1       1.263   1.941   0.629  0.00  0.00    +0.069 A 
ATOM      3  C   UNL     1       2.393   1.400   0.013  0.00  0.00    +0.068 A 
ATOM      4  C   UNL     1       2.320   0.158  -0.600  0.00  0.00    +0.045 A 
ATOM      5  C   UNL     1       1.130  -0.542  -0.601  0.00  0.00    +0.041 A 
ATOM      6  C   UNL     1       0.003  -0.005   0.013  0.00  0.00    +0.049 A 
ATOM      7 BR   UNL     1       1.032  -2.235  -1.437  0.00  0.00    -0.048 Br
ATOM      8  N   UNL     1       3.423   2.326   0.176  0.00  0.00    -0.306 N 
ATOM      9  H   UNL     1       4.332   2.227  -0.147  0.00  0.00    +0.170 HD
ATOM     10  C   UNL     1       2.940   3.380   0.860  0.00  0.00    +0.325 A 
ATOM     11  O   UNL     1       3.581   4.367   1.171  0.00  0.00    -0.247 OA
ATOM     12  N   UNL     1       1.640   3.178   1.147  0.00  0.00    -0.306 N 
ATOM     13  H   UNL     1       1.065   3.790   1.632  0.00  0.00    +0.170 HD
ENDROOT
BRANCH   6  14
ATOM     14  N   UNL     1      -1.202  -0.720   0.010  0.00  0.00    -0.286 N 
ATOM     15  C   UNL     1      -2.375  -0.065   0.126  0.00  0.00    +0.203 C 
ATOM     16  O   UNL     1      -2.394   1.148   0.133  0.00  0.00    -0.277 OA
ATOM     17  H   UNL     1      -1.193  -1.686  -0.076  0.00  0.00    +0.155 HD
BRANCH  15  18
ATOM     18  C   UNL     1      -3.662  -0.839   0.248  0.00  0.00    +0.016 C 
ATOM     19  C   UNL     1      -3.848  -1.716  -0.993  0.00  0.00    -0.007 C 
ATOM     20  C   UNL     1      -5.156  -2.501  -0.864  0.00  0.00    -0.003 C 
ATOM     21  C   UNL     1      -6.314  -1.517  -0.670  0.00  0.00    -0.019 C 
ATOM     22  C   UNL     1      -6.036  -0.648   0.558  0.00  0.00    -0.082 C 
ATOM     23  N   UNL     1      -4.787   0.097   0.362  0.00  0.00    +0.387 N 
ATOM     24  H   UNL     1      -4.634   0.709   1.150  0.00  0.00    -0.085 HD
ATOM     25  H   UNL     1      -4.852   0.647  -0.481  0.00  0.00    -0.085 HD
ENDBRANCH  15  18
ENDBRANCH   6  14
TORSDOF 2
