REMARK  Name = ZINC41495029
REMARK  4 active torsions:
REMARK  status: ('A' for Active; 'I' for Inactive)
REMARK    1  A    between atoms: C_7  and  N_14
REMARK    2  A    between atoms: N_14  and  C_15
REMARK    3  A    between atoms: C_18  and  S_21
REMARK    4  A    between atoms: S_21  and  N_24
REMARK                            x       y       z     vdW  Elec       q    Type
REMARK                         _______ _______ _______ _____ _____    ______ ____
ROOT
ATOM      1  C   UNL     1       1.938  -0.594  -3.091  0.00  0.00    +0.001 A 
ATOM      2  C   UNL     1       3.123   0.091  -2.833  0.00  0.00    +0.002 A 
ATOM      3  C   UNL     1       3.710   0.042  -1.606  0.00  0.00    +0.026 A 
ATOM      4  C   UNL     1       3.115  -0.710  -0.577  0.00  0.00    +0.048 A 
ATOM      5  C   UNL     1       1.911  -1.405  -0.844  0.00  0.00    +0.020 A 
ATOM      6  C   UNL     1       1.334  -1.333  -2.119  0.00  0.00    +0.012 A 
ATOM      7  C   UNL     1       1.318  -2.160   0.195  0.00  0.00    +0.045 A 
ATOM      8  C   UNL     1       1.949  -2.181   1.430  0.00  0.00    -0.006 A 
ATOM      9  C   UNL     1       3.129  -1.473   1.617  0.00  0.00    +0.021 A 
ATOM     10  N   UNL     1       3.668  -0.774   0.637  0.00  0.00    -0.358 N 
ATOM     11  C   UNL     1       3.608  -1.661   3.044  0.00  0.00    +0.054 C 
ATOM     12  C   UNL     1       2.382  -2.186   3.818  0.00  0.00    +0.011 C 
ATOM     13  C   UNL     1       1.563  -2.886   2.712  0.00  0.00    +0.039 C 
ATOM     14  H   UNL     1       4.493  -0.292   0.803  0.00  0.00    +0.166 HD
ENDROOT
BRANCH   7  15
ATOM     15  N   UNL     1       0.140  -2.860  -0.017  0.00  0.00    -0.314 N 
ATOM     16  H   UNL     1      -0.715  -2.426   0.129  0.00  0.00    +0.152 HD
BRANCH  15  17
ATOM     17  C   UNL     1       0.184  -4.192  -0.438  0.00  0.00    +0.031 A 
ATOM     18  C   UNL     1       1.401  -4.781  -0.758  0.00  0.00    +0.025 A 
ATOM     19  C   UNL     1       1.440  -6.097  -1.175  0.00  0.00    +0.030 A 
ATOM     20  C   UNL     1       0.271  -6.828  -1.274  0.00  0.00    +0.105 A 
ATOM     21  C   UNL     1      -0.942  -6.245  -0.956  0.00  0.00    +0.030 A 
ATOM     22  C   UNL     1      -0.989  -4.931  -0.533  0.00  0.00    +0.025 A 
BRANCH  20  23
ATOM     23  S   UNL     1       0.326  -8.507  -1.807  0.00  0.00    +0.056 S 
ATOM     24  O   UNL     1      -0.957  -8.806  -2.339  0.00  0.00    -0.153 OA
ATOM     25  O   UNL     1       1.518  -8.652  -2.567  0.00  0.00    -0.153 OA
BRANCH  23  26
ATOM     26  N   UNL     1       0.509  -9.444  -0.455  0.00  0.00    -0.204 NA
ATOM     27  H   UNL     1       0.564  -9.028   0.420  0.00  0.00    +0.144 HD
ATOM     28  H   UNL     1       0.561 -10.409  -0.537  0.00  0.00    +0.144 HD
ENDBRANCH  23  26
ENDBRANCH  20  23
ENDBRANCH  15  17
ENDBRANCH   7  15
TORSDOF 4
