REMARK  Name = ZINC35853281
REMARK  8 active torsions:
REMARK  status: ('A' for Active; 'I' for Inactive)
REMARK    1  A    between atoms: C_1  and  C_2
REMARK    2  A    between atoms: C_5  and  S_8
REMARK    3  A    between atoms: S_8  and  N_11
REMARK    4  A    between atoms: N_11  and  C_12
REMARK    5  A    between atoms: N_11  and  C_19
REMARK    6  A    between atoms: N_22  and  C_25
REMARK    7  A    between atoms: C_25  and  C_26
REMARK    8  A    between atoms: C_31  and  O_32
REMARK                            x       y       z     vdW  Elec       q    Type
REMARK                         _______ _______ _______ _____ _____    ______ ____
ROOT
ATOM      1  N   UNL     1       1.651  -4.999  -0.034  0.00  0.00    -0.200 N 
ENDROOT
BRANCH   1   2
ATOM      2  C   UNL     1       2.314  -5.110   1.192  0.00  0.00    +0.052 A 
ATOM      3  C   UNL     1       3.459  -4.362   1.433  0.00  0.00    +0.027 A 
ATOM      4  C   UNL     1       4.112  -4.473   2.645  0.00  0.00    +0.040 A 
ATOM      5  C   UNL     1       3.627  -5.329   3.619  0.00  0.00    +0.124 A 
ATOM      6  C   UNL     1       2.485  -6.076   3.380  0.00  0.00    +0.040 A 
ATOM      7  C   UNL     1       1.826  -5.964   2.172  0.00  0.00    +0.027 A 
ATOM      8  F   UNL     1       4.267  -5.436   4.803  0.00  0.00    -0.205 F 
ENDBRANCH   1   2
BRANCH   1   9
ATOM      9  C   UNL     1       2.004  -5.892  -1.141  0.00  0.00    +0.095 C 
ATOM     10  C   UNL     1       1.710  -7.341  -0.744  0.00  0.00    +0.006 C 
ATOM     11  C   UNL     1       2.154  -8.274  -1.873  0.00  0.00    -0.077 C 
ATOM     12  N   UNL     1       3.594  -8.111  -2.109  0.00  0.00    +0.383 N 
ATOM     13  C   UNL     1       3.874  -6.743  -2.559  0.00  0.00    -0.077 C 
ATOM     14  C   UNL     1       3.496  -5.751  -1.456  0.00  0.00    +0.006 C 
ATOM     15  H   UNL     1       4.096  -8.292  -1.252  0.00  0.00    -0.081 HD
BRANCH  12  16
ATOM     16  C   UNL     1       4.031  -9.063  -3.139  0.00  0.00    -0.039 C 
BRANCH  16  17
ATOM     17  C   UNL     1       5.528  -8.984  -3.294  0.00  0.00    -0.022 A 
ATOM     18  C   UNL     1       6.077  -8.257  -4.333  0.00  0.00    +0.005 A 
ATOM     19  C   UNL     1       7.450  -8.184  -4.476  0.00  0.00    +0.000 A 
ATOM     20  C   UNL     1       8.277  -8.838  -3.581  0.00  0.00    +0.004 A 
ATOM     21  C   UNL     1       7.732  -9.565  -2.541  0.00  0.00    +0.045 A 
ATOM     22  C   UNL     1       6.355  -9.635  -2.391  0.00  0.00    +0.118 A 
BRANCH  22  23
ATOM     23  O   UNL     1       5.817 -10.345  -1.365  0.00  0.00    -0.507 OA
ATOM     24  H   UNL     1       5.646 -11.274  -1.576  0.00  0.00    +0.292 HD
ENDBRANCH  22  23
ENDBRANCH  16  17
ENDBRANCH  12  16
ENDBRANCH   1   9
BRANCH   1  25
ATOM     25  S   UNL     1       0.467  -3.860  -0.235  0.00  0.00    +0.075 S 
ATOM     26  O   UNL     1      -0.100  -3.632   1.048  0.00  0.00    -0.150 OA
ATOM     27  O   UNL     1      -0.312  -4.274  -1.349  0.00  0.00    -0.150 OA
BRANCH  25  32
ATOM     28  C   UNL     1       3.186   1.278  -1.851  0.00  0.00    +0.044 C 
ATOM     29  C   UNL     1       2.507  -0.005  -1.447  0.00  0.00    -0.050 A 
ATOM     30  C   UNL     1       2.094  -0.903  -2.414  0.00  0.00    +0.005 A 
ATOM     31  C   UNL     1       1.471  -2.080  -2.044  0.00  0.00    +0.029 A 
ATOM     32  C   UNL     1       1.262  -2.360  -0.707  0.00  0.00    +0.109 A 
ATOM     33  C   UNL     1       1.675  -1.462   0.260  0.00  0.00    +0.029 A 
ATOM     34  C   UNL     1       2.302  -0.287  -0.110  0.00  0.00    +0.005 A 
ENDBRANCH  25  32
ENDBRANCH   1  25
TORSDOF 7
