REMARK  Name = ZINC12901550
REMARK  7 active torsions:
REMARK  status: ('A' for Active; 'I' for Inactive)
REMARK    1  A    between atoms: C_1  and  C_2
REMARK    2  A    between atoms: C_12  and  C_13
REMARK    3  A    between atoms: C_13  and  C_14
REMARK    4  A    between atoms: N_16  and  C_17
REMARK    5  A    between atoms: C_17  and  C_18
REMARK    6  A    between atoms: C_18  and  C_19
REMARK    7  A    between atoms: C_19  and  O_20
REMARK                            x       y       z     vdW  Elec       q    Type
REMARK                         _______ _______ _______ _____ _____    ______ ____
ROOT
ATOM      1  C   UNL     1      -0.982  -2.228   2.497  0.00  0.00    +0.045 C 
ATOM      2  C   UNL     1      -0.852  -2.929   1.169  0.00  0.00    -0.029 A 
ATOM      3  C   UNL     1      -0.565  -4.364   1.095  0.00  0.00    +0.021 A 
ATOM      4  C   UNL     1      -0.405  -5.126   2.256  0.00  0.00    +0.019 A 
ATOM      5  C   UNL     1      -0.134  -6.464   2.169  0.00  0.00    -0.005 A 
ATOM      6  C   UNL     1      -0.018  -7.075   0.924  0.00  0.00    +0.128 A 
ATOM      7  C   UNL     1      -0.177  -6.331  -0.238  0.00  0.00    +0.093 A 
ATOM      8  C   UNL     1      -0.452  -4.973  -0.168  0.00  0.00    +0.143 A 
ATOM      9  O   UNL     1      -0.609  -4.250  -1.294  0.00  0.00    -0.422 OA
ATOM     10  C   UNL     1      -0.876  -2.942  -1.223  0.00  0.00    +0.341 A 
ATOM     11  O   UNL     1      -1.016  -2.319  -2.260  0.00  0.00    -0.245 OA
ATOM     12  C   UNL     1      -0.997  -2.253  -0.001  0.00  0.00    +0.049 A 
ATOM     13  O   UNL     1       0.249  -8.401   0.804  0.00  0.00    -0.485 OA
ATOM     14  C   UNL     1       0.772  -9.082   1.944  0.00  0.00    +0.111 C 
ATOM     15  C   UNL     1       0.750 -10.591   1.703  0.00  0.00    +0.048 C 
ATOM     16  C   UNL     1       1.629 -10.930   0.497  0.00  0.00    +0.004 C 
ATOM     17  C   UNL     1       3.064 -10.474   0.768  0.00  0.00    +0.000 C 
ATOM     18  C   UNL     1       3.083  -8.962   1.002  0.00  0.00    +0.004 C 
ATOM     19  C   UNL     1       2.206  -8.622   2.208  0.00  0.00    +0.048 C 
ATOM     20  C   UNL     1      -0.103  -8.744   3.157  0.00  0.00    +0.053 C 
ATOM     21  C   UNL     1       0.037  -7.248   3.447  0.00  0.00    +0.043 C 
ENDROOT
BRANCH  12  22
ATOM     22  C   UNL     1      -1.293  -0.775   0.010  0.00  0.00    +0.138 C 
BRANCH  22  23
ATOM     23  C   UNL     1       0.002  -0.004   0.002  0.00  0.00    +0.218 C 
ATOM     24  O   UNL     1       1.060  -0.596  -0.011  0.00  0.00    -0.275 OA
ATOM     25  N   UNL     1      -0.016   1.344   0.009  0.00  0.00    -0.315 N 
ATOM     26  H   UNL     1      -0.863   1.817   0.016  0.00  0.00    +0.149 HD
BRANCH  25  27
ATOM     27  C   UNL     1       1.242   2.093   0.001  0.00  0.00    +0.106 C 
BRANCH  27  28
ATOM     28  C   UNL     1       0.943   3.594   0.012  0.00  0.00    +0.046 C 
BRANCH  28  29
ATOM     29  C   UNL     1       2.257   4.377   0.004  0.00  0.00    +0.157 C 
BRANCH  29  30
ATOM     30  O   UNL     1       1.977   5.778   0.014  0.00  0.00    -0.395 OA
ATOM     31  H   UNL     1       2.766   6.337   0.010  0.00  0.00    +0.209 HD
ENDBRANCH  29  30
ENDBRANCH  28  29
ENDBRANCH  27  28
ENDBRANCH  25  27
ENDBRANCH  22  23
ENDBRANCH  12  22
TORSDOF 6
