REMARK  Name = ZINC33598598
REMARK  10 active torsions:
REMARK  status: ('A' for Active; 'I' for Inactive)
REMARK    1  A    between atoms: C_4  and  C_7
REMARK    2  A    between atoms: C_7  and  S_8
REMARK    3  A    between atoms: S_8  and  C_9
REMARK    4  A    between atoms: C_9  and  C_10
REMARK    5  A    between atoms: C_10  and  C_12
REMARK    6  A    between atoms: C_10  and  N_24
REMARK    7  A    between atoms: N_14  and  C_15
REMARK    8  A    between atoms: C_18  and  N_21
REMARK    9  A    between atoms: C_25  and  C_27
REMARK   10  A    between atoms: C_30  and  C_32
REMARK                            x       y       z     vdW  Elec       q    Type
REMARK                         _______ _______ _______ _____ _____    ______ ____
ROOT
ATOM      1  C   UNL     1       6.351  -2.180  -3.003  0.00  0.00    +0.169 C 
ENDROOT
BRANCH   1   2
ATOM      2  C   UNL     1       7.659  -2.917  -2.869  0.00  0.00    +0.238 C 
ATOM      3  O   UNL     1       7.778  -4.030  -3.334  0.00  0.00    -0.273 OA
ATOM      4  N   UNL     1       8.696  -2.338  -2.233  0.00  0.00    -0.284 N 
ATOM      5  H   UNL     1       8.614  -1.300  -1.878  0.00  0.00    +0.155 HD
BRANCH   4   6
ATOM      6  C   UNL     1       9.878  -3.057  -2.023  0.00  0.00    +0.034 A 
ATOM      7  C   UNL     1      10.618  -2.857  -0.866  0.00  0.00    +0.025 A 
ATOM      8  C   UNL     1      11.781  -3.572  -0.659  0.00  0.00    +0.034 A 
ATOM      9  C   UNL     1      12.215  -4.479  -1.609  0.00  0.00    +0.126 A 
ATOM     10  C   UNL     1      11.483  -4.676  -2.766  0.00  0.00    +0.034 A 
ATOM     11  C   UNL     1      10.316  -3.968  -2.975  0.00  0.00    +0.025 A 
BRANCH   9  12
ATOM     12  N   UNL     1      13.465  -5.239  -1.388  0.00  0.00    +0.056 N 
ATOM     13  O   UNL     1      13.848  -6.038  -2.223  0.00  0.00    -0.126 OA
ATOM     14  O   UNL     1      14.111  -5.066  -0.370  0.00  0.00    -0.126 OA
ENDBRANCH   9  12
ENDBRANCH   4   6
ENDBRANCH   1   2
BRANCH   1  15
ATOM     15  N   UNL     1       5.391  -3.016  -3.729  0.00  0.00    -0.298 N 
ATOM     16  C   UNL     1       4.374  -2.445  -4.404  0.00  0.00    +0.266 C 
ATOM     17  O   UNL     1       4.253  -1.235  -4.410  0.00  0.00    -0.268 OA
ATOM     18  H   UNL     1       5.501  -4.111  -3.723  0.00  0.00    +0.150 HD
BRANCH  16  19
ATOM     19  C   UNL     1       3.409  -3.286  -5.134  0.00  0.00    +0.163 A 
ATOM     20  C   UNL     1       2.340  -2.851  -5.855  0.00  0.00    +0.230 A 
ATOM     21  O   UNL     1       1.732  -3.940  -6.351  0.00  0.00    -0.449 OA
ATOM     22  C   UNL     1       2.412  -5.021  -5.944  0.00  0.00    +0.182 A 
ATOM     23  N   UNL     1       3.423  -4.644  -5.219  0.00  0.00    -0.210 NA
BRANCH  22  24
ATOM     24  C   UNL     1       2.064  -6.449  -6.280  0.00  0.00    +0.016 C 
ATOM     25  C   UNL     1       2.432  -6.747  -7.748  0.00  0.00    -0.008 C 
ATOM     26  C   UNL     1       1.266  -7.654  -8.223  0.00  0.00    -0.020 C 
ATOM     27  C   UNL     1       0.064  -7.044  -7.460  0.00  0.00    -0.082 C 
ATOM     28  N   UNL     1       0.611  -6.656  -6.142  0.00  0.00    +0.387 N 
ATOM     29  H   UNL     1       0.422  -7.453  -5.409  0.00  0.00    -0.085 HD
ATOM     30  H   UNL     1       0.138  -5.723  -5.800  0.00  0.00    -0.085 HD
ENDBRANCH  22  24
ENDBRANCH  16  19
ENDBRANCH   1  15
BRANCH   1  31
ATOM     31  C   UNL     1       5.800  -1.862  -1.612  0.00  0.00    +0.101 C 
BRANCH  31  32
ATOM     32  S   UNL     1       4.225  -0.976  -1.773  0.00  0.00    -0.154 S 
BRANCH  32  33
ATOM     33  C   UNL     1       3.712  -0.677  -0.059  0.00  0.00    +0.104 C 
BRANCH  33  37
ATOM     34  C   UNL     1      -0.009   1.420  -0.031  0.00  0.00    +0.000 A 
ATOM     35  C   UNL     1       1.181   2.124  -0.040  0.00  0.00    +0.000 A 
ATOM     36  C   UNL     1       2.385   1.445  -0.050  0.00  0.00    +0.004 A 
ATOM     37  C   UNL     1       2.400   0.063  -0.049  0.00  0.00    -0.038 A 
ATOM     38  C   UNL     1       1.210  -0.641  -0.039  0.00  0.00    +0.004 A 
ATOM     39  C   UNL     1       0.005   0.038  -0.030  0.00  0.00    +0.000 A 
ENDBRANCH  33  37
ENDBRANCH  32  33
ENDBRANCH  31  32
ENDBRANCH   1  31
TORSDOF 10
