REMARK  Name = ZINC13414524
REMARK  6 active torsions:
REMARK  status: ('A' for Active; 'I' for Inactive)
REMARK    1  A    between atoms: C_7  and  C_11
REMARK    2  A    between atoms: C_14  and  S_23
REMARK    3  A    between atoms: N_15  and  C_16
REMARK    4  A    between atoms: S_23  and  C_24
REMARK    5  A    between atoms: C_24  and  C_25
REMARK    6  A    between atoms: C_31  and  C_34
REMARK                            x       y       z     vdW  Elec       q    Type
REMARK                         _______ _______ _______ _____ _____    ______ ____
ROOT
ATOM      1  C   UNL     1       0.684  -3.260  -0.022  0.00  0.00    +0.171 A 
ATOM      2  N   UNL     1      -0.629  -3.217  -0.014  0.00  0.00    -0.128 NA
ATOM      3  N   UNL     1      -1.109  -4.409  -0.014  0.00  0.00    -0.122 NA
ATOM      4  C   UNL     1      -0.135  -5.290  -0.021  0.00  0.00    +0.197 A 
ATOM      5  N   UNL     1       1.044  -4.590  -0.032  0.00  0.00    -0.270 N 
ENDROOT
BRANCH   1  12
ATOM      6  C   UNL     1      -0.017   1.363   0.009  0.00  0.00    +0.001 A 
ATOM      7  C   UNL     1       1.170   2.083   0.002  0.00  0.00    +0.002 A 
ATOM      8  C   UNL     1       2.385   1.434  -0.013  0.00  0.00    +0.026 A 
ATOM      9  C   UNL     1       2.426   0.043  -0.021  0.00  0.00    +0.047 A 
ATOM     10  C   UNL     1       1.221  -0.680  -0.013  0.00  0.00    +0.010 A 
ATOM     11  C   UNL     1       0.002  -0.004   0.002  0.00  0.00    +0.011 A 
ATOM     12  C   UNL     1       1.601  -2.103  -0.025  0.00  0.00    +0.045 A 
ATOM     13  C   UNL     1       2.958  -2.143  -0.038  0.00  0.00    +0.095 A 
ATOM     14  N   UNL     1       3.456  -0.872  -0.036  0.00  0.00    -0.360 N 
ATOM     15  H   UNL     1       4.399  -0.646  -0.045  0.00  0.00    +0.165 HD
ENDBRANCH   1  12
BRANCH   5  16
ATOM     16  C   UNL     1       2.343  -5.118  -0.048  0.00  0.00    +0.051 A 
ATOM     17  C   UNL     1       3.169  -4.898  -1.142  0.00  0.00    +0.028 A 
ATOM     18  C   UNL     1       4.448  -5.418  -1.156  0.00  0.00    +0.022 A 
ATOM     19  C   UNL     1       4.907  -6.158  -0.080  0.00  0.00    +0.041 A 
ATOM     20  C   UNL     1       4.085  -6.379   1.011  0.00  0.00    +0.022 A 
ATOM     21  C   UNL     1       2.807  -5.856   1.032  0.00  0.00    +0.028 A 
ATOM     22 CL   UNL     1       6.515  -6.811  -0.100  0.00  0.00    -0.084 Cl
ENDBRANCH   5  16
BRANCH   4  23
ATOM     23  S   UNL     1      -0.310  -7.043  -0.023  0.00  0.00    -0.076 S 
BRANCH  23  24
ATOM     24  C   UNL     1      -2.106  -7.304  -0.014  0.00  0.00    +0.173 C 
BRANCH  24  25
ATOM     25  C   UNL     1      -2.398  -8.783  -0.016  0.00  0.00    +0.226 C 
ATOM     26  O   UNL     1      -1.485  -9.581  -0.022  0.00  0.00    -0.275 OA
ATOM     27  N   UNL     1      -3.674  -9.217  -0.010  0.00  0.00    -0.300 N 
ATOM     28  C   UNL     1      -4.790  -8.262  -0.008  0.00  0.00    +0.108 C 
ATOM     29  C   UNL     1      -5.720  -8.592   1.163  0.00  0.00    +0.020 C 
ATOM     30  C   UNL     1      -6.148 -10.059   1.072  0.00  0.00    +0.018 C 
ATOM     31  C   UNL     1      -4.914 -10.959   1.166  0.00  0.00    +0.119 C 
ATOM     32  C   UNL     1      -3.975 -10.655  -0.011  0.00  0.00    +0.122 C 
BRANCH  31  33
ATOM     33  C   UNL     1      -5.340 -12.403   1.109  0.00  0.00    +0.361 C 
ATOM     34  O   UNL     1      -4.593 -13.241   0.632  0.00  0.00    -0.246 OA
ATOM     35  O   UNL     1      -6.431 -12.735   1.540  0.00  0.00    -0.246 OA
ENDBRANCH  31  33
ENDBRANCH  24  25
ENDBRANCH  23  24
ENDBRANCH   4  23
TORSDOF 6
