REMARK  Name = ZINC08745058
REMARK  5 active torsions:
REMARK  status: ('A' for Active; 'I' for Inactive)
REMARK    1  A    between atoms: C_1  and  C_2
REMARK    2  A    between atoms: C_2  and  C_3
REMARK    3  A    between atoms: C_12  and  C_13
REMARK    4  A    between atoms: C_16  and  C_29
REMARK    5  A    between atoms: C_21  and  C_23
REMARK                            x       y       z     vdW  Elec       q    Type
REMARK                         _______ _______ _______ _____ _____    ______ ____
ROOT
ATOM      1  C   UNL     1       1.391   2.017  -0.000  0.00  0.00    +0.089 C 
ATOM      2  N   UNL     1       2.130   2.148  -1.048  0.00  0.00    -0.166 NA
ATOM      3  N   UNL     1       1.671   1.871  -2.333  0.00  0.00    -0.188 N 
ATOM      4  C   UNL     1       2.329   1.633  -3.493  0.00  0.00    +0.184 A 
ATOM      5  N   UNL     1       1.425   1.447  -4.422  0.00  0.00    -0.129 NA
ATOM      6  N   UNL     1       0.240   1.562  -3.920  0.00  0.00    -0.121 NA
ATOM      7  C   UNL     1       0.332   1.825  -2.653  0.00  0.00    +0.213 A 
ATOM      8  S   UNL     1      -0.924   2.097  -1.446  0.00  0.00    -0.070 S 
ATOM      9  C   UNL     1      -0.018   1.503   0.010  0.00  0.00    +0.135 C 
ENDROOT
BRANCH   1  19
ATOM     10  C   UNL     1       4.622   3.655   3.430  0.00  0.00    -0.024 A 
ATOM     11  C   UNL     1       5.682   3.932   2.594  0.00  0.00    +0.005 A 
ATOM     12  C   UNL     1       5.581   3.714   1.228  0.00  0.00    +0.001 A 
ATOM     13  C   UNL     1       4.416   3.215   0.688  0.00  0.00    +0.010 A 
ATOM     14  C   UNL     1       3.336   2.930   1.520  0.00  0.00    +0.009 A 
ATOM     15  C   UNL     1       3.437   3.151   2.904  0.00  0.00    +0.050 A 
ATOM     16  N   UNL     1       2.234   2.786   3.470  0.00  0.00    -0.360 N 
ATOM     17  H   UNL     1       2.028   2.837   4.417  0.00  0.00    +0.165 HD
ATOM     18  C   UNL     1       1.373   2.349   2.510  0.00  0.00    +0.093 A 
ATOM     19  C   UNL     1       1.979   2.403   1.292  0.00  0.00    +0.024 A 
BRANCH  10  21
ATOM     20  C   UNL     1       5.161   2.600   5.608  0.00  0.00    +0.009 C 
ATOM     21  C   UNL     1       4.747   3.898   4.912  0.00  0.00    +0.034 C 
ENDBRANCH  10  21
ENDBRANCH   1  19
BRANCH   9  22
ATOM     22  C   UNL     1       0.002  -0.004   0.002  0.00  0.00    -0.028 A 
ATOM     23  C   UNL     1       0.595  -0.681  -1.047  0.00  0.00    +0.005 A 
ATOM     24  C   UNL     1       0.618  -2.064  -1.052  0.00  0.00    +0.000 A 
ATOM     25  C   UNL     1       0.039  -2.768  -0.013  0.00  0.00    +0.000 A 
ATOM     26  C   UNL     1      -0.558  -2.091   1.033  0.00  0.00    +0.000 A 
ATOM     27  C   UNL     1      -0.577  -0.709   1.041  0.00  0.00    +0.005 A 
ENDBRANCH   9  22
BRANCH   4  28
ATOM     28  C   UNL     1       3.824   1.588  -3.680  0.00  0.00    +0.188 C 
ATOM     29  C   UNL     1       4.311   2.852  -4.424  0.00  0.00    +0.042 C 
ATOM     30  C   UNL     1       5.441   2.334  -5.342  0.00  0.00    +0.031 C 
ATOM     31  C   UNL     1       5.503   0.820  -5.044  0.00  0.00    +0.161 C 
ATOM     32  O   UNL     1       4.191   0.487  -4.539  0.00  0.00    -0.369 OA
ENDBRANCH   4  28
TORSDOF 4
