REMARK  Name = ZINC59791307
REMARK  8 active torsions:
REMARK  status: ('A' for Active; 'I' for Inactive)
REMARK    1  A    between atoms: C_4  and  N_7
REMARK    2  A    between atoms: C_8  and  C_26
REMARK    3  A    between atoms: C_11  and  S_12
REMARK    4  A    between atoms: S_12  and  C_13
REMARK    5  A    between atoms: C_13  and  C_14
REMARK    6  A    between atoms: N_16  and  C_17
REMARK    7  A    between atoms: C_17  and  C_18
REMARK    8  A    between atoms: C_29  and  N_32
REMARK                            x       y       z     vdW  Elec       q    Type
REMARK                         _______ _______ _______ _____ _____    ______ ____
ROOT
ATOM      1  N   UNL     1       3.643  -0.619  -0.058  0.00  0.00    -0.270 N 
ATOM      2  C   UNL     1       4.077  -1.528  -0.999  0.00  0.00    +0.169 A 
ATOM      3  N   UNL     1       5.248  -1.966  -0.599  0.00  0.00    -0.128 NA
ATOM      4  N   UNL     1       5.573  -1.403   0.510  0.00  0.00    -0.122 NA
ATOM      5  C   UNL     1       4.632  -0.566   0.885  0.00  0.00    +0.197 A 
ENDROOT
BRANCH   1   9
ATOM      6  C   UNL     1       0.071   1.530  -0.092  0.00  0.00    +0.000 A 
ATOM      7  C   UNL     1       1.274   2.189  -0.267  0.00  0.00    +0.002 A 
ATOM      8  C   UNL     1       2.459   1.479  -0.256  0.00  0.00    +0.026 A 
ATOM      9  C   UNL     1       2.442   0.104  -0.069  0.00  0.00    +0.051 A 
ATOM     10  C   UNL     1       1.232  -0.555   0.106  0.00  0.00    +0.026 A 
ATOM     11  C   UNL     1       0.050   0.160   0.094  0.00  0.00    +0.002 A 
ENDBRANCH   1   9
BRANCH   2  12
ATOM     12  C   UNL     1       3.359  -1.933  -2.226  0.00  0.00    +0.020 A 
ATOM     13  C   UNL     1       2.324  -1.142  -2.726  0.00  0.00    +0.014 A 
ATOM     14  C   UNL     1       1.658  -1.527  -3.872  0.00  0.00    +0.033 A 
ATOM     15  C   UNL     1       2.014  -2.694  -4.524  0.00  0.00    +0.126 A 
ATOM     16  C   UNL     1       3.039  -3.483  -4.033  0.00  0.00    +0.033 A 
ATOM     17  C   UNL     1       3.717  -3.107  -2.892  0.00  0.00    +0.014 A 
BRANCH  15  18
ATOM     18  N   UNL     1       1.295  -3.100  -5.753  0.00  0.00    +0.056 N 
ATOM     19  O   UNL     1       0.399  -2.413  -6.184  0.00  0.00    -0.126 OA
ATOM     20  O   UNL     1       1.604  -4.120  -6.324  0.00  0.00    -0.126 OA
ENDBRANCH  15  18
ENDBRANCH   2  12
BRANCH   5  21
ATOM     21  S   UNL     1       4.641   0.436   2.335  0.00  0.00    -0.076 S 
BRANCH  21  22
ATOM     22  C   UNL     1       6.217   0.033   3.137  0.00  0.00    +0.173 C 
BRANCH  22  23
ATOM     23  C   UNL     1       6.353   0.832   4.407  0.00  0.00    +0.224 C 
ATOM     24  O   UNL     1       5.473   1.598   4.739  0.00  0.00    -0.275 OA
ATOM     25  N   UNL     1       7.453   0.696   5.174  0.00  0.00    -0.311 N 
ATOM     26  H   UNL     1       8.157   0.084   4.909  0.00  0.00    +0.149 HD
BRANCH  25  27
ATOM     27  C   UNL     1       7.585   1.473   6.409  0.00  0.00    +0.139 C 
BRANCH  27  28
ATOM     28  C   UNL     1       8.895   1.139   7.075  0.00  0.00    -0.029 A 
ATOM     29  C   UNL     1       8.961   0.102   7.987  0.00  0.00    +0.007 A 
ATOM     30  C   UNL     1      10.162  -0.205   8.599  0.00  0.00    +0.022 A 
ATOM     31  C   UNL     1      11.298   0.524   8.299  0.00  0.00    +0.059 A 
ATOM     32  C   UNL     1      11.232   1.562   7.385  0.00  0.00    +0.060 A 
ATOM     33  C   UNL     1      10.030   1.865   6.770  0.00  0.00    +0.026 A 
ATOM     34 CL   UNL     1      12.656   2.480   7.007  0.00  0.00    -0.082 Cl
ATOM     35 CL   UNL     1      12.806   0.139   9.067  0.00  0.00    -0.082 Cl
ENDBRANCH  27  28
ENDBRANCH  25  27
ENDBRANCH  22  23
ENDBRANCH  21  22
ENDBRANCH   5  21
TORSDOF 8
