REMARK  Name = ZINC63472977
REMARK  9 active torsions:
REMARK  status: ('A' for Active; 'I' for Inactive)
REMARK    1  A    between atoms: C_1  and  C_2
REMARK    2  A    between atoms: C_5  and  N_8
REMARK    3  A    between atoms: N_8  and  C_9
REMARK    4  A    between atoms: C_11  and  C_38
REMARK    5  A    between atoms: C_17  and  C_19
REMARK    6  A    between atoms: C_17  and  C_20
REMARK    7  A    between atoms: C_24  and  S_27
REMARK    8  A    between atoms: S_27  and  C_28
REMARK    9  A    between atoms: C_28  and  C_29
REMARK                            x       y       z     vdW  Elec       q    Type
REMARK                         _______ _______ _______ _____ _____    ______ ____
ROOT
ATOM      1  C   UNL     1       0.185  -4.905   1.238  0.00  0.00    +0.183 C 
ATOM      2  C   UNL     1       1.279  -5.978   1.111  0.00  0.00    +0.156 C 
ATOM      3  C   UNL     1       0.884  -7.019   0.088  0.00  0.00    -0.038 C 
ATOM      4  C   UNL     1      -0.365  -7.478   0.041  0.00  0.00    +0.020 C 
ATOM      5  C   UNL     1      -0.807  -8.543  -0.918  0.00  0.00    +0.199 C 
ATOM      6  O   UNL     1       0.146  -8.694  -1.971  0.00  0.00    -0.369 OA
ATOM      7  C   UNL     1       1.487  -8.844  -1.491  0.00  0.00    +0.068 C 
ATOM      8  C   UNL     1       1.933  -7.518  -0.874  0.00  0.00    +0.067 C 
ATOM      9  C   UNL     1       2.412  -9.207  -2.654  0.00  0.00    +0.041 C 
ATOM     10  C   UNL     1       1.532  -9.945  -0.430  0.00  0.00    +0.041 C 
ATOM     11  C   UNL     1      -1.348  -6.867   0.964  0.00  0.00    +0.148 C 
ATOM     12  N   UNL     1      -2.486  -7.307   1.364  0.00  0.00    -0.169 NA
ATOM     13  N   UNL     1      -3.111  -6.406   2.241  0.00  0.00    -0.237 N 
ATOM     14  C   UNL     1      -2.196  -5.254   2.378  0.00  0.00    +0.238 C 
ATOM     15  N   UNL     1      -1.067  -5.605   1.536  0.00  0.00    -0.265 N 
ATOM     16  H   UNL     1      -3.973  -6.518   2.671  0.00  0.00    +0.171 HD
ENDROOT
BRANCH   1  17
ATOM     17  N   UNL     1       0.058  -4.167  -0.021  0.00  0.00    -0.324 N 
ATOM     18  H   UNL     1       0.034  -4.647  -0.864  0.00  0.00    +0.148 HD
BRANCH  17  23
ATOM     19  C   UNL     1      -0.290   1.492   0.032  0.00  0.00    +0.044 C 
ATOM     20  C   UNL     1      -0.197  -0.012   0.018  0.00  0.00    -0.050 A 
ATOM     21  C   UNL     1      -0.070  -0.684  -1.184  0.00  0.00    +0.005 A 
ATOM     22  C   UNL     1       0.015  -2.062  -1.200  0.00  0.00    +0.023 A 
ATOM     23  C   UNL     1      -0.027  -2.773  -0.008  0.00  0.00    +0.028 A 
ATOM     24  C   UNL     1      -0.155  -2.095   1.197  0.00  0.00    +0.023 A 
ATOM     25  C   UNL     1      -0.234  -0.716   1.207  0.00  0.00    +0.005 A 
ENDBRANCH  17  23
ENDBRANCH   1  17
BRANCH   2  26
ATOM     26  C   UNL     1       1.474  -6.630   2.416  0.00  0.00    +0.074 C 
ATOM     27  N   UNL     1       1.625  -7.133   3.423  0.00  0.00    -0.196 NA
ENDBRANCH   2  26
BRANCH  14  28
ATOM     28  S   UNL     1      -2.990  -3.735   1.784  0.00  0.00    -0.114 S 
BRANCH  28  29
ATOM     29  C   UNL     1      -3.406  -4.104   0.057  0.00  0.00    +0.119 C 
BRANCH  29  30
ATOM     30  C   UNL     1      -4.091  -2.890  -0.573  0.00  0.00    +0.184 C 
ATOM     31  N   UNL     1      -3.224  -1.710  -0.466  0.00  0.00    -0.363 N 
ATOM     32  C   UNL     1      -3.863  -0.819   0.236  0.00  0.00    +0.060 A 
ATOM     33  C   UNL     1      -3.520   0.540   0.675  0.00  0.00    +0.027 A 
ATOM     34  C   UNL     1      -4.403   1.244   1.412  0.00  0.00    +0.002 A 
ATOM     35  C   UNL     1      -5.657   0.730   1.787  0.00  0.00    +0.002 A 
ATOM     36  C   UNL     1      -6.071  -0.504   1.438  0.00  0.00    +0.027 A 
ATOM     37  C   UNL     1      -5.191  -1.363   0.633  0.00  0.00    +0.060 A 
ATOM     38  N   UNL     1      -5.321  -2.569   0.160  0.00  0.00    -0.363 N 
ATOM     39  H   UNL     1      -2.338  -1.612  -0.847  0.00  0.00    +0.162 HD
ATOM     40  H   UNL     1      -6.091  -3.149   0.272  0.00  0.00    +0.162 HD
ENDBRANCH  29  30
ENDBRANCH  28  29
ENDBRANCH  14  28
TORSDOF 6
