REMARK  Name = ZINC43259760
REMARK  8 active torsions:
REMARK  status: ('A' for Active; 'I' for Inactive)
REMARK    1  A    between atoms: C_1  and  C_2
REMARK    2  A    between atoms: C_2  and  C_3
REMARK    3  A    between atoms: C_3  and  C_5
REMARK    4  A    between atoms: C_3  and  N_21
REMARK    5  A    between atoms: C_5  and  C_7
REMARK    6  A    between atoms: C_5  and  N_13
REMARK    7  A    between atoms: N_13  and  C_14
REMARK    8  A    between atoms: N_13  and  C_15
REMARK                            x       y       z     vdW  Elec       q    Type
REMARK                         _______ _______ _______ _____ _____    ______ ____
ROOT
ATOM      1  C   UNL     1       0.714  -2.122  -1.300  0.00  0.00    +0.079 C 
ENDROOT
BRANCH   1   2
ATOM      2  C   UNL     1      -0.684  -2.614  -1.573  0.00  0.00    +0.006 A 
ATOM      3  C   UNL     1      -1.619  -3.059  -0.697  0.00  0.00    +0.014 A 
ATOM      4  C   UNL     1      -2.849  -3.466  -1.179  0.00  0.00    +0.023 A 
ATOM      5  C   UNL     1      -3.084  -3.408  -2.513  0.00  0.00    +0.055 A 
ATOM      6  S   UNL     1      -1.542  -2.756  -3.132  0.00  0.00    -0.085 S 
ATOM      7 BR   UNL     1      -4.644  -3.887  -3.470  0.00  0.00    -0.043 Br
ENDBRANCH   1   2
BRANCH   1   8
ATOM      8  N   UNL     1       1.605  -2.554  -2.384  0.00  0.00    -0.296 NA
ATOM      9  C   UNL     1       1.473  -1.677  -3.555  0.00  0.00    +0.105 C 
BRANCH   8  10
ATOM     10  C   UNL     1       3.000  -2.614  -1.927  0.00  0.00    +0.067 C 
ATOM     11  C   UNL     1       3.901  -2.869  -3.134  0.00  0.00    +0.030 C 
ATOM     12  C   UNL     1       5.189  -3.619  -2.696  0.00  0.00    +0.071 C 
ATOM     13  S   UNL     1       4.462  -4.783  -1.460  0.00  0.00    -0.159 S 
ATOM     14  C   UNL     1       3.116  -3.698  -0.838  0.00  0.00    +0.088 C 
ENDBRANCH   8  10
ENDBRANCH   1   8
BRANCH   1  15
ATOM     15  C   UNL     1       0.710  -0.594  -1.221  0.00  0.00    -0.053 C 
BRANCH  15  16
ATOM     16  N   UNL     1       2.080  -0.111  -1.005  0.00  0.00    +0.381 N 
ATOM     17  H   UNL     1       2.491  -0.603  -0.226  0.00  0.00    -0.090 HD
ATOM     18  H   UNL     1       2.630  -0.276  -1.835  0.00  0.00    -0.090 HD
ATOM     19  H   UNL     1       2.061   0.878  -0.805  0.00  0.00    -0.090 HD
ENDBRANCH  15  16
BRANCH  15  21
ATOM     20  C   UNL     1      -0.282   1.381  -0.055  0.00  0.00    +0.002 C 
ATOM     21  C   UNL     1      -0.178  -0.145  -0.058  0.00  0.00    -0.018 C 
ENDBRANCH  15  21
ENDBRANCH   1  15
TORSDOF 6
