REMARK  Name = ZINC36701164
REMARK  6 active torsions:
REMARK  status: ('A' for Active; 'I' for Inactive)
REMARK    1  A    between atoms: C_1  and  C_2
REMARK    2  A    between atoms: N_7  and  C_9
REMARK    3  A    between atoms: C_9  and  C_10
REMARK    4  A    between atoms: N_15  and  C_16
REMARK    5  A    between atoms: C_16  and  C_18
REMARK    6  A    between atoms: C_19  and  N_23
REMARK                            x       y       z     vdW  Elec       q    Type
REMARK                         _______ _______ _______ _____ _____    ______ ____
ROOT
ATOM      1  C   UNL     1       1.321  -3.966   2.518  0.00  0.00    +0.008 A 
ATOM      2  C   UNL     1       2.416  -4.733   2.469  0.00  0.00    +0.067 A 
ATOM      3  S   UNL     1       1.725  -6.373   2.572  0.00  0.00    -0.061 S 
ATOM      4  C   UNL     1       0.098  -5.959   2.671  0.00  0.00    +0.163 A 
ATOM      5  N   UNL     1       0.121  -4.598   2.628  0.00  0.00    -0.341 N 
ATOM      6  N   UNL     1      -0.955  -6.766   2.771  0.00  0.00    -0.152 NA
ATOM      7  H   UNL     1      -0.704  -4.088   2.673  0.00  0.00    +0.167 HD
ENDROOT
BRANCH   6   8
ATOM      8  C   UNL     1      -0.781  -8.093   2.804  0.00  0.00    +0.278 C 
ATOM      9  O   UNL     1       0.344  -8.563   2.743  0.00  0.00    -0.267 OA
BRANCH   8  10
ATOM     10  C   UNL     1      -1.942  -8.983   2.915  0.00  0.00    +0.100 A 
ATOM     11  C   UNL     1      -1.981 -10.372   2.971  0.00  0.00    +0.065 A 
ATOM     12  C   UNL     1      -3.241 -10.928   3.075  0.00  0.00    +0.034 A 
ATOM     13  C   UNL     1      -4.319 -10.111   3.114  0.00  0.00    +0.048 A 
ATOM     14  S   UNL     1      -3.672  -8.564   3.020  0.00  0.00    -0.090 S 
BRANCH  11  15
ATOM     15  N   UNL     1      -0.820 -11.154   2.924  0.00  0.00    -0.322 N 
ATOM     16  C   UNL     1       0.183 -11.036   2.005  0.00  0.00    +0.091 A 
ATOM     17  C   UNL     1       1.125 -11.960   2.288  0.00  0.00    +0.019 A 
ATOM     18  C   UNL     1       0.689 -12.674   3.423  0.00  0.00    +0.019 A 
ATOM     19  C   UNL     1      -0.500 -12.157   3.794  0.00  0.00    +0.091 A 
ENDBRANCH  11  15
ENDBRANCH   8  10
ENDBRANCH   6   8
BRANCH   1  20
ATOM     20  C   UNL     1       1.413  -2.463   2.461  0.00  0.00    -0.024 C 
BRANCH  20  26
ATOM     21  C   UNL     1      -0.019   1.526   0.010  0.00  0.00    +0.005 C 
ATOM     22  C   UNL     1       0.002  -0.004   0.002  0.00  0.00    -0.031 C 
ATOM     23  C   UNL     1       0.721  -0.499  -1.257  0.00  0.00    -0.001 C 
ATOM     24  C   UNL     1       0.805  -2.027  -1.217  0.00  0.00    -0.018 C 
ATOM     25  C   UNL     1       1.518  -2.460   0.066  0.00  0.00    -0.078 C 
ATOM     26  N   UNL     1       0.768  -1.979   1.233  0.00  0.00    +0.384 N 
ATOM     27  C   UNL     1       0.744  -0.512   1.240  0.00  0.00    -0.075 C 
ATOM     28  H   UNL     1      -0.177  -2.330   1.192  0.00  0.00    -0.081 HD
ENDBRANCH  20  26
ENDBRANCH   1  20
TORSDOF 5
