REMARK  Name = ZINC13427027
REMARK  7 active torsions:
REMARK  status: ('A' for Active; 'I' for Inactive)
REMARK    1  A    between atoms: C_1  and  O_2
REMARK    2  A    between atoms: O_2  and  C_3
REMARK    3  A    between atoms: C_6  and  C_9
REMARK    4  A    between atoms: C_11  and  C_23
REMARK    5  A    between atoms: C_13  and  C_18
REMARK    6  A    between atoms: C_13  and  O_22
REMARK    7  A    between atoms: C_23  and  C_25
REMARK                            x       y       z     vdW  Elec       q    Type
REMARK                         _______ _______ _______ _____ _____    ______ ____
ROOT
ATOM      1  C   UNL     1       0.007   0.823  -0.010  0.00  0.00    +0.120 C 
ATOM      2  C   UNL     1       1.425   1.392  -0.118  0.00  0.00    +0.144 C 
ATOM      3  C   UNL     1       2.097   1.292   1.256  0.00  0.00    +0.243 C 
ATOM      4  N   UNL     1       1.262   1.971   2.249  0.00  0.00    -0.264 N 
ATOM      5  C   UNL     1      -0.069   2.049   2.105  0.00  0.00    +0.302 C 
ATOM      6  O   UNL     1      -0.717   2.614   2.965  0.00  0.00    -0.253 OA
ATOM      7  N   UNL     1      -0.714   1.527   1.051  0.00  0.00    -0.292 N 
ATOM      8  H   UNL     1       1.681   2.373   3.026  0.00  0.00    +0.153 HD
ATOM      9  H   UNL     1      -1.678   1.618   0.992  0.00  0.00    +0.151 HD
ENDROOT
BRANCH   1  13
ATOM     10  C   UNL     1      -2.034   1.359  -3.726  0.00  0.00    +0.120 A 
ATOM     11  C   UNL     1      -1.390   0.160  -3.454  0.00  0.00    +0.046 A 
ATOM     12  C   UNL     1      -0.731  -0.010  -2.252  0.00  0.00    +0.009 A 
ATOM     13  C   UNL     1      -0.713   1.012  -1.321  0.00  0.00    -0.026 A 
ATOM     14  C   UNL     1      -1.359   2.205  -1.587  0.00  0.00    +0.009 A 
ATOM     15  C   UNL     1      -2.014   2.383  -2.790  0.00  0.00    +0.046 A 
BRANCH  10  17
ATOM     16  C   UNL     1      -3.325   2.788  -5.120  0.00  0.00    +0.277 C 
ATOM     17  O   UNL     1      -2.684   1.529  -4.908  0.00  0.00    -0.495 OA
ENDBRANCH  10  17
ENDBRANCH   1  13
BRANCH   3  18
ATOM     18  C   UNL     1       3.473   1.960   1.202  0.00  0.00    +0.436 C 
ATOM     19  F   UNL     1       3.317   3.333   0.988  0.00  0.00    -0.166 F 
ATOM     20  F   UNL     1       4.141   1.749   2.413  0.00  0.00    -0.166 F 
ATOM     21  F   UNL     1       4.219   1.407   0.155  0.00  0.00    -0.166 F 
ENDBRANCH   3  18
BRANCH   3  22
ATOM     22  O   UNL     1       2.245  -0.082   1.616  0.00  0.00    -0.364 OA
ATOM     23  H   UNL     1       2.664  -0.220   2.477  0.00  0.00    +0.212 HD
ENDBRANCH   3  22
BRANCH   2  24
ATOM     24  C   UNL     1       1.360   2.836  -0.546  0.00  0.00    +0.173 C 
ATOM     25  O   UNL     1       0.851   3.661   0.182  0.00  0.00    -0.292 OA
BRANCH  24  26
ATOM     26  C   UNL     1       1.913   3.244  -1.846  0.00  0.00    +0.018 A 
ATOM     27  C   UNL     1       2.381   2.279  -2.745  0.00  0.00    +0.013 A 
ATOM     28  C   UNL     1       2.892   2.668  -3.964  0.00  0.00    +0.020 A 
ATOM     29  C   UNL     1       2.955   4.011  -4.295  0.00  0.00    +0.041 A 
ATOM     30  C   UNL     1       2.499   4.973  -3.408  0.00  0.00    +0.020 A 
ATOM     31  C   UNL     1       1.979   4.598  -2.188  0.00  0.00    +0.013 A 
ATOM     32 CL   UNL     1       3.608   4.493  -5.830  0.00  0.00    -0.084 Cl
ENDBRANCH  24  26
ENDBRANCH   2  24
TORSDOF 6
