REMARK  Name = ZINC34792265
REMARK  6 active torsions:
REMARK  status: ('A' for Active; 'I' for Inactive)
REMARK    1  A    between atoms: C_2  and  C_3
REMARK    2  A    between atoms: C_3  and  N_4
REMARK    3  A    between atoms: C_7  and  C_12
REMARK    4  A    between atoms: N_21  and  C_23
REMARK    5  A    between atoms: C_23  and  C_24
REMARK    6  A    between atoms: N_26  and  C_27
REMARK                            x       y       z     vdW  Elec       q    Type
REMARK                         _______ _______ _______ _____ _____    ______ ____
ROOT
ATOM      1  N   UNL     1       1.367  -1.676   1.111  0.00  0.00    -0.253 N 
ATOM      2  C   UNL     1       1.872  -1.230   2.300  0.00  0.00    +0.043 C 
ATOM      3  C   UNL     1       1.946  -2.039   3.375  0.00  0.00    +0.058 C 
ATOM      4  C   UNL     1       1.450  -3.463   3.221  0.00  0.00    +0.142 C 
ATOM      5  N   UNL     1       0.924  -3.846   1.900  0.00  0.00    -0.288 N 
ATOM      6  C   UNL     1       0.911  -2.920   0.921  0.00  0.00    +0.307 C 
ATOM      7  O   UNL     1       0.474  -3.226  -0.172  0.00  0.00    -0.252 OA
ATOM      8  C   UNL     1       2.501  -1.348   4.472  0.00  0.00    +0.247 C 
ATOM      9  O   UNL     1       2.685  -1.837   5.572  0.00  0.00    -0.270 OA
ATOM     10  N   UNL     1       2.802  -0.078   4.144  0.00  0.00    -0.283 N 
ATOM     11  C   UNL     1       2.428   0.108   2.734  0.00  0.00    +0.160 C 
ATOM     12  H   UNL     1       0.592  -4.743   1.740  0.00  0.00    +0.151 HD
ENDROOT
BRANCH   4  13
ATOM     13  C   UNL     1       0.360  -3.687   4.238  0.00  0.00    -0.021 A 
ATOM     14  C   UNL     1      -0.922  -3.235   3.987  0.00  0.00    +0.006 A 
ATOM     15  C   UNL     1      -1.923  -3.440   4.919  0.00  0.00    +0.002 A 
ATOM     16  C   UNL     1      -1.641  -4.098   6.102  0.00  0.00    +0.020 A 
ATOM     17  C   UNL     1      -0.358  -4.551   6.353  0.00  0.00    +0.041 A 
ATOM     18  C   UNL     1       0.641  -4.350   5.417  0.00  0.00    +0.025 A 
ATOM     19 CL   UNL     1      -0.004  -5.376   7.838  0.00  0.00    -0.084 Cl
ENDBRANCH   4  13
BRANCH   1  20
ATOM     20  C   UNL     1       1.317  -0.740  -0.015  0.00  0.00    +0.141 C 
BRANCH  20  22
ATOM     21  C   UNL     1      -0.016   1.306   0.009  0.00  0.00    +0.005 C 
ATOM     22  C   UNL     1       0.002  -0.004   0.002  0.00  0.00    -0.015 C 
ENDBRANCH  20  22
ENDBRANCH   1  20
BRANCH  10  23
ATOM     23  C   UNL     1       3.391   0.931   5.028  0.00  0.00    +0.204 C 
BRANCH  23  24
ATOM     24  C   UNL     1       4.894   0.866   4.932  0.00  0.00    +0.231 C 
ATOM     25  O   UNL     1       5.421   0.057   4.198  0.00  0.00    -0.274 OA
ATOM     26  N   UNL     1       5.652   1.708   5.662  0.00  0.00    -0.307 N 
ATOM     27  H   UNL     1       5.231   2.355   6.249  0.00  0.00    +0.149 HD
BRANCH  26  28
ATOM     28  C   UNL     1       7.113   1.645   5.569  0.00  0.00    +0.103 C 
ATOM     29  C   UNL     1       7.724   2.181   6.862  0.00  0.00    +0.027 C 
ATOM     30  C   UNL     1       9.239   2.312   6.664  0.00  0.00    +0.007 C 
ATOM     31  C   UNL     1       9.499   3.457   5.688  0.00  0.00    +0.035 C 
ATOM     32  C   UNL     1       8.669   3.291   4.442  0.00  0.00    -0.042 A 
ATOM     33  C   UNL     1       7.571   2.463   4.389  0.00  0.00    -0.024 A 
ATOM     34  C   UNL     1       6.844   2.361   3.210  0.00  0.00    +0.006 A 
ATOM     35  C   UNL     1       7.215   3.081   2.093  0.00  0.00    +0.000 A 
ATOM     36  C   UNL     1       8.320   3.910   2.147  0.00  0.00    +0.000 A 
ATOM     37  C   UNL     1       9.042   4.013   3.316  0.00  0.00    +0.004 A 
ENDBRANCH  26  28
ENDBRANCH  23  24
ENDBRANCH  10  23
TORSDOF 6
