REMARK  Name = ZINC15081004
REMARK  10 active torsions:
REMARK  status: ('A' for Active; 'I' for Inactive)
REMARK    1  A    between atoms: C_1  and  C_2
REMARK    2  A    between atoms: C_3  and  C_36
REMARK    3  A    between atoms: C_11  and  C_13
REMARK    4  A    between atoms: C_13  and  S_14
REMARK    5  A    between atoms: S_14  and  C_15
REMARK    6  A    between atoms: C_15  and  C_17
REMARK    7  A    between atoms: C_15  and  C_18
REMARK    8  A    between atoms: N_20  and  C_21
REMARK    9  A    between atoms: C_26  and  O_27
REMARK   10  A    between atoms: O_27  and  C_28
REMARK                            x       y       z     vdW  Elec       q    Type
REMARK                         _______ _______ _______ _____ _____    ______ ____
ROOT
ATOM      1  C   UNL     1      -0.015   1.208   0.013  0.00  0.00    +0.230 C 
ATOM      2  O   UNL     1       0.002  -0.004   0.002  0.00  0.00    -0.274 OA
ATOM      3  N   UNL     1      -1.191   1.867   0.018  0.00  0.00    -0.282 N 
ATOM      4  H   UNL     1      -1.205   2.834   0.093  0.00  0.00    +0.155 HD
ENDROOT
BRANCH   3   5
ATOM      5  C   UNL     1      -2.392   1.155  -0.086  0.00  0.00    +0.079 A 
ATOM      6  C   UNL     1      -2.504  -0.095   0.499  0.00  0.00    +0.074 A 
ATOM      7  C   UNL     1      -3.694  -0.805   0.406  0.00  0.00    +0.138 A 
ATOM      8  C   UNL     1      -4.772  -0.247  -0.296  0.00  0.00    +0.031 A 
ATOM      9  C   UNL     1      -4.654   1.007  -0.889  0.00  0.00    +0.059 A 
ATOM     10  C   UNL     1      -3.467   1.707  -0.784  0.00  0.00    +0.142 A 
ATOM     11  C   UNL     1      -5.860  -1.240  -0.214  0.00  0.00    +0.028 A 
ATOM     12  C   UNL     1      -7.164  -1.286  -0.695  0.00  0.00    +0.012 A 
ATOM     13  C   UNL     1      -7.949  -2.391  -0.438  0.00  0.00    +0.001 A 
ATOM     14  C   UNL     1      -7.440  -3.450   0.297  0.00  0.00    +0.004 A 
ATOM     15  C   UNL     1      -6.149  -3.414   0.779  0.00  0.00    +0.047 A 
ATOM     16  C   UNL     1      -5.342  -2.309   0.531  0.00  0.00    +0.136 A 
ATOM     17  O   UNL     1      -4.069  -2.016   0.876  0.00  0.00    -0.455 OA
BRANCH  10  18
ATOM     18  O   UNL     1      -3.346   2.933  -1.361  0.00  0.00    -0.493 OA
ATOM     19  C   UNL     1      -4.487   3.436  -2.060  0.00  0.00    +0.277 C 
ENDBRANCH  10  18
ENDBRANCH   3   5
BRANCH   1  20
ATOM     20  C   UNL     1       1.280   1.979   0.016  0.00  0.00    +0.130 C 
ATOM     21  C   UNL     1       1.585   2.469  -1.401  0.00  0.00    +0.029 C 
BRANCH  20  22
ATOM     22  S   UNL     1       2.624   0.902   0.586  0.00  0.00    -0.141 S 
BRANCH  22  23
ATOM     23  C   UNL     1       4.062   2.005   0.677  0.00  0.00    +0.144 C 
BRANCH  23  34
ATOM     24  C   UNL     1       9.889  -0.637   2.681  0.00  0.00    +0.045 C 
ATOM     25  C   UNL     1       8.479  -1.118   2.454  0.00  0.00    -0.026 A 
ATOM     26  C   UNL     1       8.156  -2.403   2.672  0.00  0.00    -0.008 A 
ATOM     27  S   UNL     1       6.420  -2.466   2.271  0.00  0.00    -0.073 S 
ATOM     28  C   UNL     1       6.179  -0.766   1.822  0.00  0.00    +0.116 A 
ATOM     29  C   UNL     1       7.454  -0.198   1.997  0.00  0.00    +0.075 A 
ATOM     30  C   UNL     1       7.554   1.200   1.700  0.00  0.00    +0.260 A 
ATOM     31  O   UNL     1       8.618   1.784   1.820  0.00  0.00    -0.267 OA
ATOM     32  N   UNL     1       6.458   1.857   1.279  0.00  0.00    -0.310 N 
ATOM     33  H   UNL     1       6.520   2.803   1.072  0.00  0.00    +0.170 HD
ATOM     34  C   UNL     1       5.264   1.225   1.144  0.00  0.00    +0.121 A 
ATOM     35  N   UNL     1       5.140  -0.048   1.407  0.00  0.00    -0.226 NA
ATOM     36  C   UNL     1       9.047  -3.523   3.143  0.00  0.00    +0.052 C 
ENDBRANCH  23  34
ENDBRANCH  22  23
ENDBRANCH  20  22
ENDBRANCH   1  20
TORSDOF 6
