REMARK  Name = ZINC09509527
REMARK  8 active torsions:
REMARK  status: ('A' for Active; 'I' for Inactive)
REMARK    1  A    between atoms: C_1  and  C_2
REMARK    2  A    between atoms: C_2  and  C_3
REMARK    3  A    between atoms: C_2  and  C_4
REMARK    4  A    between atoms: C_7  and  N_10
REMARK    5  A    between atoms: C_14  and  S_16
REMARK    6  A    between atoms: S_16  and  C_17
REMARK    7  A    between atoms: C_17  and  C_18
REMARK    8  A    between atoms: N_20  and  C_21
REMARK                            x       y       z     vdW  Elec       q    Type
REMARK                         _______ _______ _______ _____ _____    ______ ____
ROOT
ATOM      1  N   UNL     1      12.018  -4.088   7.021  0.00  0.00    -0.292 N 
ATOM      2  C   UNL     1      10.876  -3.718   6.319  0.00  0.00    +0.187 A 
ATOM      3  N   UNL     1      10.592  -2.573   5.730  0.00  0.00    -0.125 NA
ATOM      4  N   UNL     1       9.389  -2.417   5.081  0.00  0.00    -0.133 NA
ATOM      5  C   UNL     1       8.525  -3.414   5.051  0.00  0.00    +0.160 A 
ATOM      6  S   UNL     1       9.400  -4.665   5.979  0.00  0.00    -0.024 S 
ATOM      7  H   UNL     1      12.122  -5.001   7.331  0.00  0.00    +0.154 HD
ENDROOT
BRANCH   1  11
ATOM      8  C   UNL     1      14.988  -1.275   7.797  0.00  0.00    -0.045 A 
ATOM      9  C   UNL     1      13.686  -0.862   7.582  0.00  0.00    +0.006 A 
ATOM     10  C   UNL     1      12.699  -1.792   7.324  0.00  0.00    +0.023 A 
ATOM     11  C   UNL     1      13.014  -3.144   7.281  0.00  0.00    +0.033 A 
ATOM     12  C   UNL     1      14.323  -3.556   7.503  0.00  0.00    +0.023 A 
ATOM     13  C   UNL     1      15.306  -2.620   7.755  0.00  0.00    +0.006 A 
BRANCH   8  15
ATOM     14  C   UNL     1      16.683  -0.534   9.449  0.00  0.00    +0.012 C 
ATOM     15  C   UNL     1      16.063  -0.257   8.078  0.00  0.00    +0.013 C 
ATOM     16  C   UNL     1      17.146  -0.348   7.001  0.00  0.00    +0.012 C 
ENDBRANCH   8  15
ENDBRANCH   1  11
BRANCH   5  17
ATOM     17  S   UNL     1       6.931  -3.488   4.303  0.00  0.00    -0.088 S 
BRANCH  17  18
ATOM     18  C   UNL     1       6.720  -1.849   3.556  0.00  0.00    +0.172 C 
BRANCH  18  19
ATOM     19  C   UNL     1       5.378  -1.777   2.873  0.00  0.00    +0.227 C 
ATOM     20  O   UNL     1       4.638  -2.737   2.890  0.00  0.00    -0.275 OA
ATOM     21  N   UNL     1       5.002  -0.646   2.245  0.00  0.00    -0.285 N 
ATOM     22  H   UNL     1       5.622   0.095   2.167  0.00  0.00    +0.155 HD
BRANCH  21  23
ATOM     23  C   UNL     1       3.714  -0.541   1.704  0.00  0.00    +0.037 A 
ATOM     24  C   UNL     1       2.647  -1.177   2.323  0.00  0.00    +0.027 A 
ATOM     25  C   UNL     1       1.376  -1.075   1.791  0.00  0.00    +0.051 A 
ATOM     26  C   UNL     1       1.162  -0.336   0.638  0.00  0.00    +0.166 A 
ATOM     27  C   UNL     1       2.231   0.304   0.015  0.00  0.00    +0.168 A 
ATOM     28  C   UNL     1       3.504   0.200   0.549  0.00  0.00    +0.072 A 
ATOM     29  O   UNL     1       1.764   0.958  -1.089  0.00  0.00    -0.453 OA
ATOM     30  C   UNL     1       0.339   1.051  -0.907  0.00  0.00    +0.466 C 
ATOM     31  O   UNL     1       0.026  -0.083  -0.076  0.00  0.00    -0.453 OA
ENDBRANCH  21  23
ENDBRANCH  18  19
ENDBRANCH  17  18
ENDBRANCH   5  17
TORSDOF 6
