REMARK  Name = ZINC19830706
REMARK  10 active torsions:
REMARK  status: ('A' for Active; 'I' for Inactive)
REMARK    1  A    between atoms: C_1  and  C_2
REMARK    2  A    between atoms: C_7  and  N_8
REMARK    3  A    between atoms: C_9  and  C_11
REMARK    4  A    between atoms: C_13  and  C_28
REMARK    5  A    between atoms: C_15  and  C_26
REMARK    6  A    between atoms: C_16  and  S_21
REMARK    7  A    between atoms: C_18  and  C_19
REMARK    8  A    between atoms: C_18  and  O_20
REMARK    9  A    between atoms: S_21  and  C_22
REMARK   10  A    between atoms: C_22  and  C_23
REMARK                            x       y       z     vdW  Elec       q    Type
REMARK                         _______ _______ _______ _____ _____    ______ ____
ROOT
ATOM      1  C   UNL     1      -4.955   1.318  -1.167  0.00  0.00    +0.138 C 
ATOM      2  C   UNL     1      -6.445   1.536  -0.897  0.00  0.00    +0.085 C 
ATOM      3  C   UNL     1      -7.266   0.950  -2.012  0.00  0.00    +0.065 C 
ATOM      4  C   UNL     1      -6.774   0.007  -2.857  0.00  0.00    +0.078 C 
ATOM      5  N   UNL     1      -5.484  -0.456  -2.740  0.00  0.00    -0.310 N 
ATOM      6  C   UNL     1      -4.729  -0.159  -1.515  0.00  0.00    +0.140 C 
ATOM      7  C   UNL     1      -5.231  -1.043  -0.372  0.00  0.00    +0.064 C 
ATOM      8  H   UNL     1      -5.016  -1.040  -3.547  0.00  0.00    +0.149 HD
ENDROOT
BRANCH   2   9
ATOM      9  C   UNL     1      -6.724   3.014  -0.795  0.00  0.00    -0.001 A 
ATOM     10  C   UNL     1      -7.233   3.717   0.245  0.00  0.00    +0.012 A 
ATOM     11  C   UNL     1      -7.403   5.082   0.113  0.00  0.00    +0.008 A 
ATOM     12  C   UNL     1      -7.056   5.678  -1.055  0.00  0.00    +0.045 A 
ATOM     13  S   UNL     1      -6.461   4.293  -2.013  0.00  0.00    -0.101 S 
ENDBRANCH   2   9
BRANCH   1  15
ATOM     14  N   UNL     1      -2.818   1.560   0.055  0.00  0.00    -0.285 N 
ATOM     15  C   UNL     1      -4.161   1.675   0.063  0.00  0.00    +0.226 C 
ATOM     16  O   UNL     1      -4.730   2.066   1.060  0.00  0.00    -0.275 OA
ATOM     17  H   UNL     1      -2.294   1.294  -0.875  0.00  0.00    +0.155 HD
BRANCH  14  24
ATOM     18  C   UNL     1      -0.096   2.354  -0.179  0.00  0.00    +0.045 C 
ATOM     19  C   UNL     1      -0.759   2.168   1.161  0.00  0.00    -0.029 A 
ATOM     20  C   UNL     1      -0.044   2.389   2.323  0.00  0.00    +0.005 A 
ATOM     21  C   UNL     1      -0.652   2.218   3.553  0.00  0.00    +0.000 A 
ATOM     22  C   UNL     1      -1.977   1.826   3.624  0.00  0.00    +0.002 A 
ATOM     23  C   UNL     1      -2.697   1.605   2.467  0.00  0.00    +0.023 A 
ATOM     24  C   UNL     1      -2.090   1.779   1.230  0.00  0.00    +0.036 A 
ENDBRANCH  14  24
ENDBRANCH   1  15
BRANCH   6  25
ATOM     25  O   UNL     1      -3.337  -0.396  -1.735  0.00  0.00    -0.371 OA
ATOM     26  H   UNL     1      -2.986  -1.405  -1.997  0.00  0.00    +0.212 HD
ENDBRANCH   6  25
BRANCH   3  27
ATOM     27  C   UNL     1      -8.613   1.402  -2.189  0.00  0.00    +0.098 C 
ATOM     28  N   UNL     1      -9.682   1.760  -2.330  0.00  0.00    -0.191 NA
ENDBRANCH   3  27
BRANCH   4  29
ATOM     29  S   UNL     1      -7.810  -0.637  -4.128  0.00  0.00    -0.100 S 
BRANCH  29  30
ATOM     30  C   UNL     1      -6.666  -1.805  -4.904  0.00  0.00    +0.171 C 
BRANCH  30  31
ATOM     31  C   UNL     1      -7.355  -2.495  -6.053  0.00  0.00    +0.221 C 
ATOM     32  O   UNL     1      -8.507  -2.224  -6.321  0.00  0.00    -0.275 OA
ATOM     33  N   UNL     1      -6.692  -3.414  -6.783  0.00  0.00    -0.329 N 
ATOM     34  H   UNL     1      -7.195  -3.917  -7.622  0.00  0.00    +0.145 HD
ATOM     35  H   UNL     1      -5.648  -3.660  -6.540  0.00  0.00    +0.145 HD
ENDBRANCH  30  31
ENDBRANCH  29  30
ENDBRANCH   4  29
TORSDOF 8
