REMARK  Name = ZINC34747757
REMARK  7 active torsions:
REMARK  status: ('A' for Active; 'I' for Inactive)
REMARK    1  A    between atoms: C_1  and  C_2
REMARK    2  A    between atoms: C_5  and  N_8
REMARK    3  A    between atoms: C_9  and  C_11
REMARK    4  A    between atoms: C_11  and  N_12
REMARK    5  A    between atoms: N_25  and  C_28
REMARK    6  A    between atoms: C_28  and  C_29
REMARK    7  A    between atoms: C_29  and  C_31
REMARK                            x       y       z     vdW  Elec       q    Type
REMARK                         _______ _______ _______ _____ _____    ______ ____
ROOT
ATOM      1  N   UNL     1       0.426  -7.007   2.850  0.00  0.00    -0.271 N 
ATOM      2  C   UNL     1       1.584  -6.995   3.537  0.00  0.00    +0.264 A 
ATOM      3  O   UNL     1       2.627  -6.687   2.987  0.00  0.00    -0.267 OA
ATOM      4  C   UNL     1       1.570  -7.348   4.923  0.00  0.00    +0.076 A 
ATOM      5  C   UNL     1       2.708  -7.401   5.856  0.00  0.00    -0.023 A 
ATOM      6  C   UNL     1       2.440  -7.765   7.120  0.00  0.00    -0.004 A 
ATOM      7  S   UNL     1       0.686  -8.054   7.155  0.00  0.00    -0.073 S 
ATOM      8  C   UNL     1       0.319  -7.685   5.459  0.00  0.00    +0.117 A 
ATOM      9  N   UNL     1      -0.789  -7.679   4.726  0.00  0.00    -0.208 NA
ATOM     10  C   UNL     1      -0.750  -7.344   3.453  0.00  0.00    +0.202 A 
ATOM     11  N   UNL     1      -1.911  -7.340   2.719  0.00  0.00    -0.304 N 
ATOM     12  C   UNL     1      -2.314  -8.517   1.935  0.00  0.00    +0.089 C 
ATOM     13  C   UNL     1      -3.768  -8.855   2.280  0.00  0.00    -0.059 C 
ATOM     14  N   UNL     1      -4.609  -7.670   2.070  0.00  0.00    +0.384 N 
ATOM     15  C   UNL     1      -4.218  -6.607   3.005  0.00  0.00    -0.059 C 
ATOM     16  C   UNL     1      -2.789  -6.160   2.700  0.00  0.00    +0.089 C 
ATOM     17  C   UNL     1       3.676  -7.789   7.979  0.00  0.00    +0.043 C 
ATOM     18  C   UNL     1       4.847  -7.802   6.973  0.00  0.00    +0.010 C 
ATOM     19  C   UNL     1       4.210  -7.126   5.742  0.00  0.00    +0.037 C 
ATOM     20  H   UNL     1      -4.495  -7.341   1.123  0.00  0.00    -0.081 HD
ENDROOT
BRANCH   1  21
ATOM     21  C   UNL     1       0.429  -6.646   1.431  0.00  0.00    +0.224 C 
BRANCH  21  23
ATOM     22  N   UNL     1       0.320  -4.584   0.069  0.00  0.00    -0.284 N 
ATOM     23  C   UNL     1       0.334  -5.148   1.293  0.00  0.00    +0.237 C 
ATOM     24  O   UNL     1       0.270  -4.451   2.283  0.00  0.00    -0.274 OA
ATOM     25  H   UNL     1       0.296  -5.143  -0.723  0.00  0.00    +0.155 HD
BRANCH  22  30
ATOM     26  C   UNL     1       0.400   1.065  -0.450  0.00  0.00    +0.044 C 
ATOM     27  C   UNL     1       0.379  -0.435  -0.312  0.00  0.00    -0.050 A 
ATOM     28  C   UNL     1       1.035  -1.041   0.744  0.00  0.00    +0.005 A 
ATOM     29  C   UNL     1       1.018  -2.416   0.873  0.00  0.00    +0.023 A 
ATOM     30  C   UNL     1       0.339  -3.190  -0.058  0.00  0.00    +0.033 A 
ATOM     31  C   UNL     1      -0.320  -2.579  -1.117  0.00  0.00    +0.023 A 
ATOM     32  C   UNL     1      -0.302  -1.204  -1.238  0.00  0.00    +0.005 A 
ENDBRANCH  22  30
ENDBRANCH  21  23
ENDBRANCH   1  21
BRANCH  14  33
ATOM     33  C   UNL     1      -6.017  -8.024   2.295  0.00  0.00    -0.048 C 
BRANCH  33  34
ATOM     34  C   UNL     1      -6.460  -9.011   1.246  0.00  0.00    -0.096 C 
ATOM     35  C   UNL     1      -6.437 -10.295   1.503  0.00  0.00    +0.005 C 
ATOM     36  C   UNL     1      -6.931  -8.520  -0.099  0.00  0.00    +0.036 C 
ENDBRANCH  33  34
ENDBRANCH  14  33
TORSDOF 5
