REMARK  Name = ZINC09138021
REMARK  8 active torsions:
REMARK  status: ('A' for Active; 'I' for Inactive)
REMARK    1  A    between atoms: C_1  and  N_2
REMARK    2  A    between atoms: C_10  and  C_12
REMARK    3  A    between atoms: C_12  and  C_14
REMARK    4  A    between atoms: C_12  and  N_65
REMARK    5  A    between atoms: C_14  and  N_15
REMARK    6  A    between atoms: C_16  and  C_18
REMARK    7  A    between atoms: N_20  and  C_21
REMARK    8  A    between atoms: C_24  and  N_27
REMARK                            x       y       z     vdW  Elec       q    Type
REMARK                         _______ _______ _______ _____ _____    ______ ____
ROOT
ATOM      1  C   UNL     1      -2.529   0.859   0.310  0.00  0.00    -0.020 C 
ENDROOT
BRANCH   1  11
ATOM      2  C   UNL     1       3.674   1.557  -0.670  0.00  0.00    +0.129 C 
ATOM      3  N   UNL     1       2.821   2.672  -0.234  0.00  0.00    -0.333 N 
ATOM      4  C   UNL     1       3.000   3.839  -1.101  0.00  0.00    +0.105 C 
ATOM      5  C   UNL     1       2.069   4.957  -0.616  0.00  0.00    +0.024 C 
ATOM      6  C   UNL     1       0.628   4.522  -0.889  0.00  0.00    +0.038 C 
ATOM      7  C   UNL     1       0.426   3.106  -0.412  0.00  0.00    -0.026 A 
ATOM      8  C   UNL     1       1.491   2.270  -0.125  0.00  0.00    +0.033 A 
ATOM      9  C   UNL     1       1.242   0.965   0.304  0.00  0.00    +0.023 A 
ATOM     10  C   UNL     1      -0.053   0.513   0.446  0.00  0.00    +0.004 A 
ATOM     11  C   UNL     1      -1.113   1.353   0.158  0.00  0.00    -0.059 A 
ATOM     12  C   UNL     1      -0.872   2.645  -0.264  0.00  0.00    +0.007 A 
ENDBRANCH   1  11
BRANCH   1  18
ATOM     13  C   UNL     1      -2.110  -0.643  -1.541  0.00  0.00    -0.078 C 
ATOM     14  C   UNL     1      -2.083  -2.117  -1.953  0.00  0.00    -0.019 C 
ATOM     15  C   UNL     1      -3.499  -2.693  -1.862  0.00  0.00    -0.004 C 
ATOM     16  C   UNL     1      -4.024  -2.516  -0.435  0.00  0.00    -0.019 C 
ATOM     17  C   UNL     1      -3.994  -1.030  -0.067  0.00  0.00    -0.078 C 
ATOM     18  N   UNL     1      -2.601  -0.543  -0.150  0.00  0.00    +0.385 N 
ATOM     19  H   UNL     1      -2.008  -1.123   0.455  0.00  0.00    -0.081 HD
ENDBRANCH   1  18
BRANCH   1  20
ATOM     20  C   UNL     1      -2.934   0.917   1.784  0.00  0.00    +0.094 C 
BRANCH  20  21
ATOM     21  N   UNL     1      -2.949   2.312   2.232  0.00  0.00    -0.309 N 
ATOM     22  C   UNL     1      -3.176   2.601   3.529  0.00  0.00    +0.299 C 
ATOM     23  O   UNL     1      -3.370   1.706   4.325  0.00  0.00    -0.265 OA
ATOM     24  H   UNL     1      -2.794   3.027   1.596  0.00  0.00    +0.149 HD
BRANCH  22  25
ATOM     25  C   UNL     1      -3.191   4.023   3.986  0.00  0.00    +0.303 C 
ATOM     26  O   UNL     1      -2.998   4.918   3.189  0.00  0.00    -0.265 OA
ATOM     27  N   UNL     1      -3.419   4.312   5.282  0.00  0.00    -0.278 N 
ATOM     28  H   UNL     1      -3.643   3.603   5.905  0.00  0.00    +0.155 HD
BRANCH  27  29
ATOM     29  C   UNL     1      -3.333   5.633   5.729  0.00  0.00    +0.034 A 
ATOM     30  C   UNL     1      -2.844   5.907   7.000  0.00  0.00    +0.025 A 
ATOM     31  C   UNL     1      -2.756   7.215   7.437  0.00  0.00    +0.034 A 
ATOM     32  C   UNL     1      -3.164   8.249   6.615  0.00  0.00    +0.126 A 
ATOM     33  C   UNL     1      -3.656   7.979   5.351  0.00  0.00    +0.034 A 
ATOM     34  C   UNL     1      -3.742   6.674   4.906  0.00  0.00    +0.025 A 
BRANCH  32  35
ATOM     35  N   UNL     1      -3.073   9.648   7.088  0.00  0.00    +0.056 N 
ATOM     36  O   UNL     1      -3.432  10.560   6.365  0.00  0.00    -0.126 OA
ATOM     37  O   UNL     1      -2.640   9.888   8.201  0.00  0.00    -0.126 OA
ENDBRANCH  32  35
ENDBRANCH  27  29
ENDBRANCH  22  25
ENDBRANCH  20  21
ENDBRANCH   1  20
TORSDOF 7
