REMARK  Name = ZINC06493936
REMARK  3 active torsions:
REMARK  status: ('A' for Active; 'I' for Inactive)
REMARK    1  A    between atoms: C_5  and  N_7
REMARK    2  A    between atoms: C_11  and  N_12
REMARK    3  A    between atoms: N_12  and  C_13
REMARK                            x       y       z     vdW  Elec       q    Type
REMARK                         _______ _______ _______ _____ _____    ______ ____
ROOT
ATOM      1  N   UNL     1       1.619  -2.112  -0.036  0.00  0.00    -0.215 N 
ATOM      2  C   UNL     1       1.412  -2.764   1.126  0.00  0.00    +0.263 C 
ATOM      3  O   UNL     1       1.163  -2.154   2.149  0.00  0.00    -0.269 OA
ATOM      4  C   UNL     1       1.494  -4.235   1.124  0.00  0.00    +0.113 C 
ATOM      5  C   UNL     1       1.293  -4.971   2.276  0.00  0.00    +0.086 C 
ATOM      6  C   UNL     1       1.800  -4.888  -0.162  0.00  0.00    +0.256 C 
ATOM      7  O   UNL     1       1.883  -6.099  -0.244  0.00  0.00    -0.270 OA
ATOM      8  N   UNL     1       1.984  -4.106  -1.246  0.00  0.00    -0.263 N 
ATOM      9  C   UNL     1       1.889  -2.771  -1.171  0.00  0.00    +0.151 C 
ATOM     10  S   UNL     1       2.131  -1.860  -2.600  0.00  0.00    -0.018 S 
ATOM     11  H   UNL     1       2.186  -4.520  -2.100  0.00  0.00    +0.157 HD
ENDROOT
BRANCH   1  16
ATOM     12  C   UNL     1       0.265   1.297  -0.333  0.00  0.00    +0.002 A 
ATOM     13  C   UNL     1       1.401   2.052  -0.104  0.00  0.00    +0.003 A 
ATOM     14  C   UNL     1       2.610   1.431   0.148  0.00  0.00    +0.040 A 
ATOM     15  C   UNL     1       2.686   0.050   0.172  0.00  0.00    +0.145 A 
ATOM     16  C   UNL     1       1.546  -0.712  -0.058  0.00  0.00    +0.078 A 
ATOM     17  C   UNL     1       0.335  -0.083  -0.311  0.00  0.00    +0.027 A 
ATOM     18  F   UNL     1       3.868  -0.558   0.417  0.00  0.00    -0.204 F 
ENDBRANCH   1  16
BRANCH   5  19
ATOM     19  N   UNL     1       1.211  -6.316   2.212  0.00  0.00    -0.346 N 
ATOM     20  H   UNL     1       1.213  -6.761   1.351  0.00  0.00    +0.146 HD
BRANCH  19  21
ATOM     21  C   UNL     1       1.119  -7.103   3.444  0.00  0.00    +0.070 C 
ATOM     22  C   UNL     1      -0.342  -7.183   3.891  0.00  0.00    +0.022 C 
ATOM     23  C   UNL     1      -0.438  -8.005   5.177  0.00  0.00    +0.002 C 
ATOM     24  C   UNL     1       0.095  -9.417   4.921  0.00  0.00    +0.000 C 
ATOM     25  C   UNL     1       1.556  -9.338   4.474  0.00  0.00    +0.002 C 
ATOM     26  C   UNL     1       1.651  -8.515   3.188  0.00  0.00    +0.022 C 
ENDBRANCH  19  21
ENDBRANCH   5  19
TORSDOF 3
