REMARK  Name = ZINC39665630
REMARK  13 active torsions:
REMARK  status: ('A' for Active; 'I' for Inactive)
REMARK    1  A    between atoms: C_1  and  C_2
REMARK    2  A    between atoms: C_2  and  C_4
REMARK    3  A    between atoms: C_2  and  O_31
REMARK    4  A    between atoms: C_4  and  N_5
REMARK    5  A    between atoms: C_6  and  C_8
REMARK    6  A    between atoms: C_19  and  C_21
REMARK    7  A    between atoms: C_24  and  O_29
REMARK    8  A    between atoms: C_26  and  O_27
REMARK    9  A    between atoms: O_27  and  C_28
REMARK   10  A    between atoms: O_29  and  C_30
REMARK   11  A    between atoms: O_31  and  C_32
REMARK   12  A    between atoms: C_35  and  O_38
REMARK   13  A    between atoms: O_38  and  C_39
REMARK                            x       y       z     vdW  Elec       q    Type
REMARK                         _______ _______ _______ _____ _____    ______ ____
ROOT
ATOM      1  C   UNL     1      -2.022  -7.350   1.276  0.00  0.00    +0.100 C 
ATOM      2  C   UNL     1      -2.229  -6.669   2.647  0.00  0.00    +0.121 C 
ATOM      3  N   UNL     1      -3.275  -5.648   2.404  0.00  0.00    -0.296 N 
ATOM      4  C   UNL     1      -4.229  -6.311   1.482  0.00  0.00    +0.115 C 
ATOM      5  C   UNL     1      -3.338  -7.116   0.516  0.00  0.00    -0.004 C 
ATOM      6  C   UNL     1      -3.997  -8.450   0.177  0.00  0.00    -0.010 C 
ATOM      7  C   UNL     1      -5.273  -8.193  -0.629  0.00  0.00    -0.082 C 
ATOM      8  N   UNL     1      -4.940  -7.463  -1.858  0.00  0.00    +0.379 N 
ATOM      9  C   UNL     1      -4.392  -6.143  -1.523  0.00  0.00    -0.082 C 
ATOM     10  C   UNL     1      -3.079  -6.313  -0.755  0.00  0.00    -0.010 C 
ATOM     11  C   UNL     1      -3.345  -4.400   2.908  0.00  0.00    +0.250 C 
ATOM     12  O   UNL     1      -4.314  -3.703   2.674  0.00  0.00    -0.270 OA
ATOM     13  H   UNL     1      -4.255  -7.986  -2.383  0.00  0.00    -0.086 HD
ATOM     14  H   UNL     1      -5.773  -7.349  -2.416  0.00  0.00    -0.086 HD
ENDROOT
BRANCH  11  15
ATOM     15  C   UNL     1      -2.247  -3.879   3.740  0.00  0.00    +0.079 A 
ATOM     16  C   UNL     1      -1.041  -3.490   3.148  0.00  0.00    +0.020 A 
ATOM     17  C   UNL     1      -0.018  -3.003   3.929  0.00  0.00    +0.046 A 
ATOM     18  C   UNL     1      -0.178  -2.898   5.307  0.00  0.00    +0.124 A 
ATOM     19  C   UNL     1      -1.369  -3.283   5.905  0.00  0.00    +0.092 A 
ATOM     20  C   UNL     1      -2.408  -3.767   5.129  0.00  0.00    +0.136 A 
BRANCH  20  21
ATOM     21  O   UNL     1      -3.576  -4.138   5.711  0.00  0.00    -0.494 OA
ATOM     22  C   UNL     1      -3.668  -3.996   7.130  0.00  0.00    +0.277 C 
ENDBRANCH  20  21
BRANCH  18  23
ATOM     23  O   UNL     1       0.837  -2.418   6.070  0.00  0.00    -0.495 OA
ATOM     24  C   UNL     1       1.994  -1.938   5.383  0.00  0.00    +0.277 C 
ENDBRANCH  18  23
ENDBRANCH  11  15
BRANCH   1  26
ATOM     25  N   UNL     1      -0.205  -7.407  -0.402  0.00  0.00    -0.312 N 
ATOM     26  C   UNL     1      -0.871  -6.712   0.541  0.00  0.00    +0.218 C 
ATOM     27  O   UNL     1      -0.544  -5.573   0.799  0.00  0.00    -0.275 OA
ATOM     28  H   UNL     1      -0.422  -8.339  -0.561  0.00  0.00    +0.149 HD
BRANCH  25  29
ATOM     29  C   UNL     1       0.846  -6.755  -1.187  0.00  0.00    +0.148 C 
BRANCH  29  31
ATOM     30  C   UNL     1       2.357  -6.998  -3.161  0.00  0.00    +0.053 C 
ATOM     31  C   UNL     1       1.354  -7.720  -2.260  0.00  0.00    +0.187 C 
BRANCH  31  32
ATOM     32  O   UNL     1       1.992  -8.835  -1.635  0.00  0.00    -0.488 OA
BRANCH  32  33
ATOM     33  C   UNL     1       2.032  -9.998  -2.340  0.00  0.00    +0.121 A 
ATOM     34  C   UNL     1       1.582 -10.030  -3.651  0.00  0.00    +0.049 A 
ATOM     35  C   UNL     1       1.623 -11.211  -4.367  0.00  0.00    +0.049 A 
ATOM     36  C   UNL     1       2.115 -12.364  -3.774  0.00  0.00    +0.120 A 
ATOM     37  C   UNL     1       2.566 -12.332  -2.463  0.00  0.00    +0.049 A 
ATOM     38  C   UNL     1       2.529 -11.150  -1.748  0.00  0.00    +0.049 A 
BRANCH  36  39
ATOM     39  O   UNL     1       2.155 -13.527  -4.478  0.00  0.00    -0.495 OA
ATOM     40  C   UNL     1       2.674 -14.675  -3.805  0.00  0.00    +0.277 C 
ENDBRANCH  36  39
ENDBRANCH  32  33
ENDBRANCH  31  32
ENDBRANCH  29  31
ENDBRANCH  25  29
ENDBRANCH   1  26
TORSDOF 9
