REMARK  Name = ZINC39942280
REMARK  7 active torsions:
REMARK  status: ('A' for Active; 'I' for Inactive)
REMARK    1  A    between atoms: C_1  and  C_2
REMARK    2  A    between atoms: C_2  and  C_27
REMARK    3  A    between atoms: N_5  and  C_9
REMARK    4  A    between atoms: C_11  and  C_21
REMARK    5  A    between atoms: C_27  and  C_28
REMARK    6  A    between atoms: C_33  and  O_34
REMARK    7  A    between atoms: O_34  and  C_35
REMARK                            x       y       z     vdW  Elec       q    Type
REMARK                         _______ _______ _______ _____ _____    ______ ____
ROOT
ATOM      1  C   UNL     1      -0.082   1.543  -0.019  0.00  0.00    +0.042 C 
ATOM      2  C   UNL     1      -0.045   0.013  -0.022  0.00  0.00    +0.114 C 
ATOM      3  C   UNL     1      -1.443  -0.554   0.125  0.00  0.00    +0.247 C 
ATOM      4  O   UNL     1      -2.379  -0.401  -0.630  0.00  0.00    -0.273 OA
ATOM      5  N   UNL     1      -1.429  -1.265   1.270  0.00  0.00    -0.208 N 
ATOM      6  C   UNL     1      -0.229  -1.226   1.860  0.00  0.00    +0.310 C 
ATOM      7  O   UNL     1       0.029  -1.792   2.905  0.00  0.00    -0.252 OA
ATOM      8  N   UNL     1       0.661  -0.491   1.168  0.00  0.00    -0.285 N 
ATOM      9  H   UNL     1       1.586  -0.326   1.407  0.00  0.00    +0.151 HD
ENDROOT
BRANCH   5  10
ATOM     10  C   UNL     1      -2.585  -1.990   1.803  0.00  0.00    +0.203 C 
ATOM     11  C   UNL     1      -2.245  -3.468   1.809  0.00  0.00    -0.002 C 
ATOM     12  C   UNL     1      -2.306  -4.128   3.040  0.00  0.00    +0.002 A 
ATOM     13  C   UNL     1      -2.005  -5.503   3.136  0.00  0.00    +0.010 A 
ATOM     14  C   UNL     1      -2.072  -6.120   4.346  0.00  0.00    +0.001 A 
ATOM     15  C   UNL     1      -2.433  -5.423   5.497  0.00  0.00    +0.002 A 
ATOM     16  C   UNL     1      -2.735  -4.095   5.467  0.00  0.00    +0.024 A 
ATOM     17  C   UNL     1      -2.686  -3.391   4.250  0.00  0.00    +0.041 A 
ATOM     18  N   UNL     1      -2.983  -2.088   4.222  0.00  0.00    -0.283 N 
ATOM     19  C   UNL     1      -2.960  -1.359   3.124  0.00  0.00    +0.243 C 
ATOM     20  O   UNL     1      -3.241  -0.176   3.175  0.00  0.00    -0.273 OA
ATOM     21  H   UNL     1      -3.228  -1.655   5.055  0.00  0.00    +0.155 HD
BRANCH  11  22
ATOM     22  C   UNL     1      -1.881  -4.150   0.620  0.00  0.00    -0.019 A 
ATOM     23  C   UNL     1      -2.805  -4.280  -0.430  0.00  0.00    +0.008 A 
ATOM     24  C   UNL     1      -2.442  -4.944  -1.581  0.00  0.00    +0.001 A 
ATOM     25  C   UNL     1      -1.171  -5.483  -1.704  0.00  0.00    +0.000 A 
ATOM     26  C   UNL     1      -0.253  -5.360  -0.673  0.00  0.00    +0.001 A 
ATOM     27  C   UNL     1      -0.594  -4.694   0.483  0.00  0.00    +0.008 A 
ENDBRANCH  11  22
ENDBRANCH   5  10
BRANCH   2  28
ATOM     28  C   UNL     1       0.618  -0.504  -1.300  0.00  0.00    +0.073 C 
BRANCH  28  29
ATOM     29  C   UNL     1       2.060  -0.069  -1.331  0.00  0.00    -0.003 A 
ATOM     30  C   UNL     1       2.420   1.086  -1.999  0.00  0.00    +0.007 A 
ATOM     31  C   UNL     1       3.743   1.486  -2.027  0.00  0.00    +0.000 A 
ATOM     32  C   UNL     1       4.709   0.732  -1.387  0.00  0.00    +0.004 A 
ATOM     33  C   UNL     1       4.354  -0.423  -0.717  0.00  0.00    +0.046 A 
ATOM     34  C   UNL     1       3.027  -0.824  -0.682  0.00  0.00    +0.123 A 
BRANCH  34  35
ATOM     35  O   UNL     1       2.674  -1.956  -0.019  0.00  0.00    -0.495 OA
ATOM     36  C   UNL     1       3.722  -2.683   0.625  0.00  0.00    +0.277 C 
ENDBRANCH  34  35
ENDBRANCH  28  29
ENDBRANCH   2  28
TORSDOF 5
