REMARK  Name = ZINC48264288
REMARK  4 active torsions:
REMARK  status: ('A' for Active; 'I' for Inactive)
REMARK    1  A    between atoms: C_1  and  C_2
REMARK    2  A    between atoms: C_2  and  C_3
REMARK    3  A    between atoms: N_15  and  C_16
REMARK    4  A    between atoms: C_16  and  C_17
REMARK                            x       y       z     vdW  Elec       q    Type
REMARK                         _______ _______ _______ _____ _____    ______ ____
ROOT
ATOM      1  C   UNL     1      -1.438  -0.538   0.012  0.00  0.00    +0.108 C 
ATOM      2  C   UNL     1      -1.429  -2.061  -0.098  0.00  0.00    -0.017 A 
ATOM      3  C   UNL     1      -1.133  -2.740  -1.278  0.00  0.00    +0.013 A 
ATOM      4  C   UNL     1      -1.140  -4.093  -1.301  0.00  0.00    +0.046 A 
ATOM      5  S   UNL     1      -1.576  -4.487   0.386  0.00  0.00    -0.101 S 
ATOM      6  C   UNL     1      -1.718  -2.825   0.990  0.00  0.00    -0.004 A 
ATOM      7  C   UNL     1      -2.076  -2.366   2.366  0.00  0.00    +0.062 C 
ATOM      8  C   UNL     1      -1.684  -0.887   2.509  0.00  0.00    +0.115 C 
ATOM      9  N   UNL     1      -2.085  -0.181   1.282  0.00  0.00    -0.278 N 
ATOM     10  C   UNL     1      -3.031   0.777   1.321  0.00  0.00    +0.303 C 
ATOM     11  O   UNL     1      -3.628   1.000   2.357  0.00  0.00    -0.253 OA
ATOM     12  N   UNL     1      -3.316   1.489   0.213  0.00  0.00    -0.294 N 
ATOM     13  H   UNL     1      -2.893   1.264  -0.630  0.00  0.00    +0.151 HD
ENDROOT
BRANCH   1  15
ATOM     14  C   UNL     1      -0.022   1.521  -0.001  0.00  0.00    +0.006 C 
ATOM     15  C   UNL     1      -0.002  -0.009  -0.005  0.00  0.00    +0.024 C 
ENDBRANCH   1  15
BRANCH  12  16
ATOM     16  C   UNL     1      -4.266   2.602   0.281  0.00  0.00    +0.163 C 
BRANCH  16  17
ATOM     17  C   UNL     1      -4.407   3.227  -1.083  0.00  0.00    +0.080 A 
ATOM     18  C   UNL     1      -5.398   2.928  -2.024  0.00  0.00    +0.045 A 
ATOM     19  C   UNL     1      -5.182   3.697  -3.116  0.00  0.00    +0.105 A 
ATOM     20  N   UNL     1      -4.092   4.455  -2.875  0.00  0.00    -0.284 N 
ATOM     21  H   UNL     1      -3.702   5.103  -3.483  0.00  0.00    +0.188 HD
ATOM     22  N   UNL     1      -3.626   4.146  -1.591  0.00  0.00    -0.177 NA
ENDBRANCH  16  17
ENDBRANCH  12  16
TORSDOF 3
