REMARK  Name = ZINC39552439
REMARK  7 active torsions:
REMARK  status: ('A' for Active; 'I' for Inactive)
REMARK    1  A    between atoms: C_4  and  C_7
REMARK    2  A    between atoms: C_11  and  C_13
REMARK    3  A    between atoms: C_13  and  N_14
REMARK    4  A    between atoms: C_15  and  C_17
REMARK    5  A    between atoms: C_17  and  C_18
REMARK    6  A    between atoms: N_25  and  C_26
REMARK    7  A    between atoms: C_26  and  C_27
REMARK                            x       y       z     vdW  Elec       q    Type
REMARK                         _______ _______ _______ _____ _____    ______ ____
ROOT
ATOM      1  N   UNL     1       3.634  -4.464  -1.265  0.00  0.00    -0.314 N 
ATOM      2  C   UNL     1       2.981  -5.169  -2.209  0.00  0.00    +0.212 C 
ATOM      3  O   UNL     1       2.409  -4.593  -3.110  0.00  0.00    -0.276 OA
ATOM      4  H   UNL     1       4.091  -4.925  -0.544  0.00  0.00    +0.149 HD
ENDROOT
BRANCH   1   5
ATOM      5  C   UNL     1       3.653  -3.000  -1.326  0.00  0.00    +0.119 C 
BRANCH   5  10
ATOM      6  C   UNL     1       4.390  -0.936  -0.113  0.00  0.00    +0.080 C 
ATOM      7  N   UNL     1       5.621  -0.525  -0.248  0.00  0.00    -0.153 NA
ATOM      8  N   UNL     1       6.517  -1.581  -0.374  0.00  0.00    -0.161 NA
ATOM      9  C   UNL     1       5.933  -2.734  -0.329  0.00  0.00    +0.119 C 
ATOM     10  C   UNL     1       4.456  -2.451  -0.145  0.00  0.00    +0.100 C 
BRANCH   6  14
ATOM     11  C   UNL     1       0.924   1.466   0.339  0.00  0.00    +0.000 A 
ATOM     12  C   UNL     1       2.164   2.066   0.201  0.00  0.00    +0.001 A 
ATOM     13  C   UNL     1       3.295   1.291   0.053  0.00  0.00    +0.010 A 
ATOM     14  C   UNL     1       3.188  -0.103   0.044  0.00  0.00    -0.001 A 
ATOM     15  C   UNL     1       1.931  -0.701   0.185  0.00  0.00    +0.010 A 
ATOM     16  C   UNL     1       0.809   0.087   0.331  0.00  0.00    +0.001 A 
ENDBRANCH   6  14
ENDBRANCH   5  10
ENDBRANCH   1   5
BRANCH   2  17
ATOM     17  C   UNL     1       2.961  -6.675  -2.146  0.00  0.00    +0.089 C 
BRANCH  17  18
ATOM     18  C   UNL     1       2.283  -7.229  -3.400  0.00  0.00    +0.028 C 
ATOM     19  C   UNL     1       0.901  -6.651  -3.516  0.00  0.00    +0.200 C 
ATOM     20  O   UNL     1       0.225  -6.555  -2.514  0.00  0.00    -0.278 OA
ATOM     21  N   UNL     1       0.387  -6.238  -4.680  0.00  0.00    -0.318 N 
ATOM     22  C   UNL     1       1.135  -6.287  -5.933  0.00  0.00    +0.085 C 
ATOM     23  C   UNL     1       2.326  -7.237  -5.792  0.00  0.00    -0.058 C 
ATOM     24  N   UNL     1       3.078  -6.872  -4.582  0.00  0.00    +0.392 N 
ATOM     25  H   UNL     1      -0.519  -5.891  -4.692  0.00  0.00    +0.149 HD
ATOM     26  H   UNL     1       3.257  -5.879  -4.580  0.00  0.00    -0.080 HD
BRANCH  24  27
ATOM     27  C   UNL     1       4.351  -7.604  -4.558  0.00  0.00    -0.034 C 
BRANCH  27  28
ATOM     28  C   UNL     1       5.226  -7.129  -5.689  0.00  0.00    -0.027 A 
ATOM     29  C   UNL     1       6.137  -6.125  -5.699  0.00  0.00    +0.009 A 
ATOM     30  C   UNL     1       6.833  -5.864  -6.865  0.00  0.00    +0.008 A 
ATOM     31  C   UNL     1       6.583  -6.618  -7.963  0.00  0.00    +0.045 A 
ATOM     32  S   UNL     1       5.336  -7.745  -7.361  0.00  0.00    -0.103 S 
ENDBRANCH  27  28
ENDBRANCH  24  27
ENDBRANCH  17  18
ENDBRANCH   2  17
TORSDOF 7
