REMARK  Name = ZINC52566171
REMARK  8 active torsions:
REMARK  status: ('A' for Active; 'I' for Inactive)
REMARK    1  A    between atoms: C_1  and  C_2
REMARK    2  A    between atoms: C_6  and  C_13
REMARK    3  A    between atoms: C_15  and  O_19
REMARK    4  A    between atoms: O_19  and  C_20
REMARK    5  A    between atoms: C_20  and  C_21
REMARK    6  A    between atoms: C_21  and  C_23
REMARK    7  A    between atoms: C_21  and  N_33
REMARK    8  A    between atoms: C_23  and  C_24
REMARK                            x       y       z     vdW  Elec       q    Type
REMARK                         _______ _______ _______ _____ _____    ______ ____
ROOT
ATOM      1  C   UNL     1       1.183  -0.852  -4.925  0.00  0.00    +0.004 A 
ATOM      2  C   UNL     1       2.055  -1.455  -5.835  0.00  0.00    +0.057 A 
ATOM      3  C   UNL     1       1.801  -1.299  -7.191  0.00  0.00    +0.139 A 
ATOM      4  C   UNL     1       0.699  -0.555  -7.592  0.00  0.00    +0.156 A 
ATOM      5  N   UNL     1      -0.103   0.001  -6.705  0.00  0.00    -0.259 NA
ATOM      6  C   UNL     1       0.097  -0.126  -5.409  0.00  0.00    +0.119 A 
ENDROOT
BRANCH   1  11
ATOM      7  C   UNL     1      -0.019   1.526   0.010  0.00  0.00    +0.022 C 
ATOM      8  C   UNL     1       0.002  -0.004   0.002  0.00  0.00    +0.104 C 
ATOM      9  C   UNL     1       0.746  -0.517  -1.210  0.00  0.00    -0.014 A 
ATOM     10  C   UNL     1       0.531  -0.387  -2.561  0.00  0.00    +0.014 A 
ATOM     11  C   UNL     1       1.408  -0.987  -3.464  0.00  0.00    -0.016 A 
ATOM     12  C   UNL     1       2.497  -1.714  -2.986  0.00  0.00    +0.010 A 
ATOM     13  C   UNL     1       2.705  -1.840  -1.631  0.00  0.00    +0.024 A 
ATOM     14  C   UNL     1       1.830  -1.241  -0.726  0.00  0.00    +0.037 A 
ATOM     15  N   UNL     1       1.833  -1.229   0.669  0.00  0.00    -0.285 N 
ATOM     16  C   UNL     1       0.799  -0.530   1.177  0.00  0.00    +0.224 C 
ATOM     17  O   UNL     1       0.553  -0.354   2.351  0.00  0.00    -0.275 OA
ATOM     18  H   UNL     1       2.502  -1.674   1.212  0.00  0.00    +0.155 HD
ENDBRANCH   1  11
BRANCH   3  19
ATOM     19  O   UNL     1       2.620  -1.866  -8.115  0.00  0.00    -0.492 OA
BRANCH  19  20
ATOM     20  C   UNL     1       2.291  -1.659  -9.490  0.00  0.00    +0.213 C 
BRANCH  20  21
ATOM     21  C   UNL     1       3.319  -2.368 -10.373  0.00  0.00    -0.033 C 
BRANCH  21  22
ATOM     22  N   UNL     1       3.226  -3.819 -10.166  0.00  0.00    +0.382 N 
ATOM     23  H   UNL     1       3.410  -4.033  -9.197  0.00  0.00    -0.089 HD
ATOM     24  H   UNL     1       2.299  -4.135 -10.409  0.00  0.00    -0.089 HD
ATOM     25  H   UNL     1       3.904  -4.287 -10.748  0.00  0.00    -0.089 HD
ENDBRANCH  21  22
BRANCH  21  26
ATOM     26  C   UNL     1       3.039  -2.044 -11.842  0.00  0.00    +0.020 C 
BRANCH  26  27
ATOM     27  C   UNL     1       4.123  -2.640 -12.703  0.00  0.00    -0.043 C 
ATOM     28  C   UNL     1       4.090  -3.833 -13.341  0.00  0.00    -0.001 A 
ATOM     29  C   UNL     1       3.077  -4.891 -13.419  0.00  0.00    +0.010 A 
ATOM     30  C   UNL     1       3.338  -5.997 -14.153  0.00  0.00    +0.001 A 
ATOM     31  C   UNL     1       4.550  -6.157 -14.839  0.00  0.00    +0.002 A 
ATOM     32  C   UNL     1       5.530  -5.228 -14.815  0.00  0.00    +0.026 A 
ATOM     33  C   UNL     1       5.362  -4.026 -14.074  0.00  0.00    +0.043 A 
ATOM     34  N   UNL     1       6.149  -2.993 -13.897  0.00  0.00    -0.380 N 
ATOM     35  C   UNL     1       5.463  -2.024 -13.035  0.00  0.00    +0.144 C 
ATOM     36  H   UNL     1       7.036  -2.885 -14.276  0.00  0.00    +0.160 HD
ENDBRANCH  26  27
ENDBRANCH  21  26
ENDBRANCH  20  21
ENDBRANCH  19  20
ENDBRANCH   3  19
TORSDOF 7
