REMARK  Name = ZINC25492000
REMARK  5 active torsions:
REMARK  status: ('A' for Active; 'I' for Inactive)
REMARK    1  A    between atoms: C_4  and  C_7
REMARK    2  A    between atoms: C_7  and  S_8
REMARK    3  A    between atoms: S_8  and  C_9
REMARK    4  A    between atoms: C_12  and  N_21
REMARK    5  A    between atoms: C_13  and  N_15
REMARK                            x       y       z     vdW  Elec       q    Type
REMARK                         _______ _______ _______ _____ _____    ______ ____
ROOT
ATOM      1  C   UNL     1       5.718  -1.803  -1.697  0.00  0.00    +0.192 A 
ATOM      2  N   UNL     1       5.783  -2.649  -0.680  0.00  0.00    -0.205 NA
ATOM      3  C   UNL     1       6.900  -3.325  -0.424  0.00  0.00    +0.144 A 
ATOM      4  C   UNL     1       8.012  -3.132  -1.246  0.00  0.00    +0.114 A 
ATOM      5  C   UNL     1       7.904  -2.232  -2.307  0.00  0.00    +0.149 A 
ATOM      6  N   UNL     1       6.751  -1.597  -2.501  0.00  0.00    -0.205 NA
ATOM      7  N   UNL     1       6.959  -4.210   0.644  0.00  0.00    -0.342 N 
ATOM      8  H   UNL     1       7.886  -4.765   0.848  0.00  0.00    +0.144 HD
ATOM      9  H   UNL     1       6.078  -4.356   1.286  0.00  0.00    +0.144 HD
ENDROOT
BRANCH   5  10
ATOM     10  N   UNL     1       8.983  -2.006  -3.151  0.00  0.00    -0.314 N 
ATOM     11  C   UNL     1      10.162  -1.570  -2.393  0.00  0.00    +0.106 C 
ATOM     12  C   UNL     1      11.367  -1.472  -3.333  0.00  0.00    +0.019 C 
ATOM     13  C   UNL     1      11.056  -0.472  -4.449  0.00  0.00    +0.003 C 
ATOM     14  C   UNL     1       9.796  -0.923  -5.193  0.00  0.00    +0.019 C 
ATOM     15  C   UNL     1       8.637  -1.037  -4.199  0.00  0.00    +0.106 C 
ENDBRANCH   5  10
BRANCH   4  16
ATOM     16  N   UNL     1       9.212  -3.827  -1.010  0.00  0.00    -0.283 N 
ATOM     17  C   UNL     1       9.807  -4.504  -2.012  0.00  0.00    +0.330 C 
ATOM     18  O   UNL     1       9.361  -4.437  -3.138  0.00  0.00    -0.279 OA
ATOM     19  H   UNL     1       9.665  -3.819  -0.007  0.00  0.00    +0.155 HD
ENDBRANCH   4  16
BRANCH   1  20
ATOM     20  S   UNL     1       4.215  -0.933  -1.994  0.00  0.00    -0.081 S 
BRANCH  20  21
ATOM     21  C   UNL     1       3.200  -1.590  -0.647  0.00  0.00    +0.112 C 
BRANCH  21  25
ATOM     22  C   UNL     1      -0.688   0.170  -0.803  0.00  0.00    +0.000 A 
ATOM     23  C   UNL     1       0.313   0.771  -0.064  0.00  0.00    +0.000 A 
ATOM     24  C   UNL     1       1.572   0.202  -0.014  0.00  0.00    +0.004 A 
ATOM     25  C   UNL     1       1.829  -0.969  -0.702  0.00  0.00    -0.037 A 
ATOM     26  C   UNL     1       0.827  -1.571  -1.441  0.00  0.00    +0.004 A 
ATOM     27  C   UNL     1      -0.432  -1.001  -1.491  0.00  0.00    +0.000 A 
ENDBRANCH  21  25
ENDBRANCH  20  21
ENDBRANCH   1  20
TORSDOF 5
