REMARK  Name = ZINC39467208
REMARK  7 active torsions:
REMARK  status: ('A' for Active; 'I' for Inactive)
REMARK    1  A    between atoms: C_1  and  O_2
REMARK    2  A    between atoms: O_2  and  C_3
REMARK    3  A    between atoms: P_12  and  C_31
REMARK    4  A    between atoms: C_20  and  S_21
REMARK    5  A    between atoms: S_21  and  O_24
REMARK    6  A    between atoms: O_24  and  C_25
REMARK    7  A    between atoms: C_36  and  O_37
REMARK                            x       y       z     vdW  Elec       q    Type
REMARK                         _______ _______ _______ _____ _____    ______ ____
ROOT
ATOM      1  C   UNL     1      -0.011  -0.686  -1.331  0.00  0.00    +0.144 C 
ATOM      2  C   UNL     1       0.354  -0.011  -2.423  0.00  0.00    +0.024 C 
ATOM      3  C   UNL     1       0.806  -0.767  -3.650  0.00  0.00    +0.019 C 
ATOM      4  C   UNL     1      -0.428  -1.239  -4.420  0.00  0.00    -0.002 C 
ATOM      5  C   UNL     1      -0.018  -2.123  -5.603  0.00  0.00    -0.020 C 
ATOM      6  C   UNL     1      -1.308  -2.550  -6.315  0.00  0.00    +0.157 C 
ATOM      7  O   UNL     1      -0.981  -3.344  -7.470  0.00  0.00    -0.316 OA
ATOM      8  P   UNL     1       0.048  -4.588  -7.265  0.00  0.00    +0.291 P 
ATOM      9  O   UNL     1       0.688  -4.942  -8.551  0.00  0.00    -0.269 OA
ATOM     10  N   UNL     1       1.179  -4.041  -6.194  0.00  0.00    -0.288 NA
ATOM     11  N   UNL     1       0.738  -3.284  -5.129  0.00  0.00    +0.398 N 
ATOM     12  C   UNL     1       1.950  -2.850  -4.416  0.00  0.00    -0.046 C 
ATOM     13  C   UNL     1       1.619  -1.987  -3.205  0.00  0.00    +0.006 C 
ATOM     14  C   UNL     1       0.820  -2.789  -2.213  0.00  0.00    +0.009 C 
ATOM     15  C   UNL     1       0.029  -2.162  -1.336  0.00  0.00    +0.165 C 
ATOM     16  H   UNL     1       2.120  -4.248  -6.310  0.00  0.00    +0.111 HD
ATOM     17  H   UNL     1       0.156  -3.846  -4.525  0.00  0.00    -0.055 HD
ENDROOT
BRANCH   8  18
ATOM     18  C   UNL     1      -0.828  -6.022  -6.583  0.00  0.00    +0.091 A 
ATOM     19  C   UNL     1      -0.927  -6.186  -5.215  0.00  0.00    +0.018 A 
ATOM     20  C   UNL     1      -1.594  -7.279  -4.694  0.00  0.00    +0.001 A 
ATOM     21  C   UNL     1      -2.164  -8.212  -5.542  0.00  0.00    +0.004 A 
ATOM     22  C   UNL     1      -2.067  -8.053  -6.910  0.00  0.00    +0.046 A 
ATOM     23  C   UNL     1      -1.403  -6.954  -7.435  0.00  0.00    +0.131 A 
BRANCH  23  24
ATOM     24  O   UNL     1      -1.312  -6.792  -8.781  0.00  0.00    -0.506 OA
ATOM     25  H   UNL     1      -0.532  -7.207  -9.175  0.00  0.00    +0.292 HD
ENDBRANCH  23  24
ENDBRANCH   8  18
BRANCH  15  26
ATOM     26  S   UNL     1      -0.935  -3.080  -0.181  0.00  0.00    +0.154 S 
ATOM     27  O   UNL     1      -2.034  -2.255   0.177  0.00  0.00    -0.131 OA
ATOM     28  O   UNL     1      -1.104  -4.378  -0.735  0.00  0.00    -0.131 OA
BRANCH  26  29
ATOM     29  O   UNL     1      -0.091  -3.250   1.074  0.00  0.00    -0.342 OA
BRANCH  29  30
ATOM     30  C   UNL     1      -0.010  -2.131   1.841  0.00  0.00    +0.157 A 
ATOM     31  C   UNL     1       1.073  -1.275   1.709  0.00  0.00    +0.048 A 
ATOM     32  C   UNL     1       1.152  -0.138   2.490  0.00  0.00    +0.004 A 
ATOM     33  C   UNL     1       0.153   0.146   3.403  0.00  0.00    +0.000 A 
ATOM     34  C   UNL     1      -0.927  -0.707   3.537  0.00  0.00    +0.004 A 
ATOM     35  C   UNL     1      -1.014  -1.841   2.754  0.00  0.00    +0.048 A 
ENDBRANCH  29  30
ENDBRANCH  26  29
ENDBRANCH  15  26
BRANCH   1  37
ATOM     36  C   UNL     1      -0.491   1.405  -0.308  0.00  0.00    +0.277 C 
ATOM     37  O   UNL     1      -0.411  -0.018  -0.217  0.00  0.00    -0.493 OA
ENDBRANCH   1  37
TORSDOF 6
