REMARK  Name = ZINC01895672
REMARK  7 active torsions:
REMARK  status: ('A' for Active; 'I' for Inactive)
REMARK    1  A    between atoms: C_3  and  C_23
REMARK    2  A    between atoms: C_6  and  C_7
REMARK    3  A    between atoms: C_7  and  S_8
REMARK    4  A    between atoms: S_8  and  C_9
REMARK    5  A    between atoms: N_25  and  C_26
REMARK    6  A    between atoms: C_26  and  C_27
REMARK    7  A    between atoms: C_27  and  O_28
REMARK                            x       y       z     vdW  Elec       q    Type
REMARK                         _______ _______ _______ _____ _____    ______ ____
ROOT
ATOM      1  S   UNL     1      -2.083   2.044   1.740  0.00  0.00    -0.081 S 
ENDROOT
BRANCH   1   2
ATOM      2  C   UNL     1      -3.473   3.090   1.456  0.00  0.00    +0.191 A 
ATOM      3  N   UNL     1      -3.870   3.322   0.210  0.00  0.00    -0.207 NA
ATOM      4  C   UNL     1      -4.905   4.098  -0.064  0.00  0.00    +0.129 A 
ATOM      5  C   UNL     1      -5.621   4.707   1.005  0.00  0.00    +0.051 A 
ATOM      6  C   UNL     1      -6.784   5.595   0.939  0.00  0.00    -0.025 A 
ATOM      7  C   UNL     1      -7.280   6.042   2.110  0.00  0.00    -0.004 A 
ATOM      8  S   UNL     1      -6.245   5.321   3.356  0.00  0.00    -0.073 S 
ATOM      9  C   UNL     1      -5.144   4.417   2.298  0.00  0.00    +0.115 A 
ATOM     10  N   UNL     1      -4.105   3.627   2.491  0.00  0.00    -0.215 NA
ATOM     11  C   UNL     1      -8.453   6.952   2.311  0.00  0.00    +0.043 C 
ATOM     12  C   UNL     1      -8.793   7.609   0.966  0.00  0.00    +0.005 C 
ATOM     13  C   UNL     1      -8.835   6.524  -0.114  0.00  0.00    +0.005 C 
ATOM     14  C   UNL     1      -7.422   6.006  -0.385  0.00  0.00    +0.037 C 
ATOM     15  N   UNL     1      -5.289   4.314  -1.375  0.00  0.00    -0.343 N 
ATOM     16  H   UNL     1      -4.965   3.729  -2.078  0.00  0.00    +0.144 HD
ATOM     17  H   UNL     1      -5.882   5.050  -1.592  0.00  0.00    +0.144 HD
ENDBRANCH   1   2
BRANCH   1  18
ATOM     18  C   UNL     1      -1.657   1.619   0.033  0.00  0.00    +0.112 C 
BRANCH  18  24
ATOM     19  C   UNL     1       0.815   1.236  -0.036  0.00  0.00    +0.005 A 
ATOM     20  C   UNL     1       1.914   0.403  -0.047  0.00  0.00    +0.013 A 
ATOM     21  C   UNL     1       1.738  -0.981   0.006  0.00  0.00    +0.037 A 
ATOM     22  C   UNL     1       0.449  -1.512   0.070  0.00  0.00    +0.013 A 
ATOM     23  C   UNL     1      -0.642  -0.668   0.081  0.00  0.00    +0.005 A 
ATOM     24  C   UNL     1      -0.460   0.703   0.028  0.00  0.00    -0.037 A 
BRANCH  21  25
ATOM     25  C   UNL     1       2.912  -1.879  -0.004  0.00  0.00    +0.244 C 
ATOM     26  O   UNL     1       2.756  -3.084   0.043  0.00  0.00    -0.270 OA
ATOM     27  N   UNL     1       4.156  -1.363  -0.066  0.00  0.00    -0.309 N 
ATOM     28  H   UNL     1       4.280  -0.402  -0.104  0.00  0.00    +0.149 HD
BRANCH  27  29
ATOM     29  C   UNL     1       5.319  -2.254  -0.077  0.00  0.00    +0.132 C 
BRANCH  29  30
ATOM     30  C   UNL     1       6.599  -1.419  -0.151  0.00  0.00    +0.174 C 
BRANCH  30  31
ATOM     31  O   UNL     1       6.730  -0.641   1.040  0.00  0.00    -0.393 OA
ATOM     32  H   UNL     1       7.522  -0.086   1.062  0.00  0.00    +0.209 HD
ENDBRANCH  30  31
ENDBRANCH  29  30
ENDBRANCH  27  29
ENDBRANCH  21  25
ENDBRANCH  18  24
ENDBRANCH   1  18
TORSDOF 7
