REMARK  Name = ZINC64058523
REMARK  10 active torsions:
REMARK  status: ('A' for Active; 'I' for Inactive)
REMARK    1  A    between atoms: C_1  and  O_2
REMARK    2  A    between atoms: O_2  and  C_3
REMARK    3  A    between atoms: C_3  and  C_5
REMARK    4  A    between atoms: C_6  and  O_28
REMARK    5  A    between atoms: N_15  and  C_18
REMARK    6  A    between atoms: C_18  and  C_19
REMARK    7  A    between atoms: O_28  and  C_29
REMARK    8  A    between atoms: C_29  and  C_30
REMARK    9  A    between atoms: C_30  and  C_31
REMARK   10  A    between atoms: C_31  and  C_32
REMARK                            x       y       z     vdW  Elec       q    Type
REMARK                         _______ _______ _______ _____ _____    ______ ____
ROOT
ATOM      1  C   UNL     1      -1.492  -2.383  -0.111  0.00  0.00    +0.095 C 
ATOM      2  C   UNL     1      -2.591  -3.109   0.107  0.00  0.00    +0.118 C 
ATOM      3  C   UNL     1      -2.524  -4.598   0.283  0.00  0.00    +0.170 C 
ATOM      4  C   UNL     1      -1.147  -5.025   0.682  0.00  0.00    +0.223 C 
ATOM      5  O   UNL     1      -1.017  -6.105   1.219  0.00  0.00    -0.275 OA
ATOM      6  N   UNL     1      -0.047  -4.281   0.480  0.00  0.00    -0.292 N 
ATOM      7  C   UNL     1      -0.124  -2.982  -0.208  0.00  0.00    +0.118 C 
ATOM      8  C   UNL     1       0.913  -2.031   0.349  0.00  0.00    +0.043 C 
ATOM      9  C   UNL     1       2.254  -2.235  -0.361  0.00  0.00    +0.087 C 
ATOM     10  N   UNL     1       2.991  -3.321   0.143  0.00  0.00    -0.297 NA
ATOM     11  C   UNL     1       2.339  -4.630  -0.065  0.00  0.00    +0.103 C 
ATOM     12  C   UNL     1       1.236  -4.838   0.959  0.00  0.00    +0.123 C 
ENDROOT
BRANCH   1  13
ATOM     13  C   UNL     1      -1.628  -0.983  -0.263  0.00  0.00    +0.340 C 
ATOM     14  O   UNL     1      -1.538  -0.479  -1.367  0.00  0.00    -0.245 OA
BRANCH  13  16
ATOM     15  C   UNL     1      -1.983   1.200   0.588  0.00  0.00    +0.280 C 
ATOM     16  O   UNL     1      -1.857  -0.206   0.816  0.00  0.00    -0.465 OA
ENDBRANCH  13  16
ENDBRANCH   1  13
BRANCH  10  17
ATOM     17  C   UNL     1       4.359  -3.323  -0.393  0.00  0.00    +0.131 C 
BRANCH  17  18
ATOM     18  C   UNL     1       5.206  -2.300   0.366  0.00  0.00    +0.188 C 
ATOM     19  N   UNL     1       5.081  -2.516   1.813  0.00  0.00    -0.362 N 
ATOM     20  C   UNL     1       4.579  -1.431   2.328  0.00  0.00    +0.060 A 
ATOM     21  C   UNL     1       4.228  -1.048   3.703  0.00  0.00    +0.027 A 
ATOM     22  C   UNL     1       3.712   0.175   3.941  0.00  0.00    +0.002 A 
ATOM     23  C   UNL     1       3.490   1.116   2.920  0.00  0.00    +0.002 A 
ATOM     24  C   UNL     1       3.776   0.866   1.627  0.00  0.00    +0.027 A 
ATOM     25  C   UNL     1       4.344  -0.435   1.248  0.00  0.00    +0.060 A 
ATOM     26  N   UNL     1       4.710  -0.942   0.106  0.00  0.00    -0.362 N 
ATOM     27  H   UNL     1       5.327  -3.320   2.296  0.00  0.00    +0.162 HD
ATOM     28  H   UNL     1       4.663  -0.504  -0.758  0.00  0.00    +0.162 HD
ENDBRANCH  17  18
ENDBRANCH  10  17
BRANCH   2  29
ATOM     29  O   UNL     1      -3.787  -2.491   0.171  0.00  0.00    -0.495 OA
BRANCH  29  30
ATOM     30  C   UNL     1      -4.743  -2.821  -0.838  0.00  0.00    +0.229 C 
BRANCH  30  31
ATOM     31  C   UNL     1      -5.981  -1.936  -0.677  0.00  0.00    +0.046 C 
BRANCH  31  32
ATOM     32  C   UNL     1      -7.004  -2.290  -1.758  0.00  0.00    +0.040 C 
BRANCH  32  33
ATOM     33  C   UNL     1      -8.224  -1.419  -1.599  0.00  0.00    -0.029 A 
ATOM     34  C   UNL     1      -9.277  -1.825  -0.793  0.00  0.00    +0.006 A 
ATOM     35  C   UNL     1     -10.378  -0.991  -0.677  0.00  0.00    +0.020 A 
ATOM     36  C   UNL     1     -10.390   0.208  -1.363  0.00  0.00    +0.111 A 
ATOM     37  N   UNL     1      -9.371   0.562  -2.121  0.00  0.00    -0.263 NA
ATOM     38  C   UNL     1      -8.305  -0.203  -2.250  0.00  0.00    +0.114 A 
ENDBRANCH  32  33
ENDBRANCH  31  32
ENDBRANCH  30  31
ENDBRANCH  29  30
ENDBRANCH   2  29
TORSDOF 9
