REMARK  Name = ZINC12831156
REMARK  7 active torsions:
REMARK  status: ('A' for Active; 'I' for Inactive)
REMARK    1  A    between atoms: C_1  and  C_2
REMARK    2  A    between atoms: C_2  and  C_4
REMARK    3  A    between atoms: C_7  and  N_10
REMARK    4  A    between atoms: C_11  and  C_13
REMARK    5  A    between atoms: C_13  and  C_14
REMARK    6  A    between atoms: C_14  and  C_16
REMARK    7  A    between atoms: C_14  and  N_21
REMARK                            x       y       z     vdW  Elec       q    Type
REMARK                         _______ _______ _______ _____ _____    ______ ____
ROOT
ATOM      1  C   UNL     1       1.088  -0.869   0.046  0.00  0.00    +0.123 C 
ENDROOT
BRANCH   1   3
ATOM      2  N   UNL     1      -0.016   1.344   0.009  0.00  0.00    -0.285 N 
ATOM      3  C   UNL     1      -0.128   0.011   0.178  0.00  0.00    +0.219 C 
ATOM      4  O   UNL     1      -1.206  -0.479   0.436  0.00  0.00    -0.275 OA
ATOM      5  H   UNL     1       0.857   1.744  -0.123  0.00  0.00    +0.155 HD
BRANCH   2   9
ATOM      6  C   UNL     1      -3.420   3.736   0.039  0.00  0.00    +0.017 A 
ATOM      7  C   UNL     1      -2.210   4.229   0.543  0.00  0.00    +0.013 A 
ATOM      8  C   UNL     1      -1.091   3.438   0.531  0.00  0.00    +0.024 A 
ATOM      9  C   UNL     1      -1.156   2.145   0.019  0.00  0.00    +0.033 A 
ATOM     10  C   UNL     1      -2.355   1.652  -0.488  0.00  0.00    +0.024 A 
ATOM     11  C   UNL     1      -3.480   2.434  -0.476  0.00  0.00    +0.013 A 
BRANCH   6  13
ATOM     12  C   UNL     1      -5.922   4.046  -0.493  0.00  0.00    +0.091 C 
ATOM     13  C   UNL     1      -4.622   4.580   0.050  0.00  0.00    +0.160 C 
ATOM     14  O   UNL     1      -4.567   5.706   0.496  0.00  0.00    -0.292 OA
ENDBRANCH   6  13
ENDBRANCH   2   9
ENDBRANCH   1   3
BRANCH   1  15
ATOM     15  C   UNL     1       0.690  -2.328   0.283  0.00  0.00    +0.120 C 
BRANCH  15  16
ATOM     16  N   UNL     1       0.241  -2.492   1.668  0.00  0.00    -0.292 N 
ATOM     17  C   UNL     1       1.079  -2.214   2.686  0.00  0.00    +0.298 C 
ATOM     18  O   UNL     1       2.208  -1.826   2.455  0.00  0.00    -0.253 OA
ATOM     19  N   UNL     1       0.665  -2.366   3.960  0.00  0.00    -0.313 N 
ATOM     20  H   UNL     1      -0.660  -2.802   1.852  0.00  0.00    +0.151 HD
ATOM     21  H   UNL     1      -0.236  -2.675   4.144  0.00  0.00    +0.146 HD
ATOM     22  H   UNL     1       1.268  -2.166   4.693  0.00  0.00    +0.146 HD
ENDBRANCH  15  16
BRANCH  15  23
ATOM     23  C   UNL     1       1.878  -3.220   0.031  0.00  0.00    +0.010 A 
ATOM     24  C   UNL     1       2.171  -3.963  -1.064  0.00  0.00    +0.013 A 
ATOM     25  C   UNL     1       3.332  -4.712  -1.076  0.00  0.00    +0.008 A 
ATOM     26  C   UNL     1       4.139  -4.689   0.013  0.00  0.00    +0.045 A 
ATOM     27  S   UNL     1       3.261  -3.579   1.101  0.00  0.00    -0.100 S 
ENDBRANCH  15  23
ENDBRANCH   1  15
TORSDOF 6
