REMARK  Name = ZINC20705039
REMARK  6 active torsions:
REMARK  status: ('A' for Active; 'I' for Inactive)
REMARK    1  A    between atoms: C_1  and  O_2
REMARK    2  A    between atoms: O_2  and  C_3
REMARK    3  A    between atoms: C_6  and  O_28
REMARK    4  A    between atoms: C_16  and  C_19
REMARK    5  A    between atoms: C_23  and  N_25
REMARK    6  A    between atoms: O_28  and  C_29
REMARK                            x       y       z     vdW  Elec       q    Type
REMARK                         _______ _______ _______ _____ _____    ______ ____
ROOT
ATOM      1  C   UNL     1      -3.645  -1.925   0.028  0.00  0.00    +0.126 A 
ATOM      2  C   UNL     1      -3.592  -0.542   0.033  0.00  0.00    +0.049 A 
ATOM      3  C   UNL     1      -2.369   0.103   0.025  0.00  0.00    +0.051 A 
ATOM      4  C   UNL     1      -1.202  -0.638   0.010  0.00  0.00    +0.141 A 
ATOM      5  C   UNL     1      -1.251  -2.035  -0.003  0.00  0.00    +0.077 A 
ATOM      6  C   UNL     1      -2.474  -2.681   0.013  0.00  0.00    +0.026 A 
ATOM      7  C   UNL     1      -2.601  -4.176   0.011  0.00  0.00    +0.052 C 
ATOM      8  C   UNL     1      -3.072  -4.671   1.359  0.00  0.00    -0.022 C 
ATOM      9  C   UNL     1      -2.452  -5.779   1.682  0.00  0.00    -0.030 C 
ATOM     10  C   UNL     1      -1.483  -6.185   0.589  0.00  0.00    +0.033 C 
ATOM     11  C   UNL     1      -1.232  -4.862  -0.186  0.00  0.00    +0.029 C 
ATOM     12  C   UNL     1      -0.162  -4.057   0.555  0.00  0.00    +0.105 C 
ATOM     13  N   UNL     1      -0.044  -2.730  -0.051  0.00  0.00    -0.334 N 
ATOM     14  H   UNL     1       0.918  -2.401  -0.471  0.00  0.00    +0.147 HD
ENDROOT
BRANCH  12  15
ATOM     15  C   UNL     1       1.161  -4.773   0.459  0.00  0.00    -0.025 A 
ATOM     16  C   UNL     1       1.924  -4.664  -0.689  0.00  0.00    +0.005 A 
ATOM     17  C   UNL     1       3.137  -5.320  -0.777  0.00  0.00    +0.003 A 
ATOM     18  C   UNL     1       3.588  -6.085   0.283  0.00  0.00    +0.033 A 
ATOM     19  C   UNL     1       2.826  -6.193   1.431  0.00  0.00    +0.127 A 
ATOM     20  C   UNL     1       1.614  -5.533   1.520  0.00  0.00    +0.038 A 
BRANCH  19  21
ATOM     21  N   UNL     1       3.308  -7.011   2.565  0.00  0.00    +0.056 N 
ATOM     22  O   UNL     1       4.378  -7.589   2.488  0.00  0.00    -0.126 OA
ATOM     23  O   UNL     1       2.636  -7.107   3.577  0.00  0.00    -0.126 OA
ENDBRANCH  19  21
ENDBRANCH  12  15
BRANCH   1  25
ATOM     24  C   UNL     1      -6.014  -1.723   0.050  0.00  0.00    +0.277 C 
ATOM     25  O   UNL     1      -4.851  -2.553   0.036  0.00  0.00    -0.495 OA
ENDBRANCH   1  25
BRANCH   4  26
ATOM     26  O   UNL     1       0.002  -0.004   0.002  0.00  0.00    -0.493 OA
ATOM     27  C   UNL     1      -0.017   1.425   0.010  0.00  0.00    +0.277 C 
ENDBRANCH   4  26
TORSDOF 4
