REMARK  Name = ZINC06195024
REMARK  12 active torsions:
REMARK  status: ('A' for Active; 'I' for Inactive)
REMARK    1  A    between atoms: C_1  and  C_2
REMARK    2  A    between atoms: C_2  and  O_3
REMARK    3  A    between atoms: O_3  and  C_4
REMARK    4  A    between atoms: C_13  and  C_25
REMARK    5  A    between atoms: C_15  and  C_21
REMARK    6  A    between atoms: C_15  and  C_23
REMARK    7  A    between atoms: C_16  and  N_20
REMARK    8  A    between atoms: C_17  and  C_18
REMARK    9  A    between atoms: C_27  and  O_33
REMARK   10  A    between atoms: C_29  and  O_31
REMARK   11  A    between atoms: O_31  and  C_32
REMARK   12  A    between atoms: O_33  and  C_34
REMARK                            x       y       z     vdW  Elec       q    Type
REMARK                         _______ _______ _______ _____ _____    ______ ____
ROOT
ATOM      1  C   UNL     1      -0.199   5.139   2.063  0.00  0.00    +0.403 C 
ATOM      2  O   UNL     1      -1.169   5.311   1.351  0.00  0.00    -0.226 OA
ATOM      3  N   UNL     1       0.858   4.440   1.604  0.00  0.00    -0.263 N 
ATOM      4  C   UNL     1       2.050   4.212   2.440  0.00  0.00    +0.138 C 
ATOM      5  C   UNL     1       2.260   2.721   2.513  0.00  0.00    -0.003 C 
ATOM      6  C   UNL     1       1.861   1.927   1.539  0.00  0.00    -0.026 C 
ATOM      7  C   UNL     1       1.207   2.401   0.276  0.00  0.00    +0.048 C 
ATOM      8  C   UNL     1       0.870   3.873   0.251  0.00  0.00    +0.120 C 
ATOM      9  C   UNL     1      -0.019   1.525   0.010  0.00  0.00    +0.068 C 
ATOM     10  C   UNL     1       0.444   0.086  -0.223  0.00  0.00    +0.188 C 
ATOM     11  C   UNL     1       1.371  -0.380   0.859  0.00  0.00    +0.054 C 
ATOM     12  C   UNL     1       2.049   0.458   1.682  0.00  0.00    +0.074 C 
ENDROOT
BRANCH   9  13
ATOM     13  C   UNL     1      -0.743   2.027  -1.212  0.00  0.00    -0.034 A 
ATOM     14  C   UNL     1      -0.028   2.378  -2.342  0.00  0.00    +0.050 A 
ATOM     15  C   UNL     1      -0.693   2.836  -3.470  0.00  0.00    +0.124 A 
ATOM     16  C   UNL     1      -2.075   2.951  -3.460  0.00  0.00    +0.091 A 
ATOM     17  C   UNL     1      -2.789   2.604  -2.324  0.00  0.00    +0.124 A 
ATOM     18  C   UNL     1      -2.120   2.141  -1.200  0.00  0.00    +0.050 A 
BRANCH  17  19
ATOM     19  O   UNL     1      -4.143   2.717  -2.311  0.00  0.00    -0.495 OA
ATOM     20  C   UNL     1      -4.766   3.200  -3.503  0.00  0.00    +0.277 C 
ENDBRANCH  17  19
BRANCH  15  21
ATOM     21  O   UNL     1       0.009   3.176  -4.582  0.00  0.00    -0.495 OA
ATOM     22  C   UNL     1      -0.740   3.646  -5.705  0.00  0.00    +0.277 C 
ENDBRANCH  15  21
ENDBRANCH   9  13
BRANCH  11  23
ATOM     23  N   UNL     1       1.542  -1.726   1.025  0.00  0.00    -0.358 N 
ATOM     24  H   UNL     1       2.215  -2.102   1.810  0.00  0.00    +0.142 HD
ATOM     25  H   UNL     1       1.007  -2.433   0.374  0.00  0.00    +0.142 HD
ENDBRANCH  11  23
BRANCH  12  26
ATOM     26  C   UNL     1       2.937  -0.065   2.676  0.00  0.00    +0.101 C 
ATOM     27  N   UNL     1       3.641  -0.480   3.465  0.00  0.00    -0.191 NA
ENDBRANCH  12  26
BRANCH  10  28
ATOM     28  C   UNL     1      -0.733  -0.796  -0.260  0.00  0.00    +0.091 C 
ATOM     29  N   UNL     1      -1.642  -1.478  -0.289  0.00  0.00    -0.194 NA
ENDBRANCH  10  28
BRANCH  10  30
ATOM     30  C   UNL     1       1.142   0.010  -1.517  0.00  0.00    +0.091 C 
ATOM     31  N   UNL     1       1.680  -0.049  -2.515  0.00  0.00    -0.194 NA
ENDBRANCH  10  30
BRANCH   1  32
ATOM     32  O   UNL     1      -0.181   5.646   3.310  0.00  0.00    -0.451 OA
BRANCH  32  34
ATOM     33  C   UNL     1      -1.149   6.882   5.171  0.00  0.00    +0.048 C 
ATOM     34  C   UNL     1      -1.354   6.388   3.737  0.00  0.00    +0.230 C 
ENDBRANCH  32  34
ENDBRANCH   1  32
TORSDOF 9
