REMARK  Name = ZINC44023345
REMARK  3 active torsions:
REMARK  status: ('A' for Active; 'I' for Inactive)
REMARK    1  A    between atoms: C_1  and  C_2
REMARK    2  A    between atoms: N_11  and  C_12
REMARK    3  A    between atoms: N_16  and  C_21
REMARK                            x       y       z     vdW  Elec       q    Type
REMARK                         _______ _______ _______ _____ _____    ______ ____
ROOT
ATOM      1  C   UNL     1       0.581  -0.378   2.443  0.00  0.00    +0.112 A 
ATOM      2  C   UNL     1      -0.563   0.245   2.858  0.00  0.00    +0.112 A 
ATOM      3  C   UNL     1      -0.793   0.405   4.234  0.00  0.00    +0.259 A 
ATOM      4  O   UNL     1      -1.806   0.957   4.627  0.00  0.00    -0.267 OA
ATOM      5  N   UNL     1       0.114  -0.058   5.118  0.00  0.00    -0.258 N 
ATOM      6  C   UNL     1       1.234  -0.669   4.692  0.00  0.00    +0.331 A 
ATOM      7  O   UNL     1       2.038  -1.079   5.507  0.00  0.00    -0.246 OA
ATOM      8  N   UNL     1       1.475  -0.839   3.379  0.00  0.00    -0.295 N 
ATOM      9  H   UNL     1       2.287  -1.286   3.092  0.00  0.00    +0.172 HD
ENDROOT
BRANCH   1  19
ATOM     10  C   UNL     1       1.131   1.749   0.281  0.00  0.00    +0.029 C 
ATOM     11  C   UNL     1       0.449   0.399   0.052  0.00  0.00    +0.082 C 
ATOM     12  C   UNL     1       0.943  -0.233  -1.260  0.00  0.00    +0.059 C 
ATOM     13  C   UNL     1       1.589  -1.533  -0.836  0.00  0.00    -0.024 A 
ATOM     14  C   UNL     1       2.206  -2.522  -1.578  0.00  0.00    +0.005 A 
ATOM     15  C   UNL     1       2.728  -3.637  -0.950  0.00  0.00    +0.000 A 
ATOM     16  C   UNL     1       2.632  -3.761   0.425  0.00  0.00    +0.002 A 
ATOM     17  C   UNL     1       2.018  -2.777   1.169  0.00  0.00    +0.024 A 
ATOM     18  C   UNL     1       1.488  -1.647   0.541  0.00  0.00    +0.039 A 
ATOM     19  N   UNL     1       0.831  -0.548   1.104  0.00  0.00    -0.283 N 
ENDBRANCH   1  19
BRANCH   5  20
ATOM     20  C   UNL     1      -0.123   0.107   6.554  0.00  0.00    +0.095 C 
ATOM     21  C   UNL     1       1.009   0.934   7.166  0.00  0.00    +0.025 C 
ATOM     22  C   UNL     1       0.762   1.106   8.666  0.00  0.00    +0.002 C 
ATOM     23  C   UNL     1       0.714  -0.268   9.336  0.00  0.00    +0.000 C 
ATOM     24  C   UNL     1      -0.418  -1.095   8.724  0.00  0.00    +0.002 C 
ATOM     25  C   UNL     1      -0.171  -1.267   7.224  0.00  0.00    +0.025 C 
ENDBRANCH   5  20
TORSDOF 2
