REMARK  Name = ZINC05624143
REMARK  9 active torsions:
REMARK  status: ('A' for Active; 'I' for Inactive)
REMARK    1  A    between atoms: C_1  and  C_2
REMARK    2  A    between atoms: C_5  and  N_9
REMARK    3  A    between atoms: C_7  and  C_8
REMARK    4  A    between atoms: C_10  and  C_25
REMARK    5  A    between atoms: C_13  and  S_14
REMARK    6  A    between atoms: S_14  and  C_15
REMARK    7  A    between atoms: C_15  and  C_16
REMARK    8  A    between atoms: N_21  and  C_22
REMARK    9  A    between atoms: C_22  and  C_23
REMARK                            x       y       z     vdW  Elec       q    Type
REMARK                         _______ _______ _______ _____ _____    ______ ____
ROOT
ATOM      1  N   UNL     1      -2.429   1.039   0.019  0.00  0.00    -0.270 N 
ATOM      2  C   UNL     1      -2.917   0.225  -0.980  0.00  0.00    +0.169 A 
ATOM      3  N   UNL     1      -4.070  -0.246  -0.564  0.00  0.00    -0.128 NA
ATOM      4  N   UNL     1      -4.339   0.216   0.604  0.00  0.00    -0.122 NA
ATOM      5  C   UNL     1      -3.372   1.008   1.011  0.00  0.00    +0.197 A 
ENDROOT
BRANCH   1  10
ATOM      6  C   UNL     1       2.451   3.935  -0.002  0.00  0.00    +0.044 C 
ATOM      7  C   UNL     1       1.155   3.166   0.007  0.00  0.00    -0.047 A 
ATOM      8  C   UNL     1       1.173   1.783   0.000  0.00  0.00    +0.005 A 
ATOM      9  C   UNL     1      -0.013   1.076   0.008  0.00  0.00    +0.026 A 
ATOM     10  C   UNL     1      -1.224   1.754   0.017  0.00  0.00    +0.051 A 
ATOM     11  C   UNL     1      -1.239   3.142   0.030  0.00  0.00    +0.030 A 
ATOM     12  C   UNL     1      -0.049   3.845   0.022  0.00  0.00    -0.046 A 
ATOM     13  C   UNL     1      -0.064   5.351   0.029  0.00  0.00    +0.044 C 
ENDBRANCH   1  10
BRANCH   2  14
ATOM     14  C   UNL     1      -2.263  -0.066  -2.273  0.00  0.00    +0.020 A 
ATOM     15  C   UNL     1      -1.209   0.732  -2.721  0.00  0.00    +0.011 A 
ATOM     16  C   UNL     1      -0.600   0.451  -3.927  0.00  0.00    +0.001 A 
ATOM     17  C   UNL     1      -1.040  -0.610  -4.697  0.00  0.00    +0.000 A 
ATOM     18  C   UNL     1      -2.088  -1.402  -4.262  0.00  0.00    +0.001 A 
ATOM     19  C   UNL     1      -2.702  -1.136  -3.055  0.00  0.00    +0.011 A 
ENDBRANCH   2  14
BRANCH   5  20
ATOM     20  S   UNL     1      -3.301   1.868   2.547  0.00  0.00    -0.076 S 
BRANCH  20  21
ATOM     21  C   UNL     1      -4.866   1.330   3.281  0.00  0.00    +0.173 C 
BRANCH  21  22
ATOM     22  C   UNL     1      -5.026   1.959   4.641  0.00  0.00    +0.231 C 
ATOM     23  O   UNL     1      -4.166   2.698   5.072  0.00  0.00    -0.274 OA
ATOM     24  N   UNL     1      -6.123   1.700   5.378  0.00  0.00    -0.239 N 
ATOM     25  C   UNL     1      -6.266   2.263   6.595  0.00  0.00    +0.306 C 
ATOM     26  O   UNL     1      -5.405   3.004   7.026  0.00  0.00    -0.252 OA
ATOM     27  N   UNL     1      -7.364   2.004   7.332  0.00  0.00    -0.296 N 
ATOM     28  H   UNL     1      -6.811   1.109   5.034  0.00  0.00    +0.159 HD
ATOM     29  H   UNL     1      -8.052   1.413   6.987  0.00  0.00    +0.151 HD
BRANCH  27  30
ATOM     30  C   UNL     1      -7.520   2.616   8.654  0.00  0.00    +0.132 C 
BRANCH  30  31
ATOM     31  C   UNL     1      -8.823   2.168   9.265  0.00  0.00    -0.016 C 
ATOM     32  C   UNL     1      -8.832   1.603  10.447  0.00  0.00    +0.005 C 
ENDBRANCH  30  31
ENDBRANCH  27  30
ENDBRANCH  21  22
ENDBRANCH  20  21
ENDBRANCH   5  20
TORSDOF 7
