REMARK  Name = ZINC29936397
REMARK  11 active torsions:
REMARK  status: ('A' for Active; 'I' for Inactive)
REMARK    1  A    between atoms: C_1  and  C_2
REMARK    2  A    between atoms: C_2  and  C_3
REMARK    3  A    between atoms: C_2  and  C_4
REMARK    4  A    between atoms: C_4  and  N_5
REMARK    5  A    between atoms: C_6  and  C_8
REMARK    6  A    between atoms: C_13  and  N_14
REMARK    7  A    between atoms: C_15  and  C_17
REMARK    8  A    between atoms: C_17  and  N_18
REMARK    9  A    between atoms: N_18  and  C_19
REMARK   10  A    between atoms: C_19  and  C_21
REMARK   11  A    between atoms: C_19  and  C_28
REMARK                            x       y       z     vdW  Elec       q    Type
REMARK                         _______ _______ _______ _____ _____    ______ ____
ROOT
ATOM      1  N   UNL     1      -3.809   2.931   0.221  0.00  0.00    -0.286 N 
ATOM      2  C   UNL     1      -5.002   3.526   0.425  0.00  0.00    +0.200 C 
ATOM      3  O   UNL     1      -5.992   2.851   0.611  0.00  0.00    -0.278 OA
ATOM      4  H   UNL     1      -2.897   3.540   0.139  0.00  0.00    +0.155 HD
ENDROOT
BRANCH   1  10
ATOM      5  C   UNL     1      -2.616   0.860   0.618  0.00  0.00    +0.058 A 
ATOM      6  C   UNL     1      -2.548  -0.530   0.500  0.00  0.00    +0.015 A 
ATOM      7  C   UNL     1      -3.579  -1.220  -0.099  0.00  0.00    +0.001 A 
ATOM      8  C   UNL     1      -4.681  -0.541  -0.594  0.00  0.00    +0.002 A 
ATOM      9  C   UNL     1      -4.760   0.833  -0.489  0.00  0.00    +0.024 A 
ATOM     10  C   UNL     1      -3.732   1.544   0.115  0.00  0.00    +0.045 A 
BRANCH   5  12
ATOM     11  N   UNL     1      -0.494   0.937   1.832  0.00  0.00    -0.311 N 
ATOM     12  C   UNL     1      -1.517   1.604   1.262  0.00  0.00    +0.246 C 
ATOM     13  O   UNL     1      -1.534   2.820   1.278  0.00  0.00    -0.270 OA
ATOM     14  H   UNL     1      -0.481  -0.163   1.821  0.00  0.00    +0.149 HD
BRANCH  11  15
ATOM     15  C   UNL     1       0.600   1.677   2.466  0.00  0.00    +0.107 C 
BRANCH  15  17
ATOM     16  C   UNL     1       2.828   1.460   3.575  0.00  0.00    +0.009 C 
ATOM     17  C   UNL     1       1.626   0.689   3.024  0.00  0.00    -0.000 C 
ATOM     18  C   UNL     1       0.987  -0.130   4.147  0.00  0.00    +0.009 C 
ENDBRANCH  15  17
ENDBRANCH  11  15
ENDBRANCH   5  12
ENDBRANCH   1  10
BRANCH   2  19
ATOM     19  C   UNL     1      -5.104   5.029   0.421  0.00  0.00    +0.016 C 
BRANCH  19  20
ATOM     20  N   UNL     1      -6.497   5.426   0.664  0.00  0.00    +0.392 N 
ATOM     21  H   UNL     1      -7.139   5.013  -0.128  0.00  0.00    -0.084 HD
ATOM     22  H   UNL     1      -6.824   5.039   1.640  0.00  0.00    -0.084 HD
BRANCH  20  23
ATOM     23  C   UNL     1      -6.635   6.889   0.667  0.00  0.00    -0.003 C 
BRANCH  23  24
ATOM     24  C   UNL     1      -7.839   7.278   1.486  0.00  0.00    -0.056 A 
ATOM     25  C   UNL     1      -9.001   6.534   1.401  0.00  0.00    +0.005 A 
ATOM     26  C   UNL     1     -10.104   6.887   2.156  0.00  0.00    +0.038 A 
ATOM     27  C   UNL     1     -10.048   7.992   2.988  0.00  0.00    +0.123 A 
ATOM     28  C   UNL     1      -8.885   8.739   3.068  0.00  0.00    +0.038 A 
ATOM     29  C   UNL     1      -7.782   8.381   2.317  0.00  0.00    +0.005 A 
ATOM     30  F   UNL     1     -11.128   8.341   3.722  0.00  0.00    -0.205 F 
ENDBRANCH  23  24
BRANCH  23  31
ATOM     31  C   UNL     1      -6.809   7.380  -0.747  0.00  0.00    -0.020 A 
ATOM     32  C   UNL     1      -6.289   8.483  -1.337  0.00  0.00    +0.010 A 
ATOM     33  C   UNL     1      -6.584   8.737  -2.664  0.00  0.00    +0.008 A 
ATOM     34  C   UNL     1      -7.395   7.880  -3.332  0.00  0.00    +0.045 A 
ATOM     35  S   UNL     1      -7.761   6.664  -2.077  0.00  0.00    -0.103 S 
ENDBRANCH  23  31
ENDBRANCH  20  23
ENDBRANCH  19  20
ENDBRANCH   2  19
TORSDOF 9
