REMARK  Name = ZINC39634735
REMARK  12 active torsions:
REMARK  status: ('A' for Active; 'I' for Inactive)
REMARK    1  A    between atoms: C_1  and  C_2
REMARK    2  A    between atoms: C_2  and  C_3
REMARK    3  A    between atoms: C_2  and  N_4
REMARK    4  A    between atoms: N_4  and  C_5
REMARK    5  A    between atoms: N_4  and  C_34
REMARK    6  A    between atoms: C_5  and  C_6
REMARK    7  A    between atoms: C_6  and  N_7
REMARK    8  A    between atoms: C_8  and  C_10
REMARK    9  A    between atoms: C_21  and  C_23
REMARK   10  A    between atoms: C_27  and  C_29
REMARK   11  A    between atoms: C_34  and  C_35
REMARK   12  A    between atoms: C_34  and  C_36
REMARK                            x       y       z     vdW  Elec       q    Type
REMARK                         _______ _______ _______ _____ _____    ______ ____
ROOT
ATOM      1  C   UNL     1       4.733   1.141  -2.299  0.00  0.00    +0.100 C 
ATOM      2  C   UNL     1       5.183   2.018  -1.109  0.00  0.00    +0.121 C 
ATOM      3  N   UNL     1       6.207   2.925  -1.680  0.00  0.00    -0.296 N 
ATOM      4  C   UNL     1       5.678   3.282  -3.018  0.00  0.00    +0.115 C 
ATOM      5  C   UNL     1       5.058   1.974  -3.550  0.00  0.00    -0.004 C 
ATOM      6  C   UNL     1       3.783   2.275  -4.331  0.00  0.00    -0.010 C 
ATOM      7  C   UNL     1       4.139   3.054  -5.601  0.00  0.00    -0.082 C 
ATOM      8  N   UNL     1       5.064   2.261  -6.420  0.00  0.00    +0.379 N 
ATOM      9  C   UNL     1       6.324   2.056  -5.696  0.00  0.00    -0.082 C 
ATOM     10  C   UNL     1       6.060   1.235  -4.431  0.00  0.00    -0.010 C 
ATOM     11  C   UNL     1       7.358   3.334  -1.111  0.00  0.00    +0.247 C 
ATOM     12  O   UNL     1       7.710   2.863  -0.046  0.00  0.00    -0.270 OA
ATOM     13  H   UNL     1       4.646   1.367  -6.626  0.00  0.00    -0.086 HD
ATOM     14  H   UNL     1       5.249   2.750  -7.283  0.00  0.00    -0.086 HD
ENDROOT
BRANCH  11  15
ATOM     15  C   UNL     1       8.192   4.353  -1.780  0.00  0.00    +0.038 A 
ATOM     16  C   UNL     1       7.635   5.184  -2.754  0.00  0.00    +0.016 A 
ATOM     17  C   UNL     1       8.418   6.134  -3.375  0.00  0.00    +0.039 A 
ATOM     18  C   UNL     1       9.755   6.264  -3.034  0.00  0.00    +0.135 A 
ATOM     19  C   UNL     1      10.313   5.442  -2.067  0.00  0.00    +0.091 A 
ATOM     20  C   UNL     1       9.538   4.493  -1.436  0.00  0.00    +0.028 A 
ATOM     21  F   UNL     1      10.518   7.197  -3.646  0.00  0.00    -0.205 F 
BRANCH  19  22
ATOM     22  C   UNL     1      11.768   5.590  -1.702  0.00  0.00    +0.420 C 
ATOM     23  F   UNL     1      12.097   4.658  -0.712  0.00  0.00    -0.166 F 
ATOM     24  F   UNL     1      12.558   5.365  -2.835  0.00  0.00    -0.166 F 
ATOM     25  F   UNL     1      11.999   6.883  -1.221  0.00  0.00    -0.166 F 
ENDBRANCH  19  22
ENDBRANCH  11  15
BRANCH   1  27
ATOM     26  N   UNL     1       2.748  -0.272  -2.727  0.00  0.00    -0.317 N 
ATOM     27  C   UNL     1       3.252   0.870  -2.220  0.00  0.00    +0.218 C 
ATOM     28  O   UNL     1       2.514   1.680  -1.699  0.00  0.00    -0.275 OA
ATOM     29  H   UNL     1       3.338  -0.920  -3.144  0.00  0.00    +0.149 HD
BRANCH  26  30
ATOM     30  C   UNL     1       1.309  -0.535  -2.651  0.00  0.00    +0.085 C 
BRANCH  30  31
ATOM     31  C   UNL     1       1.003  -1.889  -3.295  0.00  0.00    -0.059 C 
BRANCH  31  32
ATOM     32  N   UNL     1      -0.448  -2.121  -3.281  0.00  0.00    +0.384 N 
ATOM     33  H   UNL     1      -0.789  -2.059  -2.334  0.00  0.00    -0.081 HD
BRANCH  32  35
ATOM     34  C   UNL     1      -0.038  -4.514  -2.958  0.00  0.00    -0.014 C 
ATOM     35  C   UNL     1      -0.735  -3.458  -3.818  0.00  0.00    -0.074 C 
ATOM     36  C   UNL     1      -2.245  -3.700  -3.801  0.00  0.00    -0.014 C 
ENDBRANCH  32  35
BRANCH  32  37
ATOM     37  C   UNL     1      -1.113  -1.107  -4.110  0.00  0.00    -0.074 C 
ATOM     38  C   UNL     1      -1.063  -1.534  -5.578  0.00  0.00    -0.014 C 
ATOM     39  C   UNL     1      -2.572  -0.966  -3.669  0.00  0.00    -0.014 C 
ENDBRANCH  32  37
ENDBRANCH  31  32
ENDBRANCH  30  31
ENDBRANCH  26  30
ENDBRANCH   1  27
TORSDOF 8
