REMARK  Name = ZINC67197019
REMARK  4 active torsions:
REMARK  status: ('A' for Active; 'I' for Inactive)
REMARK    1  A    between atoms: C_13  and  C_16
REMARK    2  A    between atoms: N_18  and  N_19
REMARK    3  A    between atoms: C_20  and  C_21
REMARK    4  A    between atoms: C_23  and  O_29
REMARK                            x       y       z     vdW  Elec       q    Type
REMARK                         _______ _______ _______ _____ _____    ______ ____
ROOT
ATOM      1  C   UNL     1       7.051  -4.367   1.341  0.00  0.00    +0.276 C 
ATOM      2  O   UNL     1       7.599  -3.718   0.475  0.00  0.00    -0.270 OA
ATOM      3  N   UNL     1       7.172  -5.709   1.355  0.00  0.00    -0.204 N 
ATOM      4  H   UNL     1       6.677  -6.234   2.004  0.00  0.00    +0.177 HD
ENDROOT
BRANCH   1  17
ATOM      5  C   UNL     1       3.014   2.216   5.216  0.00  0.00    +0.001 A 
ATOM      6  C   UNL     1       4.189   2.774   4.716  0.00  0.00    +0.001 A 
ATOM      7  C   UNL     1       5.088   2.016   4.031  0.00  0.00    +0.008 A 
ATOM      8  C   UNL     1       4.832   0.650   3.825  0.00  0.00    -0.014 A 
ATOM      9  C   UNL     1       5.738  -0.163   3.123  0.00  0.00    +0.058 A 
ATOM     10  C   UNL     1       5.462  -1.488   2.937  0.00  0.00    +0.164 A 
ATOM     11  C   UNL     1       4.280  -2.051   3.443  0.00  0.00    +0.163 A 
ATOM     12  C   UNL     1       3.381  -1.284   4.128  0.00  0.00    +0.058 A 
ATOM     13  C   UNL     1       3.638   0.082   4.334  0.00  0.00    -0.014 A 
ATOM     14  C   UNL     1       2.733   0.896   5.035  0.00  0.00    +0.008 A 
ATOM     15  O   UNL     1       4.011  -3.374   3.263  0.00  0.00    -0.484 OA
ATOM     16  C   UNL     1       4.757  -4.050   2.246  0.00  0.00    +0.283 C 
ATOM     17  C   UNL     1       6.236  -3.672   2.401  0.00  0.00    +0.297 C 
ATOM     18  O   UNL     1       6.354  -2.254   2.250  0.00  0.00    -0.472 OA
ENDBRANCH   1  17
BRANCH   3  19
ATOM     19  N   UNL     1       8.013  -6.347   0.434  0.00  0.00    -0.188 NA
ATOM     20  C   UNL     1       8.044  -7.643   0.372  0.00  0.00    +0.139 C 
BRANCH  20  21
ATOM     21  C   UNL     1       7.049  -8.440   1.112  0.00  0.00    +0.012 A 
ATOM     22  C   UNL     1       5.788  -7.906   1.388  0.00  0.00    +0.057 A 
ATOM     23  C   UNL     1       4.859  -8.660   2.083  0.00  0.00    +0.131 A 
ATOM     24  C   UNL     1       5.180  -9.945   2.504  0.00  0.00    +0.060 A 
ATOM     25  C   UNL     1       6.428 -10.476   2.232  0.00  0.00    +0.034 A 
ATOM     26  C   UNL     1       7.361  -9.735   1.535  0.00  0.00    +0.028 A 
ATOM     27 BR   UNL     1       9.063 -10.469   1.159  0.00  0.00    -0.050 Br
ATOM     28 BR   UNL     1       3.905 -10.971   3.452  0.00  0.00    -0.046 Br
BRANCH  23  29
ATOM     29  O   UNL     1       3.631  -8.143   2.353  0.00  0.00    -0.506 OA
ATOM     30  H   UNL     1       2.970  -8.320   1.670  0.00  0.00    +0.292 HD
ENDBRANCH  23  29
ENDBRANCH  20  21
ENDBRANCH   3  19
TORSDOF 4
