REMARK  Name = ZINC39607637
REMARK  11 active torsions:
REMARK  status: ('A' for Active; 'I' for Inactive)
REMARK    1  A    between atoms: C_1  and  C_2
REMARK    2  A    between atoms: C_2  and  C_3
REMARK    3  A    between atoms: C_3  and  O_4
REMARK    4  A    between atoms: O_4  and  C_5
REMARK    5  A    between atoms: C_5  and  C_6
REMARK    6  A    between atoms: C_6  and  N_7
REMARK    7  A    between atoms: C_8  and  C_10
REMARK    8  A    between atoms: C_21  and  C_23
REMARK    9  A    between atoms: C_26  and  O_33
REMARK   10  A    between atoms: C_27  and  C_29
REMARK   11  A    between atoms: O_33  and  C_34
REMARK                            x       y       z     vdW  Elec       q    Type
REMARK                         _______ _______ _______ _____ _____    ______ ____
ROOT
ATOM      1  C   UNL     1      -0.740  -6.230   3.351  0.00  0.00    +0.100 C 
ATOM      2  C   UNL     1      -1.828  -5.737   4.331  0.00  0.00    +0.121 C 
ATOM      3  N   UNL     1      -2.683  -6.923   4.569  0.00  0.00    -0.296 N 
ATOM      4  C   UNL     1      -1.729  -8.055   4.649  0.00  0.00    +0.115 C 
ATOM      5  C   UNL     1      -0.676  -7.752   3.566  0.00  0.00    -0.004 C 
ATOM      6  C   UNL     1      -1.025  -8.483   2.273  0.00  0.00    -0.010 C 
ATOM      7  C   UNL     1      -0.899  -9.992   2.496  0.00  0.00    -0.082 C 
ATOM      8  N   UNL     1       0.472 -10.315   2.909  0.00  0.00    +0.379 N 
ATOM      9  C   UNL     1       0.768  -9.682   4.200  0.00  0.00    -0.082 C 
ATOM     10  C   UNL     1       0.712  -8.159   4.049  0.00  0.00    -0.010 C 
ATOM     11  C   UNL     1      -4.025  -6.964   4.686  0.00  0.00    +0.247 C 
ATOM     12  O   UNL     1      -4.685  -5.965   4.471  0.00  0.00    -0.270 OA
ATOM     13  H   UNL     1       0.569 -11.316   2.996  0.00  0.00    -0.086 HD
ATOM     14  H   UNL     1       1.120  -9.976   2.214  0.00  0.00    -0.086 HD
ENDROOT
BRANCH  11  15
ATOM     15  C   UNL     1      -4.694  -8.220   5.077  0.00  0.00    +0.038 A 
ATOM     16  C   UNL     1      -3.976  -9.220   5.738  0.00  0.00    +0.016 A 
ATOM     17  C   UNL     1      -4.604 -10.391   6.101  0.00  0.00    +0.047 A 
ATOM     18  C   UNL     1      -5.950 -10.579   5.809  0.00  0.00    +0.132 A 
ATOM     19  C   UNL     1      -6.668  -9.587   5.152  0.00  0.00    +0.097 A 
ATOM     20  C   UNL     1      -6.048  -8.411   4.790  0.00  0.00    +0.029 A 
BRANCH  19  21
ATOM     21  C   UNL     1      -8.127  -9.796   4.838  0.00  0.00    +0.421 C 
ATOM     22  F   UNL     1      -8.628  -8.669   4.178  0.00  0.00    -0.166 F 
ATOM     23  F   UNL     1      -8.271 -10.920   4.016  0.00  0.00    -0.166 F 
ATOM     24  F   UNL     1      -8.836  -9.995   6.027  0.00  0.00    -0.166 F 
ENDBRANCH  19  21
BRANCH  18  25
ATOM     25  O   UNL     1      -6.565 -11.734   6.168  0.00  0.00    -0.495 OA
ATOM     26  C   UNL     1      -5.769 -12.711   6.841  0.00  0.00    +0.277 C 
ENDBRANCH  18  25
ENDBRANCH  11  15
BRANCH   1  28
ATOM     27  N   UNL     1      -0.185  -5.808   0.978  0.00  0.00    -0.313 N 
ATOM     28  C   UNL     1      -1.132  -5.916   1.930  0.00  0.00    +0.218 C 
ATOM     29  O   UNL     1      -2.301  -5.762   1.644  0.00  0.00    -0.275 OA
ATOM     30  H   UNL     1       0.750  -5.932   1.207  0.00  0.00    +0.149 HD
BRANCH  27  31
ATOM     31  C   UNL     1      -0.566  -5.503  -0.403  0.00  0.00    +0.132 C 
BRANCH  31  32
ATOM     32  C   UNL     1       0.689  -5.436  -1.276  0.00  0.00    +0.178 C 
BRANCH  32  33
ATOM     33  O   UNL     1       1.301  -6.726  -1.329  0.00  0.00    -0.378 OA
BRANCH  33  34
ATOM     34  C   UNL     1       2.488  -6.773  -2.123  0.00  0.00    +0.159 C 
BRANCH  34  36
ATOM     35  C   UNL     1       4.327  -8.245  -2.959  0.00  0.00    +0.006 C 
ATOM     36  C   UNL     1       3.056  -8.194  -2.108  0.00  0.00    +0.025 C 
ENDBRANCH  34  36
ENDBRANCH  33  34
ENDBRANCH  32  33
ENDBRANCH  31  32
ENDBRANCH  27  31
ENDBRANCH   1  28
TORSDOF 9
