REMARK  Name = ZINC35086313
REMARK  3 active torsions:
REMARK  status: ('A' for Active; 'I' for Inactive)
REMARK    1  A    between atoms: C_1  and  C_2
REMARK    2  A    between atoms: C_4  and  C_35
REMARK    3  A    between atoms: N_21  and  C_24
REMARK                            x       y       z     vdW  Elec       q    Type
REMARK                         _______ _______ _______ _____ _____    ______ ____
ROOT
ATOM      1  C   UNL     1       0.239   1.863   0.525  0.00  0.00    +0.044 C 
ATOM      2  C   UNL     1       0.321   0.365   0.385  0.00  0.00    -0.050 A 
ATOM      3  C   UNL     1       0.490  -0.207  -0.863  0.00  0.00    +0.008 A 
ATOM      4  C   UNL     1       0.568  -1.577  -0.997  0.00  0.00    -0.029 A 
ATOM      5  C   UNL     1       0.476  -2.397   0.126  0.00  0.00    +0.042 A 
ATOM      6  C   UNL     1       0.304  -1.811   1.376  0.00  0.00    +0.004 A 
ATOM      7  C   UNL     1       0.235  -0.442   1.506  0.00  0.00    +0.011 A 
ATOM      8  C   UNL     1       0.237  -2.947   2.358  0.00  0.00    +0.138 C 
ATOM      9  C   UNL     1      -1.094  -2.951   3.117  0.00  0.00    +0.123 C 
ATOM     10  C   UNL     1      -0.772  -2.279   4.480  0.00  0.00    +0.107 C 
ATOM     11  C   UNL     1       0.730  -1.947   4.421  0.00  0.00    +0.071 C 
ATOM     12  N   UNL     1       1.295  -2.847   3.377  0.00  0.00    -0.281 NA
ATOM     13  C   UNL     1       1.452  -4.148   4.069  0.00  0.00    +0.086 C 
ATOM     14  C   UNL     1       1.896  -3.795   5.503  0.00  0.00    +0.017 C 
ATOM     15  C   UNL     1       1.393  -2.346   5.751  0.00  0.00    +0.021 C 
ATOM     16  C   UNL     1      -1.584  -1.004   4.442  0.00  0.00    +0.232 C 
ATOM     17  O   UNL     1      -1.621  -0.171   5.321  0.00  0.00    -0.274 OA
ATOM     18  N   UNL     1      -2.254  -0.940   3.286  0.00  0.00    -0.210 N 
ATOM     19  C   UNL     1      -2.060  -1.992   2.458  0.00  0.00    +0.233 C 
ATOM     20  O   UNL     1      -2.568  -2.147   1.369  0.00  0.00    -0.274 OA
ATOM     21  C   UNL     1       0.394  -4.191   1.525  0.00  0.00    +0.243 C 
ATOM     22  O   UNL     1       0.400  -5.336   1.927  0.00  0.00    -0.273 OA
ATOM     23  N   UNL     1       0.527  -3.788   0.247  0.00  0.00    -0.283 N 
ATOM     24  C   UNL     1       0.752  -2.190  -2.361  0.00  0.00    +0.045 C 
ATOM     25  H   UNL     1       0.644  -4.392  -0.502  0.00  0.00    +0.155 HD
ENDROOT
BRANCH  18  26
ATOM     26  C   UNL     1      -3.097   0.131   2.958  0.00  0.00    +0.047 A 
ATOM     27  C   UNL     1      -2.573   1.407   2.804  0.00  0.00    +0.044 A 
ATOM     28  C   UNL     1      -3.406   2.462   2.480  0.00  0.00    +0.044 A 
ATOM     29  C   UNL     1      -4.763   2.246   2.310  0.00  0.00    +0.040 A 
ATOM     30  C   UNL     1      -5.288   0.975   2.463  0.00  0.00    +0.044 A 
ATOM     31  C   UNL     1      -4.457  -0.084   2.780  0.00  0.00    +0.044 A 
ATOM     32 CL   UNL     1      -6.990   0.708   2.248  0.00  0.00    -0.083 Cl
ATOM     33 CL   UNL     1      -2.751   4.058   2.288  0.00  0.00    -0.083 Cl
ENDBRANCH  18  26
TORSDOF 1
