REMARK  Name = ZINC39666171
REMARK  8 active torsions:
REMARK  status: ('A' for Active; 'I' for Inactive)
REMARK    1  A    between atoms: C_1  and  C_2
REMARK    2  A    between atoms: C_5  and  O_8
REMARK    3  A    between atoms: O_8  and  C_9
REMARK    4  A    between atoms: C_9  and  C_11
REMARK    5  A    between atoms: C_9  and  C_12
REMARK    6  A    between atoms: C_12  and  N_13
REMARK    7  A    between atoms: C_14  and  C_16
REMARK    8  A    between atoms: C_27  and  C_29
REMARK                            x       y       z     vdW  Elec       q    Type
REMARK                         _______ _______ _______ _____ _____    ______ ____
ROOT
ATOM      1  C   UNL     1      -6.026  -4.960  -3.084  0.00  0.00    +0.100 C 
ATOM      2  C   UNL     1      -4.957  -5.435  -4.094  0.00  0.00    +0.121 C 
ATOM      3  N   UNL     1      -4.520  -6.755  -3.583  0.00  0.00    -0.296 N 
ATOM      4  C   UNL     1      -5.767  -7.395  -3.099  0.00  0.00    +0.115 C 
ATOM      5  C   UNL     1      -6.557  -6.250  -2.436  0.00  0.00    -0.004 C 
ATOM      6  C   UNL     1      -8.049  -6.406  -2.717  0.00  0.00    -0.010 C 
ATOM      7  C   UNL     1      -8.567  -7.664  -2.014  0.00  0.00    -0.082 C 
ATOM      8  N   UNL     1      -8.329  -7.553  -0.569  0.00  0.00    +0.379 N 
ATOM      9  C   UNL     1      -6.887  -7.497  -0.302  0.00  0.00    -0.082 C 
ATOM     10  C   UNL     1      -6.298  -6.232  -0.933  0.00  0.00    -0.010 C 
ATOM     11  C   UNL     1      -3.270  -7.261  -3.563  0.00  0.00    +0.249 C 
ATOM     12  O   UNL     1      -3.083  -8.404  -3.194  0.00  0.00    -0.270 OA
ATOM     13  H   UNL     1      -8.767  -6.713  -0.221  0.00  0.00    -0.086 HD
ATOM     14  H   UNL     1      -8.725  -8.355  -0.102  0.00  0.00    -0.086 HD
ENDROOT
BRANCH  11  15
ATOM     15  C   UNL     1      -2.129  -6.426  -3.990  0.00  0.00    +0.073 A 
ATOM     16  C   UNL     1      -1.639  -5.425  -3.148  0.00  0.00    +0.036 A 
ATOM     17  C   UNL     1      -0.572  -4.649  -3.552  0.00  0.00    +0.042 A 
ATOM     18  C   UNL     1       0.014  -4.860  -4.790  0.00  0.00    +0.023 A 
ATOM     19  C   UNL     1      -0.465  -5.849  -5.629  0.00  0.00    +0.040 A 
ATOM     20  C   UNL     1      -1.530  -6.638  -5.235  0.00  0.00    +0.136 A 
ATOM     21  F   UNL     1      -1.994  -7.608  -6.053  0.00  0.00    -0.205 F 
ATOM     22 CL   UNL     1       0.037  -3.404  -2.507  0.00  0.00    -0.084 Cl
ENDBRANCH  11  15
BRANCH   1  24
ATOM     23  N   UNL     1      -6.163  -3.170  -1.383  0.00  0.00    -0.312 N 
ATOM     24  C   UNL     1      -5.403  -4.067  -2.042  0.00  0.00    +0.218 C 
ATOM     25  O   UNL     1      -4.219  -4.157  -1.796  0.00  0.00    -0.275 OA
ATOM     26  H   UNL     1      -7.123  -3.154  -1.520  0.00  0.00    +0.149 HD
BRANCH  23  27
ATOM     27  C   UNL     1      -5.538  -2.220  -0.459  0.00  0.00    +0.148 C 
BRANCH  27  28
ATOM     28  C   UNL     1      -6.593  -1.238   0.054  0.00  0.00    +0.187 C 
ATOM     29  C   UNL     1      -6.057  -0.513   1.290  0.00  0.00    +0.053 C 
BRANCH  28  30
ATOM     30  O   UNL     1      -6.893  -0.284  -0.966  0.00  0.00    -0.488 OA
BRANCH  30  35
ATOM     31  C   UNL     1     -11.782   2.478  -0.527  0.00  0.00    +0.044 C 
ATOM     32  C   UNL     1     -10.474   1.740  -0.644  0.00  0.00    -0.050 A 
ATOM     33  C   UNL     1      -9.627   2.000  -1.706  0.00  0.00    +0.007 A 
ATOM     34  C   UNL     1      -8.428   1.323  -1.816  0.00  0.00    +0.046 A 
ATOM     35  C   UNL     1      -8.073   0.383  -0.860  0.00  0.00    +0.121 A 
ATOM     36  C   UNL     1      -8.924   0.124   0.205  0.00  0.00    +0.046 A 
ATOM     37  C   UNL     1     -10.120   0.807   0.313  0.00  0.00    +0.007 A 
ENDBRANCH  30  35
ENDBRANCH  28  30
ENDBRANCH  27  28
ENDBRANCH  23  27
ENDBRANCH   1  24
TORSDOF 6
