REMARK  Name = ZINC12151289
REMARK  10 active torsions:
REMARK  status: ('A' for Active; 'I' for Inactive)
REMARK    1  A    between atoms: C_1  and  C_2
REMARK    2  A    between atoms: C_6  and  C_8
REMARK    3  A    between atoms: C_8  and  N_9
REMARK    4  A    between atoms: N_9  and  C_10
REMARK    5  A    between atoms: C_11  and  C_13
REMARK    6  A    between atoms: C_13  and  C_14
REMARK    7  A    between atoms: C_14  and  C_15
REMARK    8  A    between atoms: C_15  and  C_21
REMARK    9  A    between atoms: C_21  and  C_22
REMARK   10  A    between atoms: C_25  and  C_28
REMARK                            x       y       z     vdW  Elec       q    Type
REMARK                         _______ _______ _______ _____ _____    ______ ____
ROOT
ATOM      1  C   UNL     1      -4.181  -7.325  -0.517  0.00  0.00    +0.039 C 
ATOM      2  C   UNL     1      -5.725  -7.372  -0.544  0.00  0.00    +0.035 C 
ATOM      3  C   UNL     1      -5.998  -7.961  -1.948  0.00  0.00    +0.098 C 
ATOM      4  C   UNL     1      -4.767  -7.598  -2.748  0.00  0.00    +0.214 C 
ATOM      5  O   UNL     1      -4.693  -7.625  -3.958  0.00  0.00    -0.276 OA
ATOM      6  N   UNL     1      -3.768  -7.241  -1.923  0.00  0.00    -0.309 N 
ATOM      7  H   UNL     1      -2.887  -6.963  -2.219  0.00  0.00    +0.149 HD
ENDROOT
BRANCH   1   8
ATOM      8  C   UNL     1      -3.703  -6.091   0.250  0.00  0.00    +0.035 C 
BRANCH   8   9
ATOM      9  C   UNL     1      -2.185  -5.959   0.107  0.00  0.00    +0.098 C 
BRANCH   9  12
ATOM     10  N   UNL     1      -0.404  -4.426   0.879  0.00  0.00    -0.297 N 
ATOM     11  C   UNL     1       0.562  -5.263   0.162  0.00  0.00    +0.132 C 
ATOM     12  C   UNL     1      -1.713  -4.743   0.863  0.00  0.00    +0.216 C 
ATOM     13  O   UNL     1      -2.512  -4.051   1.457  0.00  0.00    -0.276 OA
BRANCH  10  14
ATOM     14  C   UNL     1       0.055  -3.244   1.613  0.00  0.00    +0.179 C 
BRANCH  14  20
ATOM     15  C   UNL     1      -0.018   1.503   0.010  0.00  0.00    +0.065 C 
ATOM     16  C   UNL     1       0.002  -0.004   0.002  0.00  0.00    +0.030 A 
ATOM     17  C   UNL     1       0.008  -0.789  -1.092  0.00  0.00    +0.105 A 
ATOM     18  N   UNL     1       0.029  -2.085  -0.650  0.00  0.00    -0.348 N 
ATOM     19  H   UNL     1       0.037  -2.882  -1.202  0.00  0.00    +0.166 HD
ATOM     20  C   UNL     1       0.034  -2.046   0.700  0.00  0.00    +0.102 A 
ATOM     21  N   UNL     1       0.023  -0.798   1.083  0.00  0.00    -0.346 N 
ATOM     22  H   UNL     1       0.028  -0.493   2.004  0.00  0.00    +0.167 HD
ENDBRANCH  14  20
ENDBRANCH  10  14
ENDBRANCH   9  12
ENDBRANCH   8   9
ENDBRANCH   1   8
BRANCH   1  23
ATOM     23  C   UNL     1      -3.622  -8.596   0.124  0.00  0.00    +0.061 C 
BRANCH  23  24
ATOM     24  C   UNL     1      -4.001  -9.790  -0.713  0.00  0.00    -0.045 A 
ATOM     25  C   UNL     1      -5.188 -10.457  -0.465  0.00  0.00    +0.004 A 
ATOM     26  C   UNL     1      -5.540 -11.551  -1.229  0.00  0.00    +0.009 A 
ATOM     27  C   UNL     1      -4.698 -11.984  -2.252  0.00  0.00    -0.018 A 
ATOM     28  C   UNL     1      -3.505 -11.309  -2.497  0.00  0.00    +0.009 A 
ATOM     29  C   UNL     1      -3.165 -10.212  -1.731  0.00  0.00    +0.004 A 
BRANCH  27  30
ATOM     30  C   UNL     1      -5.072 -13.160  -3.076  0.00  0.00    -0.018 A 
ATOM     31  C   UNL     1      -6.268 -13.832  -2.834  0.00  0.00    +0.008 A 
ATOM     32  C   UNL     1      -6.610 -14.925  -3.604  0.00  0.00    +0.001 A 
ATOM     33  C   UNL     1      -5.768 -15.354  -4.614  0.00  0.00    +0.000 A 
ATOM     34  C   UNL     1      -4.579 -14.691  -4.858  0.00  0.00    +0.001 A 
ATOM     35  C   UNL     1      -4.230 -13.593  -4.098  0.00  0.00    +0.008 A 
ENDBRANCH  27  30
ENDBRANCH  23  24
ENDBRANCH   1  23
TORSDOF 8
