REMARK  Name = ZINC39664348
REMARK  7 active torsions:
REMARK  status: ('A' for Active; 'I' for Inactive)
REMARK    1  A    between atoms: C_1  and  C_2
REMARK    2  A    between atoms: C_2  and  C_8
REMARK    3  A    between atoms: C_12  and  C_21
REMARK    4  A    between atoms: N_23  and  C_24
REMARK    5  A    between atoms: C_24  and  C_25
REMARK    6  A    between atoms: C_25  and  C_27
REMARK    7  A    between atoms: C_25  and  N_33
REMARK                            x       y       z     vdW  Elec       q    Type
REMARK                         _______ _______ _______ _____ _____    ______ ____
ROOT
ATOM      1  C   UNL     1      -0.177   1.355  -1.082  0.00  0.00    +0.222 C 
ATOM      2  O   UNL     1      -0.278   0.953   0.058  0.00  0.00    -0.275 OA
ATOM      3  N   UNL     1      -1.236   1.293  -1.914  0.00  0.00    -0.300 N 
ATOM      4  C   UNL     1      -1.276   1.623  -3.358  0.00  0.00    +0.121 C 
ATOM      5  C   UNL     1      -2.193   0.546  -3.980  0.00  0.00    +0.100 C 
ATOM      6  C   UNL     1      -3.075   0.062  -2.817  0.00  0.00    -0.004 C 
ATOM      7  C   UNL     1      -2.621   0.872  -1.593  0.00  0.00    +0.115 C 
ATOM      8  C   UNL     1      -4.545   0.337  -3.118  0.00  0.00    -0.010 C 
ATOM      9  C   UNL     1      -5.406  -0.205  -1.973  0.00  0.00    -0.082 C 
ATOM     10  N   UNL     1      -5.177  -1.647  -1.827  0.00  0.00    +0.379 N 
ATOM     11  C   UNL     1      -3.782  -1.897  -1.446  0.00  0.00    -0.082 C 
ATOM     12  C   UNL     1      -2.852  -1.427  -2.568  0.00  0.00    -0.010 C 
ATOM     13  H   UNL     1      -5.790  -2.013  -1.113  0.00  0.00    -0.086 HD
ATOM     14  H   UNL     1      -5.373  -2.108  -2.703  0.00  0.00    -0.086 HD
ENDROOT
BRANCH   1  16
ATOM     15  C   UNL     1       1.733   0.993  -2.621  0.00  0.00    +0.021 C 
ATOM     16  C   UNL     1       1.131   1.925  -1.568  0.00  0.00    +0.044 C 
ATOM     17  C   UNL     1       2.098   2.056  -0.390  0.00  0.00    +0.016 C 
ATOM     18  C   UNL     1       1.496   2.988   0.663  0.00  0.00    +0.001 C 
ATOM     19  C   UNL     1       1.254   4.367   0.046  0.00  0.00    +0.000 C 
ATOM     20  C   UNL     1       0.286   4.235  -1.132  0.00  0.00    +0.001 C 
ATOM     21  C   UNL     1       0.888   3.303  -2.185  0.00  0.00    +0.016 C 
ENDBRANCH   1  16
BRANCH   5  22
ATOM     22  C   UNL     1      -1.369  -0.593  -4.525  0.00  0.00    +0.218 C 
ATOM     23  O   UNL     1      -0.329  -0.902  -3.984  0.00  0.00    -0.275 OA
ATOM     24  N   UNL     1      -1.788  -1.266  -5.615  0.00  0.00    -0.313 N 
ATOM     25  H   UNL     1      -2.620  -1.018  -6.048  0.00  0.00    +0.149 HD
BRANCH  24  26
ATOM     26  C   UNL     1      -0.988  -2.372  -6.145  0.00  0.00    +0.127 C 
BRANCH  26  27
ATOM     27  C   UNL     1      -1.682  -2.961  -7.375  0.00  0.00    +0.104 C 
BRANCH  27  28
ATOM     28  C   UNL     1      -0.924  -4.175  -7.847  0.00  0.00    -0.029 A 
ATOM     29  C   UNL     1      -0.575  -4.297  -9.179  0.00  0.00    +0.005 A 
ATOM     30  C   UNL     1       0.121  -5.410  -9.612  0.00  0.00    +0.000 A 
ATOM     31  C   UNL     1       0.468  -6.401  -8.713  0.00  0.00    +0.000 A 
ATOM     32  C   UNL     1       0.119  -6.279  -7.381  0.00  0.00    +0.000 A 
ATOM     33  C   UNL     1      -0.573  -5.164  -6.947  0.00  0.00    +0.005 A 
ENDBRANCH  27  28
BRANCH  27  34
ATOM     34  N   UNL     1      -3.055  -3.348  -7.024  0.00  0.00    -0.290 NA
ATOM     35  C   UNL     1      -3.061  -4.373  -5.970  0.00  0.00    +0.113 C 
ATOM     36  C   UNL     1      -4.508  -4.702  -5.593  0.00  0.00    +0.175 C 
ATOM     37  O   UNL     1      -5.215  -5.123  -6.763  0.00  0.00    -0.377 OA
ATOM     38  C   UNL     1      -5.230  -4.149  -7.809  0.00  0.00    +0.175 C 
ATOM     39  C   UNL     1      -3.791  -3.814  -8.208  0.00  0.00    +0.113 C 
ENDBRANCH  27  34
ENDBRANCH  26  27
ENDBRANCH  24  26
ENDBRANCH   5  22
TORSDOF 6
