REMARK  Name = ZINC49490354
REMARK  8 active torsions:
REMARK  status: ('A' for Active; 'I' for Inactive)
REMARK    1  A    between atoms: C_1  and  N_2
REMARK    2  A    between atoms: N_5  and  C_8
REMARK    3  A    between atoms: C_8  and  C_10
REMARK    4  A    between atoms: C_8  and  C_25
REMARK    5  A    between atoms: C_10  and  N_11
REMARK    6  A    between atoms: C_12  and  C_14
REMARK    7  A    between atoms: C_15  and  C_16
REMARK    8  A    between atoms: C_19  and  N_22
REMARK                            x       y       z     vdW  Elec       q    Type
REMARK                         _______ _______ _______ _____ _____    ______ ____
ROOT
ATOM      1  C   UNL     1       1.472  -3.973  -0.046  0.00  0.00    +0.104 C 
ENDROOT
BRANCH   1   6
ATOM      2  C   UNL     1      -0.290   1.372   0.230  0.00  0.00    -0.096 C 
ATOM      3  N   UNL     1      -0.191  -0.093   0.174  0.00  0.00    +0.379 N 
ATOM      4  C   UNL     1       0.470  -0.491  -1.076  0.00  0.00    -0.064 C 
ATOM      5  C   UNL     1       0.557  -2.017  -1.143  0.00  0.00    +0.066 C 
ATOM      6  N   UNL     1       1.317  -2.513   0.013  0.00  0.00    -0.297 NA
ATOM      7  C   UNL     1       0.681  -2.101   1.272  0.00  0.00    +0.066 C 
ATOM      8  C   UNL     1       0.593  -0.574   1.319  0.00  0.00    -0.064 C 
ATOM      9  H   UNL     1      -1.116  -0.494   0.208  0.00  0.00    -0.082 HD
ENDBRANCH   1   6
BRANCH   1  10
ATOM     10  C   UNL     1       2.194  -4.351  -1.313  0.00  0.00    -0.029 A 
ATOM     11  C   UNL     1       3.256  -3.586  -1.758  0.00  0.00    +0.008 A 
ATOM     12  C   UNL     1       3.919  -3.932  -2.920  0.00  0.00    +0.038 A 
ATOM     13  C   UNL     1       3.520  -5.046  -3.639  0.00  0.00    +0.123 A 
ATOM     14  C   UNL     1       2.456  -5.812  -3.193  0.00  0.00    +0.038 A 
ATOM     15  C   UNL     1       1.797  -5.467  -2.028  0.00  0.00    +0.008 A 
ATOM     16  F   UNL     1       4.167  -5.385  -4.775  0.00  0.00    -0.205 F 
ENDBRANCH   1  10
BRANCH   1  17
ATOM     17  C   UNL     1       2.279  -4.449   1.163  0.00  0.00    +0.128 C 
BRANCH  17  18
ATOM     18  N   UNL     1       2.354  -5.913   1.154  0.00  0.00    -0.310 N 
ATOM     19  C   UNL     1       2.949  -6.563   2.174  0.00  0.00    +0.237 C 
ATOM     20  O   UNL     1       3.424  -5.935   3.102  0.00  0.00    -0.271 OA
ATOM     21  H   UNL     1       1.976  -6.413   0.415  0.00  0.00    +0.149 HD
BRANCH  19  22
ATOM     22  C   UNL     1       3.024  -8.025   2.165  0.00  0.00    +0.068 C 
ATOM     23  C   UNL     1       3.619  -8.676   3.185  0.00  0.00    +0.013 C 
BRANCH  23  24
ATOM     24  C   UNL     1       3.694 -10.146   3.176  0.00  0.00    -0.025 A 
ATOM     25  C   UNL     1       3.155 -10.871   2.109  0.00  0.00    +0.010 A 
ATOM     26  C   UNL     1       3.230 -12.248   2.108  0.00  0.00    +0.033 A 
ATOM     27  C   UNL     1       3.836 -12.912   3.160  0.00  0.00    +0.126 A 
ATOM     28  C   UNL     1       4.372 -12.202   4.220  0.00  0.00    +0.033 A 
ATOM     29  C   UNL     1       4.311 -10.824   4.232  0.00  0.00    +0.010 A 
BRANCH  27  30
ATOM     30  N   UNL     1       3.912 -14.390   3.151  0.00  0.00    +0.056 N 
ATOM     31  O   UNL     1       3.445 -15.014   2.227  0.00  0.00    -0.126 OA
ATOM     32  O   UNL     1       4.441 -14.974   4.068  0.00  0.00    -0.126 OA
ENDBRANCH  27  30
ENDBRANCH  23  24
ENDBRANCH  19  22
ENDBRANCH  17  18
ENDBRANCH   1  17
TORSDOF 7
