REMARK  Name = ZINC66594654
REMARK  6 active torsions:
REMARK  status: ('A' for Active; 'I' for Inactive)
REMARK    1  A    between atoms: C_1  and  C_2
REMARK    2  A    between atoms: C_7  and  N_10
REMARK    3  A    between atoms: C_11  and  C_13
REMARK    4  A    between atoms: C_13  and  N_14
REMARK    5  A    between atoms: N_22  and  C_23
REMARK    6  A    between atoms: C_26  and  C_29
REMARK                            x       y       z     vdW  Elec       q    Type
REMARK                         _______ _______ _______ _____ _____    ______ ____
ROOT
ATOM      1  N   UNL     1       3.252  -5.984   2.651  0.00  0.00    -0.291 NA
ATOM      2  C   UNL     1       4.030  -6.514   1.524  0.00  0.00    +0.104 C 
ATOM      3  C   UNL     1       4.314  -8.002   1.758  0.00  0.00    +0.124 C 
ATOM      4  N   UNL     1       4.947  -8.154   3.077  0.00  0.00    -0.283 N 
ATOM      5  C   UNL     1       4.296  -7.530   4.238  0.00  0.00    +0.124 C 
ATOM      6  C   UNL     1       4.013  -6.061   3.906  0.00  0.00    +0.104 C 
ATOM      7  C   UNL     1       6.094  -8.848   3.217  0.00  0.00    +0.307 C 
ATOM      8  O   UNL     1       6.569  -9.437   2.265  0.00  0.00    -0.252 OA
ATOM      9  N   UNL     1       6.714  -8.890   4.413  0.00  0.00    -0.269 N 
ATOM     10  H   UNL     1       6.285  -8.511   5.196  0.00  0.00    +0.156 HD
ENDROOT
BRANCH   9  11
ATOM     11  C   UNL     1       7.974  -9.479   4.525  0.00  0.00    +0.035 A 
ATOM     12  C   UNL     1       8.879  -9.387   3.473  0.00  0.00    +0.024 A 
ATOM     13  C   UNL     1      10.123  -9.968   3.580  0.00  0.00    +0.020 A 
ATOM     14  C   UNL     1      10.476 -10.649   4.748  0.00  0.00    +0.052 A 
ATOM     15  C   UNL     1       9.565 -10.740   5.803  0.00  0.00    +0.020 A 
ATOM     16  C   UNL     1       8.324 -10.153   5.691  0.00  0.00    +0.024 A 
BRANCH  14  17
ATOM     17  C   UNL     1      11.769 -11.255   4.863  0.00  0.00    +0.099 C 
ATOM     18  N   UNL     1      12.795 -11.735   4.954  0.00  0.00    -0.191 NA
ENDBRANCH  14  17
ENDBRANCH   9  11
BRANCH   1  19
ATOM     19  C   UNL     1       2.812  -4.607   2.386  0.00  0.00    +0.180 C 
BRANCH  19  21
ATOM     20  N   UNL     1       1.298  -3.444   0.814  0.00  0.00    -0.311 N 
ATOM     21  C   UNL     1       1.838  -4.604   1.237  0.00  0.00    +0.227 C 
ATOM     22  O   UNL     1       1.540  -5.646   0.692  0.00  0.00    -0.274 OA
ATOM     23  H   UNL     1       1.537  -2.611   1.250  0.00  0.00    +0.149 HD
BRANCH  20  29
ATOM     24  C   UNL     1      -0.606  -0.694  -2.827  0.00  0.00    +0.007 C 
ATOM     25  C   UNL     1      -0.622  -2.066  -2.149  0.00  0.00    -0.012 C 
ATOM     26  C   UNL     1      -2.030  -2.360  -1.625  0.00  0.00    +0.003 C 
ATOM     27  C   UNL     1      -2.045  -3.731  -0.948  0.00  0.00    +0.002 C 
ATOM     28  C   UNL     1      -1.056  -3.735   0.220  0.00  0.00    +0.022 C 
ATOM     29  C   UNL     1       0.351  -3.441  -0.304  0.00  0.00    +0.073 C 
ATOM     30  C   UNL     1       0.367  -2.069  -0.982  0.00  0.00    +0.025 C 
ENDBRANCH  20  29
ENDBRANCH  19  21
ENDBRANCH   1  19
TORSDOF 5
