REMARK  Name = ZINC13127025
REMARK  13 active torsions:
REMARK  status: ('A' for Active; 'I' for Inactive)
REMARK    1  A    between atoms: C_1  and  C_2
REMARK    2  A    between atoms: C_4  and  C_34
REMARK    3  A    between atoms: C_5  and  O_33
REMARK    4  A    between atoms: C_6  and  C_8
REMARK    5  A    between atoms: N_16  and  C_28
REMARK    6  A    between atoms: C_17  and  C_19
REMARK    7  A    between atoms: C_22  and  O_27
REMARK    8  A    between atoms: C_23  and  O_25
REMARK    9  A    between atoms: O_25  and  C_26
REMARK   10  A    between atoms: C_28  and  C_29
REMARK   11  A    between atoms: C_29  and  C_30
REMARK   12  A    between atoms: C_30  and  O_31
REMARK   13  A    between atoms: O_31  and  C_32
REMARK                            x       y       z     vdW  Elec       q    Type
REMARK                         _______ _______ _______ _____ _____    ______ ____
ROOT
ATOM      1  C   UNL     1       0.052  -2.841   2.463  0.00  0.00    +0.075 A 
ATOM      2  C   UNL     1       1.054  -3.632   2.928  0.00  0.00    +0.035 A 
ATOM      3  C   UNL     1       0.613  -4.128   4.175  0.00  0.00    +0.153 A 
ATOM      4  N   UNL     1      -0.588  -3.625   4.385  0.00  0.00    -0.168 NA
ATOM      5  N   UNL     1      -0.936  -2.868   3.406  0.00  0.00    -0.276 N 
ATOM      6  H   UNL     1      -1.777  -2.389   3.345  0.00  0.00    +0.189 HD
ATOM      7  C   UNL     1       1.674  -4.994   4.719  0.00  0.00    +0.268 C 
ATOM      8  O   UNL     1       1.613  -5.581   5.782  0.00  0.00    -0.268 OA
ATOM      9  N   UNL     1       2.717  -5.045   3.874  0.00  0.00    -0.285 N 
ATOM     10  C   UNL     1       2.424  -4.212   2.702  0.00  0.00    +0.141 C 
ENDROOT
BRANCH   1  16
ATOM     11  C   UNL     1      -0.018   1.503   0.010  0.00  0.00    +0.044 C 
ATOM     12  C   UNL     1       0.002  -0.004   0.002  0.00  0.00    -0.049 A 
ATOM     13  C   UNL     1       0.006  -0.687  -1.202  0.00  0.00    +0.010 A 
ATOM     14  C   UNL     1       0.024  -2.069  -1.221  0.00  0.00    -0.008 A 
ATOM     15  C   UNL     1       0.040  -2.779  -0.031  0.00  0.00    +0.129 A 
ATOM     16  C   UNL     1       0.036  -2.092   1.188  0.00  0.00    +0.042 A 
ATOM     17  C   UNL     1       0.023  -0.698   1.195  0.00  0.00    +0.017 A 
ATOM     18  C   UNL     1       0.028  -2.804  -2.536  0.00  0.00    +0.047 C 
BRANCH  15  19
ATOM     19  O   UNL     1       0.058  -4.137  -0.049  0.00  0.00    -0.506 OA
ATOM     20  H   UNL     1       0.946  -4.519  -0.058  0.00  0.00    +0.292 HD
ENDBRANCH  15  19
ENDBRANCH   1  16
BRANCH  10  21
ATOM     21  C   UNL     1       3.441  -3.107   2.585  0.00  0.00    -0.019 A 
ATOM     22  C   UNL     1       3.914  -2.482   3.724  0.00  0.00    +0.009 A 
ATOM     23  C   UNL     1       4.848  -1.467   3.622  0.00  0.00    +0.049 A 
ATOM     24  C   UNL     1       5.311  -1.075   2.377  0.00  0.00    +0.158 A 
ATOM     25  C   UNL     1       4.836  -1.704   1.230  0.00  0.00    +0.162 A 
ATOM     26  C   UNL     1       3.904  -2.724   1.340  0.00  0.00    +0.055 A 
BRANCH  25  27
ATOM     27  O   UNL     1       5.288  -1.323   0.006  0.00  0.00    -0.491 OA
ATOM     28  C   UNL     1       4.755  -2.013  -1.126  0.00  0.00    +0.277 C 
ENDBRANCH  25  27
BRANCH  24  29
ATOM     29  O   UNL     1       6.229  -0.076   2.275  0.00  0.00    -0.503 OA
ATOM     30  H   UNL     1       7.147  -0.381   2.301  0.00  0.00    +0.292 HD
ENDBRANCH  24  29
ENDBRANCH  10  21
BRANCH   9  31
ATOM     31  C   UNL     1       3.950  -5.808   4.088  0.00  0.00    +0.111 C 
BRANCH  31  32
ATOM     32  C   UNL     1       3.788  -7.212   3.502  0.00  0.00    +0.047 C 
BRANCH  32  33
ATOM     33  C   UNL     1       5.075  -8.009   3.725  0.00  0.00    +0.161 C 
BRANCH  33  34
ATOM     34  O   UNL     1       4.925  -9.320   3.178  0.00  0.00    -0.383 OA
ATOM     35  C   UNL     1       6.077 -10.151   3.334  0.00  0.00    +0.193 C 
ENDBRANCH  33  34
ENDBRANCH  32  33
ENDBRANCH  31  32
ENDBRANCH   9  31
TORSDOF 9
