REMARK  Name = ZINC39560737
REMARK  9 active torsions:
REMARK  status: ('A' for Active; 'I' for Inactive)
REMARK    1  A    between atoms: C_1  and  O_2
REMARK    2  A    between atoms: O_2  and  C_3
REMARK    3  A    between atoms: C_3  and  C_5
REMARK    4  A    between atoms: C_20  and  C_35
REMARK    5  A    between atoms: C_23  and  N_26
REMARK    6  A    between atoms: N_26  and  C_27
REMARK    7  A    between atoms: C_27  and  C_28
REMARK    8  A    between atoms: C_28  and  C_29
REMARK    9  A    between atoms: C_29  and  N_30
REMARK                            x       y       z     vdW  Elec       q    Type
REMARK                         _______ _______ _______ _____ _____    ______ ____
ROOT
ATOM      1  C   UNL     1       0.657  -2.104  -1.120  0.00  0.00    +0.172 C 
ATOM      2  C   UNL     1       1.517  -2.640   0.034  0.00  0.00    +0.067 C 
ATOM      3  C   UNL     1       2.953  -2.277  -0.252  0.00  0.00    -0.017 C 
ATOM      4  C   UNL     1       4.019  -2.273   0.563  0.00  0.00    -0.013 C 
ATOM      5  C   UNL     1       4.147  -2.625   2.018  0.00  0.00    +0.064 C 
ATOM      6  C   UNL     1       5.572  -2.451   2.460  0.00  0.00    -0.022 C 
ATOM      7  C   UNL     1       6.566  -2.046   1.676  0.00  0.00    -0.002 C 
ATOM      8  C   UNL     1       6.405  -1.724   0.313  0.00  0.00    +0.028 C 
ATOM      9  C   UNL     1       5.126  -1.843  -0.230  0.00  0.00    +0.068 C 
ATOM     10  N   UNL     1       4.681  -1.611  -1.473  0.00  0.00    -0.250 NA
ATOM     11  C   UNL     1       3.397  -1.859  -1.526  0.00  0.00    +0.063 C 
ATOM     12  C   UNL     1       2.469  -1.750  -2.710  0.00  0.00    +0.106 C 
ATOM     13  N   UNL     1       1.244  -2.503  -2.403  0.00  0.00    -0.274 NA
ATOM     14  C   UNL     1       0.275  -2.393  -3.500  0.00  0.00    +0.087 C 
ATOM     15  C   UNL     1       0.872  -3.007  -4.768  0.00  0.00    +0.008 C 
ATOM     16  C   UNL     1       2.169  -2.277  -5.127  0.00  0.00    -0.068 C 
ATOM     17  C   UNL     1       3.142  -2.339  -3.951  0.00  0.00    +0.009 C 
ENDROOT
BRANCH  14  18
ATOM     18  C   UNL     1      -0.988  -3.127  -3.131  0.00  0.00    -0.030 A 
ATOM     19  C   UNL     1      -0.915  -4.336  -2.465  0.00  0.00    +0.005 A 
ATOM     20  C   UNL     1      -2.074  -5.010  -2.126  0.00  0.00    +0.000 A 
ATOM     21  C   UNL     1      -3.305  -4.475  -2.454  0.00  0.00    +0.000 A 
ATOM     22  C   UNL     1      -3.379  -3.265  -3.120  0.00  0.00    +0.000 A 
ATOM     23  C   UNL     1      -2.220  -2.589  -3.454  0.00  0.00    +0.005 A 
ENDBRANCH  14  18
BRANCH  16  24
ATOM     24  N   UNL     1       1.872  -0.869  -5.425  0.00  0.00    +0.381 N 
ATOM     25  H   UNL     1       1.380  -0.457  -4.646  0.00  0.00    -0.086 HD
ATOM     26  H   UNL     1       2.735  -0.369  -5.580  0.00  0.00    -0.086 HD
BRANCH  24  27
ATOM     27  C   UNL     1       1.036  -0.790  -6.630  0.00  0.00    -0.081 C 
BRANCH  27  28
ATOM     28  C   UNL     1       0.727   0.676  -6.940  0.00  0.00    +0.003 C 
BRANCH  28  29
ATOM     29  C   UNL     1      -0.144   0.759  -8.195  0.00  0.00    +0.121 C 
BRANCH  29  30
ATOM     30  N   UNL     1      -0.440   2.163  -8.492  0.00  0.00    -0.337 N 
ATOM     31  C   UNL     1      -1.507   2.884  -8.028  0.00  0.00    +0.106 A 
ATOM     32  C   UNL     1      -1.393   4.123  -8.542  0.00  0.00    +0.130 A 
ATOM     33  N   UNL     1      -0.287   4.158  -9.300  0.00  0.00    -0.244 NA
ATOM     34  C   UNL     1       0.291   2.988  -9.271  0.00  0.00    +0.199 A 
ENDBRANCH  29  30
ENDBRANCH  28  29
ENDBRANCH  27  28
ENDBRANCH  24  27
ENDBRANCH  16  24
BRANCH   1  35
ATOM     35  C   UNL     1       0.598  -0.600  -1.043  0.00  0.00    +0.325 C 
ATOM     36  O   UNL     1       1.576   0.058  -1.309  0.00  0.00    -0.249 OA
BRANCH  35  38
ATOM     37  C   UNL     1      -0.525   1.437  -0.626  0.00  0.00    +0.280 C 
ATOM     38  O   UNL     1      -0.541   0.009  -0.678  0.00  0.00    -0.467 OA
ENDBRANCH  35  38
ENDBRANCH   1  35
TORSDOF 8
