REMARK  Name = ZINC58881267
REMARK  8 active torsions:
REMARK  status: ('A' for Active; 'I' for Inactive)
REMARK    1  A    between atoms: C_3  and  O_22
REMARK    2  A    between atoms: C_6  and  C_7
REMARK    3  A    between atoms: N_8  and  N_9
REMARK    4  A    between atoms: C_10  and  C_12
REMARK    5  A    between atoms: N_14  and  C_15
REMARK    6  A    between atoms: O_22  and  C_23
REMARK    7  A    between atoms: C_23  and  C_24
REMARK    8  A    between atoms: N_26  and  C_27
REMARK                            x       y       z     vdW  Elec       q    Type
REMARK                         _______ _______ _______ _____ _____    ______ ____
ROOT
ATOM      1  C   UNL     1       0.294   1.538  -0.605  0.00  0.00    +0.013 A 
ATOM      2  C   UNL     1       1.455   2.281  -0.596  0.00  0.00    +0.046 A 
ATOM      3  C   UNL     1       2.683   1.652  -0.436  0.00  0.00    +0.121 A 
ATOM      4  C   UNL     1       2.748   0.273  -0.285  0.00  0.00    +0.046 A 
ATOM      5  C   UNL     1       1.594  -0.479  -0.293  0.00  0.00    +0.013 A 
ATOM      6  C   UNL     1       0.355   0.149  -0.453  0.00  0.00    -0.005 A 
ENDROOT
BRANCH   6   7
ATOM      7  C   UNL     1      -0.883  -0.649  -0.462  0.00  0.00    +0.138 C 
ATOM      8  N   UNL     1      -0.825  -1.940  -0.321  0.00  0.00    -0.187 NA
BRANCH   8   9
ATOM      9  N   UNL     1      -2.002  -2.699  -0.330  0.00  0.00    -0.199 N 
ATOM     10  C   UNL     1      -1.941  -4.038  -0.183  0.00  0.00    +0.318 C 
ATOM     11  O   UNL     1      -0.866  -4.585  -0.044  0.00  0.00    -0.263 OA
ATOM     12  H   UNL     1      -2.860  -2.262  -0.441  0.00  0.00    +0.178 HD
BRANCH  10  13
ATOM     13  C   UNL     1      -3.194  -4.846  -0.192  0.00  0.00    +0.305 C 
ATOM     14  O   UNL     1      -4.268  -4.299  -0.332  0.00  0.00    -0.265 OA
ATOM     15  N   UNL     1      -3.133  -6.185  -0.046  0.00  0.00    -0.278 N 
ATOM     16  H   UNL     1      -2.272  -6.629  -0.002  0.00  0.00    +0.155 HD
BRANCH  15  17
ATOM     17  C   UNL     1      -4.311  -6.932   0.042  0.00  0.00    +0.034 A 
ATOM     18  C   UNL     1      -4.368  -8.045   0.872  0.00  0.00    +0.024 A 
ATOM     19  C   UNL     1      -5.533  -8.781   0.956  0.00  0.00    +0.017 A 
ATOM     20  C   UNL     1      -6.642  -8.412   0.216  0.00  0.00    +0.018 A 
ATOM     21  C   UNL     1      -6.588  -7.304  -0.611  0.00  0.00    +0.017 A 
ATOM     22  C   UNL     1      -5.428  -6.560  -0.696  0.00  0.00    +0.024 A 
ATOM     23 BR   UNL     1      -8.236  -9.424   0.335  0.00  0.00    -0.050 Br
ENDBRANCH  15  17
ENDBRANCH  10  13
ENDBRANCH   8   9
ENDBRANCH   6   7
BRANCH   3  24
ATOM     24  O   UNL     1       3.825   2.389  -0.429  0.00  0.00    -0.483 OA
BRANCH  24  25
ATOM     25  C   UNL     1       5.054   1.679  -0.261  0.00  0.00    +0.324 C 
BRANCH  25  26
ATOM     26  C   UNL     1       6.203   2.654  -0.277  0.00  0.00    +0.255 C 
ATOM     27  O   UNL     1       5.990   3.839  -0.419  0.00  0.00    -0.272 OA
ATOM     28  N   UNL     1       7.467   2.208  -0.135  0.00  0.00    -0.283 N 
ATOM     29  H   UNL     1       7.643   1.255  -0.095  0.00  0.00    +0.155 HD
BRANCH  28  30
ATOM     30  C   UNL     1       8.525   3.120  -0.043  0.00  0.00    +0.034 A 
ATOM     31  C   UNL     1       9.767   2.801  -0.577  0.00  0.00    +0.026 A 
ATOM     32  C   UNL     1      10.809   3.702  -0.486  0.00  0.00    +0.040 A 
ATOM     33  C   UNL     1      10.617   4.924   0.138  0.00  0.00    +0.124 A 
ATOM     34  C   UNL     1       9.379   5.244   0.670  0.00  0.00    +0.040 A 
ATOM     35  C   UNL     1       8.333   4.348   0.576  0.00  0.00    +0.026 A 
ATOM     36  F   UNL     1      11.638   5.804   0.227  0.00  0.00    -0.205 F 
ENDBRANCH  28  30
ENDBRANCH  25  26
ENDBRANCH  24  25
ENDBRANCH   3  24
TORSDOF 8
