REMARK  Name = ZINC31632293
REMARK  12 active torsions:
REMARK  status: ('A' for Active; 'I' for Inactive)
REMARK    1  A    between atoms: C_1  and  C_2
REMARK    2  A    between atoms: C_2  and  C_3
REMARK    3  A    between atoms: C_3  and  C_4
REMARK    4  A    between atoms: C_3  and  C_5
REMARK    5  A    between atoms: C_3  and  C_6
REMARK    6  A    between atoms: C_13  and  N_17
REMARK    7  A    between atoms: C_14  and  C_15
REMARK    8  A    between atoms: C_18  and  C_20
REMARK    9  A    between atoms: C_20  and  N_21
REMARK   10  A    between atoms: C_24  and  C_28
REMARK   11  A    between atoms: C_24  and  C_29
REMARK   12  A    between atoms: C_32  and  C_35
REMARK                            x       y       z     vdW  Elec       q    Type
REMARK                         _______ _______ _______ _____ _____    ______ ____
ROOT
ATOM      1  N   UNL     1       1.834  -3.152   6.945  0.00  0.00    -0.278 N 
ATOM      2  C   UNL     1       2.106  -4.426   6.599  0.00  0.00    +0.236 C 
ATOM      3  O   UNL     1       1.936  -4.794   5.456  0.00  0.00    -0.274 OA
ATOM      4  H   UNL     1       1.988  -2.819   7.982  0.00  0.00    +0.155 HD
ENDROOT
BRANCH   1  11
ATOM      5  C   UNL     1       0.011   1.072   2.506  0.00  0.00    -0.000 C 
ATOM      6  C   UNL     1      -0.713   1.551   3.768  0.00  0.00    +0.009 C 
ATOM      7  C   UNL     1       0.145   1.264   5.001  0.00  0.00    +0.037 C 
ATOM      8  C   UNL     1       0.550  -0.205   4.986  0.00  0.00    -0.018 A 
ATOM      9  C   UNL     1       0.483  -0.933   3.849  0.00  0.00    -0.004 A 
ATOM     10  S   UNL     1       1.042  -2.548   4.314  0.00  0.00    -0.077 S 
ATOM     11  C   UNL     1       1.360  -2.261   5.993  0.00  0.00    +0.090 A 
ATOM     12  C   UNL     1       1.027  -0.924   6.154  0.00  0.00    +0.084 A 
ATOM     13  C   UNL     1       0.034  -0.463   2.501  0.00  0.00    +0.047 C 
BRANCH   5  14
ATOM     14  C   UNL     1      -0.729   1.579   1.267  0.00  0.00    -0.032 C 
ATOM     15  C   UNL     1      -0.750   3.109   1.275  0.00  0.00    +0.011 C 
ATOM     16  C   UNL     1      -2.164   1.050   1.278  0.00  0.00    +0.011 C 
BRANCH  14  18
ATOM     17  C   UNL     1      -0.753   1.593  -1.232  0.00  0.00    +0.004 C 
ATOM     18  C   UNL     1      -0.013   1.086   0.008  0.00  0.00    +0.003 C 
ENDBRANCH  14  18
ENDBRANCH   5  14
BRANCH  12  19
ATOM     19  C   UNL     1       1.150  -0.277   7.425  0.00  0.00    +0.102 C 
ATOM     20  N   UNL     1       1.247   0.236   8.434  0.00  0.00    -0.191 NA
ENDBRANCH  12  19
ENDBRANCH   1  11
BRANCH   2  21
ATOM     21  C   UNL     1       2.620  -5.394   7.633  0.00  0.00    +0.214 C 
BRANCH  21  22
ATOM     22  N   UNL     1       2.837  -6.704   7.012  0.00  0.00    -0.215 N 
ATOM     23  C   UNL     1       3.995  -7.089   6.442  0.00  0.00    +0.251 C 
ATOM     24  O   UNL     1       5.016  -6.442   6.349  0.00  0.00    -0.272 OA
ATOM     25  C   UNL     1       3.756  -8.499   5.941  0.00  0.00    +0.135 C 
ATOM     26  N   UNL     1       2.359  -8.770   6.322  0.00  0.00    -0.281 N 
ATOM     27  C   UNL     1       1.909  -7.666   6.945  0.00  0.00    +0.310 C 
ATOM     28  O   UNL     1       0.786  -7.554   7.395  0.00  0.00    -0.252 OA
ATOM     29  C   UNL     1       4.703  -9.484   6.630  0.00  0.00    +0.047 C 
ATOM     30  H   UNL     1       1.900  -9.739   6.077  0.00  0.00    +0.152 HD
BRANCH  25  31
ATOM     31  C   UNL     1       3.919  -8.565   4.444  0.00  0.00    -0.015 A 
ATOM     32  C   UNL     1       4.789  -7.700   3.805  0.00  0.00    +0.006 A 
ATOM     33  C   UNL     1       4.942  -7.764   2.433  0.00  0.00    +0.004 A 
ATOM     34  C   UNL     1       4.219  -8.684   1.698  0.00  0.00    -0.050 A 
ATOM     35  C   UNL     1       3.345  -9.545   2.336  0.00  0.00    +0.004 A 
ATOM     36  C   UNL     1       3.195  -9.485   3.709  0.00  0.00    +0.006 A 
ATOM     37  C   UNL     1       4.382  -8.750   0.202  0.00  0.00    +0.044 C 
ENDBRANCH  25  31
ENDBRANCH  21  22
ENDBRANCH   2  21
TORSDOF 7
