REMARK  Name = ZINC35089577
REMARK  11 active torsions:
REMARK  status: ('A' for Active; 'I' for Inactive)
REMARK    1  A    between atoms: C_1  and  C_2
REMARK    2  A    between atoms: C_2  and  C_4
REMARK    3  A    between atoms: C_2  and  N_25
REMARK    4  A    between atoms: N_14  and  C_15
REMARK    5  A    between atoms: N_25  and  C_26
REMARK    6  A    between atoms: C_26  and  C_27
REMARK    7  A    between atoms: C_27  and  N_28
REMARK    8  A    between atoms: N_28  and  C_29
REMARK    9  A    between atoms: N_28  and  C_30
REMARK   10  A    between atoms: C_31  and  C_33
REMARK   11  A    between atoms: C_33  and  C_34
REMARK                            x       y       z     vdW  Elec       q    Type
REMARK                         _______ _______ _______ _____ _____    ______ ____
ROOT
ATOM      1  C   UNL     1      -1.283  -0.967   0.134  0.00  0.00    +0.138 A 
ATOM      2  N   UNL     1      -2.128   0.011   0.261  0.00  0.00    -0.231 NA
ATOM      3  C   UNL     1      -3.466  -0.186   0.147  0.00  0.00    +0.078 A 
ATOM      4  C   UNL     1      -4.375   0.865   0.283  0.00  0.00    +0.028 A 
ATOM      5  C   UNL     1      -5.724   0.620   0.160  0.00  0.00    +0.002 A 
ATOM      6  C   UNL     1      -6.194  -0.661  -0.099  0.00  0.00    +0.001 A 
ATOM      7  C   UNL     1      -5.317  -1.714  -0.238  0.00  0.00    +0.015 A 
ATOM      8  C   UNL     1      -3.947  -1.488  -0.117  0.00  0.00    +0.065 A 
ATOM      9  C   UNL     1      -2.965  -2.572  -0.256  0.00  0.00    +0.266 A 
ATOM     10  O   UNL     1      -3.313  -3.716  -0.484  0.00  0.00    -0.267 OA
ATOM     11  N   UNL     1      -1.657  -2.249  -0.126  0.00  0.00    -0.263 N 
ENDROOT
BRANCH  11  12
ATOM     12  C   UNL     1      -0.680  -3.244  -0.255  0.00  0.00    +0.052 A 
ATOM     13  C   UNL     1      -0.466  -4.145   0.794  0.00  0.00    +0.027 A 
ATOM     14  C   UNL     1       0.475  -5.120   0.697  0.00  0.00    +0.010 A 
ATOM     15  C   UNL     1       1.250  -5.232  -0.471  0.00  0.00    -0.018 A 
ATOM     16  C   UNL     1       2.230  -6.231  -0.600  0.00  0.00    +0.008 A 
ATOM     17  C   UNL     1       2.963  -6.313  -1.744  0.00  0.00    +0.001 A 
ATOM     18  C   UNL     1       2.757  -5.419  -2.794  0.00  0.00    +0.001 A 
ATOM     19  C   UNL     1       1.817  -4.440  -2.705  0.00  0.00    +0.008 A 
ATOM     20  C   UNL     1       1.040  -4.324  -1.539  0.00  0.00    -0.016 A 
ATOM     21  C   UNL     1       0.057  -3.329  -1.415  0.00  0.00    +0.034 A 
ENDBRANCH  11  12
BRANCH   1  23
ATOM     22  C   UNL     1       0.410   0.845   0.157  0.00  0.00    +0.036 C 
ATOM     23  C   UNL     1       0.186  -0.664   0.275  0.00  0.00    +0.139 C 
BRANCH  23  24
ATOM     24  N   UNL     1       0.657  -1.128   1.582  0.00  0.00    -0.293 N 
ATOM     25  C   UNL     1       1.718  -1.954   1.662  0.00  0.00    +0.220 C 
ATOM     26  O   UNL     1       2.284  -2.315   0.652  0.00  0.00    -0.275 OA
BRANCH  24  27
ATOM     27  C   UNL     1      -0.026  -0.692   2.803  0.00  0.00    +0.090 C 
BRANCH  27  28
ATOM     28  C   UNL     1      -1.058  -1.745   3.213  0.00  0.00    -0.060 C 
BRANCH  28  29
ATOM     29  N   UNL     1      -1.760  -1.296   4.423  0.00  0.00    +0.377 N 
ATOM     30  C   UNL     1      -2.538  -0.088   4.119  0.00  0.00    -0.097 C 
ATOM     31  C   UNL     1      -2.664  -2.357   4.886  0.00  0.00    -0.097 C 
ATOM     32  H   UNL     1      -1.087  -1.089   5.146  0.00  0.00    -0.083 HD
ENDBRANCH  28  29
ENDBRANCH  27  28
ENDBRANCH  24  27
BRANCH  25  33
ATOM     33  C   UNL     1       2.203  -2.431   3.007  0.00  0.00    +0.131 C 
BRANCH  33  34
ATOM     34  C   UNL     1       3.392  -3.337   2.821  0.00  0.00    -0.039 A 
ATOM     35  C   UNL     1       3.207  -4.697   2.658  0.00  0.00    +0.004 A 
ATOM     36  C   UNL     1       4.298  -5.528   2.487  0.00  0.00    +0.000 A 
ATOM     37  C   UNL     1       5.575  -4.999   2.479  0.00  0.00    +0.000 A 
ATOM     38  C   UNL     1       5.761  -3.639   2.641  0.00  0.00    +0.000 A 
ATOM     39  C   UNL     1       4.669  -2.807   2.807  0.00  0.00    +0.004 A 
ENDBRANCH  33  34
ENDBRANCH  25  33
ENDBRANCH  23  24
ENDBRANCH   1  23
TORSDOF 8
