REMARK  Name = ZINC22031181
REMARK  6 active torsions:
REMARK  status: ('A' for Active; 'I' for Inactive)
REMARK    1  A    between atoms: C_1  and  C_2
REMARK    2  A    between atoms: C_16  and  C_17
REMARK    3  A    between atoms: C_17  and  O_19
REMARK    4  A    between atoms: O_19  and  C_20
REMARK    5  A    between atoms: C_20  and  C_22
REMARK    6  A    between atoms: C_20  and  C_23
REMARK                            x       y       z     vdW  Elec       q    Type
REMARK                         _______ _______ _______ _____ _____    ______ ____
ROOT
ATOM      1  C   UNL     1       2.355   6.448  -3.468  0.00  0.00    +0.046 C 
ATOM      2  C   UNL     1       2.786   5.082  -3.936  0.00  0.00    -0.015 A 
ATOM      3  C   UNL     1       2.779   4.004  -3.049  0.00  0.00    +0.076 A 
ATOM      4  C   UNL     1       3.202   2.765  -3.582  0.00  0.00    +0.116 A 
ATOM      5  N   UNL     1       3.244   1.662  -2.845  0.00  0.00    -0.226 NA
ATOM      6  C   UNL     1       2.889   1.662  -1.590  0.00  0.00    +0.114 A 
ATOM      7  N   UNL     1       2.460   2.797  -0.967  0.00  0.00    -0.296 N 
ATOM      8  C   UNL     1       2.388   3.970  -1.621  0.00  0.00    +0.263 A 
ATOM      9  O   UNL     1       2.009   4.978  -1.053  0.00  0.00    -0.267 OA
ATOM     10  C   UNL     1       2.075   2.709   0.447  0.00  0.00    +0.126 C 
ATOM     11  C   UNL     1       0.728   1.998   0.556  0.00  0.00    +0.022 C 
ATOM     12  C   UNL     1       0.909   0.496   0.688  0.00  0.00    +0.002 C 
ATOM     13  C   UNL     1       1.517  -0.120  -0.560  0.00  0.00    +0.008 C 
ATOM     14  C   UNL     1       2.941   0.385  -0.784  0.00  0.00    +0.074 C 
ATOM     15  S   UNL     1       3.582   3.156  -5.271  0.00  0.00    -0.062 S 
ATOM     16  C   UNL     1       3.184   4.896  -5.228  0.00  0.00    +0.102 A 
ENDROOT
BRANCH  16  17
ATOM     17  C   UNL     1       3.267   5.879  -6.310  0.00  0.00    +0.347 C 
ATOM     18  O   UNL     1       2.954   7.036  -6.105  0.00  0.00    -0.244 OA
BRANCH  17  19
ATOM     19  O   UNL     1       3.689   5.501  -7.534  0.00  0.00    -0.448 OA
BRANCH  19  20
ATOM     20  C   UNL     1       3.746   6.529  -8.558  0.00  0.00    +0.259 C 
ATOM     21  C   UNL     1       2.406   6.589  -9.295  0.00  0.00    +0.062 C 
BRANCH  20  22
ATOM     22  C   UNL     1       4.843   6.202  -9.538  0.00  0.00    +0.264 C 
ATOM     23  O   UNL     1       5.405   5.129  -9.483  0.00  0.00    -0.271 OA
ATOM     24  N   UNL     1       5.200   7.102 -10.476  0.00  0.00    -0.221 N 
ATOM     25  C   UNL     1       4.671   8.470 -10.589  0.00  0.00    +0.137 C 
ATOM     26  C   UNL     1       5.406   9.050 -11.812  0.00  0.00    +0.125 C 
ATOM     27  N   UNL     1       6.272   7.948 -12.259  0.00  0.00    -0.297 N 
ATOM     28  C   UNL     1       6.096   6.895 -11.449  0.00  0.00    +0.309 C 
ATOM     29  O   UNL     1       6.694   5.846 -11.587  0.00  0.00    -0.252 OA
ATOM     30  H   UNL     1       6.922   8.080 -13.136  0.00  0.00    +0.150 HD
ENDBRANCH  20  22
ENDBRANCH  19  20
ENDBRANCH  17  19
ENDBRANCH  16  17
TORSDOF 4
