REMARK  Name = ZINC35777636
REMARK  15 active torsions:
REMARK  status: ('A' for Active; 'I' for Inactive)
REMARK    1  A    between atoms: C_1  and  C_2
REMARK    2  A    between atoms: C_2  and  C_3
REMARK    3  A    between atoms: C_4  and  C_22
REMARK    4  A    between atoms: C_5  and  O_15
REMARK    5  A    between atoms: N_6  and  C_8
REMARK    6  A    between atoms: O_15  and  C_16
REMARK    7  A    between atoms: C_22  and  N_23
REMARK    8  A    between atoms: N_23  and  C_24
REMARK    9  A    between atoms: N_23  and  C_35
REMARK   10  A    between atoms: C_24  and  C_25
REMARK   11  A    between atoms: C_25  and  C_27
REMARK   12  A    between atoms: C_25  and  O_34
REMARK   13  A    between atoms: C_27  and  C_28
REMARK   14  A    between atoms: C_35  and  C_36
REMARK   15  A    between atoms: C_35  and  C_37
REMARK                            x       y       z     vdW  Elec       q    Type
REMARK                         _______ _______ _______ _____ _____    ______ ____
ROOT
ATOM      1  C   UNL     1       1.578  -0.484  -2.017  0.00  0.00    +0.068 A 
ATOM      2  C   UNL     1       0.266  -0.477  -2.500  0.00  0.00    +0.021 A 
ATOM      3  C   UNL     1       0.314  -0.675  -3.844  0.00  0.00    +0.225 A 
ATOM      4  N   UNL     1       1.622  -0.802  -4.192  0.00  0.00    -0.200 N 
ATOM      5  N   UNL     1       2.389  -0.673  -3.027  0.00  0.00    -0.168 NA
ENDROOT
BRANCH   4   6
ATOM      6  C   UNL     1       2.116  -1.020  -5.486  0.00  0.00    +0.069 A 
ATOM      7  C   UNL     1       1.493  -1.935  -6.324  0.00  0.00    +0.031 A 
ATOM      8  C   UNL     1       1.980  -2.147  -7.598  0.00  0.00    +0.040 A 
ATOM      9  C   UNL     1       3.091  -1.448  -8.041  0.00  0.00    +0.124 A 
ATOM     10  C   UNL     1       3.714  -0.535  -7.207  0.00  0.00    +0.040 A 
ATOM     11  C   UNL     1       3.225  -0.315  -5.934  0.00  0.00    +0.031 A 
ATOM     12  F   UNL     1       3.566  -1.657  -9.288  0.00  0.00    -0.205 F 
ENDBRANCH   4   6
BRANCH   1  14
ATOM     13  C   UNL     1       2.151   1.193  -0.283  0.00  0.00    +0.010 C 
ATOM     14  C   UNL     1       1.989  -0.299  -0.579  0.00  0.00    +0.054 C 
ENDBRANCH   1  14
BRANCH   3  15
ATOM     15  O   UNL     1      -0.750  -0.736  -4.685  0.00  0.00    -0.438 OA
BRANCH  15  16
ATOM     16  C   UNL     1      -1.387  -1.928  -4.825  0.00  0.00    +0.130 A 
ATOM     17  C   UNL     1      -1.012  -3.011  -4.043  0.00  0.00    +0.046 A 
ATOM     18  C   UNL     1      -1.661  -4.222  -4.186  0.00  0.00    +0.004 A 
ATOM     19  C   UNL     1      -2.682  -4.356  -5.109  0.00  0.00    +0.000 A 
ATOM     20  C   UNL     1      -3.057  -3.278  -5.890  0.00  0.00    +0.004 A 
ATOM     21  C   UNL     1      -2.416  -2.063  -5.745  0.00  0.00    +0.046 A 
ENDBRANCH  15  16
ENDBRANCH   3  15
BRANCH   2  22
ATOM     22  C   UNL     1      -0.981  -0.284  -1.675  0.00  0.00    -0.035 C 
BRANCH  22  23
ATOM     23  N   UNL     1      -1.291   1.149  -1.584  0.00  0.00    +0.386 N 
ATOM     24  H   UNL     1      -0.489   1.644  -1.224  0.00  0.00    -0.081 HD
BRANCH  23  25
ATOM     25  C   UNL     1      -2.434   1.346  -0.682  0.00  0.00    -0.074 C 
ATOM     26  C   UNL     1      -3.607   0.482  -1.149  0.00  0.00    -0.014 C 
ATOM     27  C   UNL     1      -2.037   0.943   0.739  0.00  0.00    -0.014 C 
ENDBRANCH  23  25
BRANCH  23  28
ATOM     28  C   UNL     1      -1.626   1.663  -2.919  0.00  0.00    -0.046 C 
BRANCH  28  29
ATOM     29  C   UNL     1      -1.828   3.178  -2.846  0.00  0.00    +0.102 C 
BRANCH  29  30
ATOM     30  O   UNL     1      -0.620   3.798  -2.400  0.00  0.00    -0.393 OA
ATOM     31  H   UNL     1       0.140   3.639  -2.976  0.00  0.00    +0.210 HD
ENDBRANCH  29  30
BRANCH  29  32
ATOM     32  C   UNL     1      -2.193   3.711  -4.232  0.00  0.00    +0.064 C 
BRANCH  32  33
ATOM     33  C   UNL     1      -2.512   5.181  -4.137  0.00  0.00    -0.045 A 
ATOM     34  C   UNL     1      -3.807   5.593  -3.886  0.00  0.00    +0.004 A 
ATOM     35  C   UNL     1      -4.099   6.941  -3.798  0.00  0.00    +0.000 A 
ATOM     36  C   UNL     1      -3.095   7.878  -3.962  0.00  0.00    +0.000 A 
ATOM     37  C   UNL     1      -1.800   7.466  -4.213  0.00  0.00    +0.000 A 
ATOM     38  C   UNL     1      -1.507   6.118  -4.296  0.00  0.00    +0.004 A 
ENDBRANCH  32  33
ENDBRANCH  29  32
ENDBRANCH  28  29
ENDBRANCH  23  28
ENDBRANCH  22  23
ENDBRANCH   2  22
TORSDOF 12
