REMARK  Name = ZINC57608694
REMARK  13 active torsions:
REMARK  status: ('A' for Active; 'I' for Inactive)
REMARK    1  A    between atoms: C_1  and  C_2
REMARK    2  A    between atoms: C_2  and  N_3
REMARK    3  A    between atoms: N_3  and  C_4
REMARK    4  A    between atoms: N_3  and  C_11
REMARK    5  A    between atoms: C_4  and  C_5
REMARK    6  A    between atoms: C_11  and  C_13
REMARK    7  A    between atoms: C_11  and  C_27
REMARK    8  A    between atoms: C_17  and  C_26
REMARK    9  A    between atoms: C_18  and  C_25
REMARK   10  A    between atoms: N_31  and  C_32
REMARK   11  A    between atoms: C_32  and  C_33
REMARK   12  A    between atoms: C_32  and  C_34
REMARK   13  A    between atoms: C_32  and  C_35
REMARK                            x       y       z     vdW  Elec       q    Type
REMARK                         _______ _______ _______ _____ _____    ______ ____
ROOT
ATOM      1  C   UNL     1      -2.145  -0.033   1.065  0.00  0.00    +0.163 C 
ENDROOT
BRANCH   1   2
ATOM      2  C   UNL     1      -2.339   1.450   0.879  0.00  0.00    +0.042 A 
ATOM      3  C   UNL     1      -2.199   2.288   1.936  0.00  0.00    +0.021 A 
ATOM      4  C   UNL     1      -2.393   3.723   1.722  0.00  0.00    -0.001 A 
ATOM      5  C   UNL     1      -2.261   4.636   2.774  0.00  0.00    +0.013 A 
ATOM      6  C   UNL     1      -2.449   5.969   2.541  0.00  0.00    -0.047 A 
ATOM      7  C   UNL     1      -2.769   6.426   1.270  0.00  0.00    -0.046 A 
ATOM      8  C   UNL     1      -2.905   5.544   0.219  0.00  0.00    +0.030 A 
ATOM      9  C   UNL     1      -2.717   4.182   0.432  0.00  0.00    +0.049 A 
ATOM     10  N   UNL     1      -2.846   3.279  -0.601  0.00  0.00    -0.322 N 
ATOM     11  H   UNL     1      -3.069   3.597  -1.490  0.00  0.00    +0.169 HD
ATOM     12  C   UNL     1      -2.660   1.963  -0.396  0.00  0.00    +0.254 A 
ATOM     13  O   UNL     1      -2.776   1.193  -1.334  0.00  0.00    -0.268 OA
ATOM     14  C   UNL     1      -2.972   7.901   1.036  0.00  0.00    +0.044 C 
ATOM     15  C   UNL     1      -2.307   6.952   3.674  0.00  0.00    +0.044 C 
ENDBRANCH   1   2
BRANCH   1  16
ATOM     16  C   UNL     1      -3.446  -0.746   0.800  0.00  0.00    +0.174 A 
ATOM     17  N   UNL     1      -4.057  -0.856  -0.354  0.00  0.00    -0.111 NA
ATOM     18  N   UNL     1      -5.135  -1.537  -0.170  0.00  0.00    -0.023 NA
ATOM     19  N   UNL     1      -5.228  -1.864   1.071  0.00  0.00    -0.043 NA
ATOM     20  N   UNL     1      -4.202  -1.400   1.702  0.00  0.00    -0.222 N 
BRANCH  20  21
ATOM     21  C   UNL     1      -3.916  -1.552   3.130  0.00  0.00    +0.059 C 
ATOM     22  C   UNL     1      -3.782  -0.170   3.773  0.00  0.00    +0.036 C 
ATOM     23  C   UNL     1      -5.059  -2.317   3.800  0.00  0.00    +0.036 C 
ATOM     24  C   UNL     1      -2.609  -2.327   3.309  0.00  0.00    +0.036 C 
ENDBRANCH  20  21
ENDBRANCH   1  16
BRANCH   1  25
ATOM     25  N   UNL     1      -1.122  -0.514   0.127  0.00  0.00    -0.285 NA
BRANCH  25  27
ATOM     26  C   UNL     1       0.658  -0.100   1.757  0.00  0.00    +0.020 C 
ATOM     27  C   UNL     1       0.155   0.180   0.339  0.00  0.00    +0.082 C 
ENDBRANCH  25  27
BRANCH  25  28
ATOM     28  C   UNL     1      -0.954  -1.970   0.233  0.00  0.00    +0.120 C 
BRANCH  28  29
ATOM     29  C   UNL     1      -0.088  -2.459  -0.899  0.00  0.00    -0.033 A 
ATOM     30  C   UNL     1      -0.665  -2.840  -2.096  0.00  0.00    +0.005 A 
ATOM     31  C   UNL     1       0.130  -3.289  -3.134  0.00  0.00    +0.000 A 
ATOM     32  C   UNL     1       1.501  -3.357  -2.975  0.00  0.00    +0.000 A 
ATOM     33  C   UNL     1       2.078  -2.975  -1.778  0.00  0.00    +0.000 A 
ATOM     34  C   UNL     1       1.284  -2.522  -0.742  0.00  0.00    +0.005 A 
ENDBRANCH  28  29
ENDBRANCH  25  28
ENDBRANCH   1  25
TORSDOF 7
