REMARK  Name = ZINC02054391
REMARK  11 active torsions:
REMARK  status: ('A' for Active; 'I' for Inactive)
REMARK    1  A    between atoms: C_1  and  C_2
REMARK    2  A    between atoms: C_7  and  C_8
REMARK    3  A    between atoms: C_17  and  C_32
REMARK    4  A    between atoms: C_18  and  C_19
REMARK    5  A    between atoms: N_20  and  C_21
REMARK    6  A    between atoms: C_21  and  C_22
REMARK    7  A    between atoms: C_22  and  C_23
REMARK    8  A    between atoms: C_35  and  O_40
REMARK    9  A    between atoms: C_36  and  O_38
REMARK   10  A    between atoms: O_38  and  C_39
REMARK   11  A    between atoms: O_40  and  C_41
REMARK                            x       y       z     vdW  Elec       q    Type
REMARK                         _______ _______ _______ _____ _____    ______ ____
ROOT
ATOM      1  C   UNL     1       0.326   0.304   2.776  0.00  0.00    +0.088 C 
ATOM      2  C   UNL     1       1.704  -0.051   3.267  0.00  0.00    +0.007 A 
ATOM      3  C   UNL     1       2.797   0.656   2.799  0.00  0.00    +0.008 A 
ATOM      4  C   UNL     1       4.069   0.342   3.239  0.00  0.00    +0.001 A 
ATOM      5  C   UNL     1       4.252  -0.682   4.151  0.00  0.00    +0.004 A 
ATOM      6  C   UNL     1       3.166  -1.391   4.621  0.00  0.00    +0.046 A 
ATOM      7  C   UNL     1       1.885  -1.078   4.179  0.00  0.00    +0.133 A 
ATOM      8  O   UNL     1       0.828  -1.784   4.651  0.00  0.00    -0.455 OA
ATOM      9  C   UNL     1      -0.414  -1.274   4.556  0.00  0.00    +0.141 C 
ATOM     10  C   UNL     1      -0.714  -0.285   3.687  0.00  0.00    +0.023 C 
ENDROOT
BRANCH   1  17
ATOM     11  C   UNL     1       0.067   2.116   0.541  0.00  0.00    +0.044 C 
ATOM     12  C   UNL     1       0.012   0.627   0.314  0.00  0.00    -0.046 A 
ATOM     13  C   UNL     1      -0.156   0.128  -0.964  0.00  0.00    +0.003 A 
ATOM     14  C   UNL     1      -0.206  -1.237  -1.172  0.00  0.00    +0.000 A 
ATOM     15  C   UNL     1      -0.087  -2.104  -0.102  0.00  0.00    +0.000 A 
ATOM     16  C   UNL     1       0.082  -1.606   1.176  0.00  0.00    +0.005 A 
ATOM     17  C   UNL     1       0.136  -0.240   1.383  0.00  0.00    -0.032 A 
ENDBRANCH   1  17
BRANCH   9  18
ATOM     18  C   UNL     1      -1.477  -1.813   5.424  0.00  0.00    +0.021 A 
ATOM     19  C   UNL     1      -2.684  -2.247   4.868  0.00  0.00    +0.015 A 
ATOM     20  C   UNL     1      -3.676  -2.750   5.681  0.00  0.00    +0.050 A 
ATOM     21  C   UNL     1      -3.480  -2.827   7.053  0.00  0.00    +0.162 A 
ATOM     22  C   UNL     1      -2.279  -2.397   7.615  0.00  0.00    +0.162 A 
ATOM     23  C   UNL     1      -1.278  -1.897   6.805  0.00  0.00    +0.061 A 
BRANCH  22  24
ATOM     24  O   UNL     1      -2.092  -2.473   8.960  0.00  0.00    -0.491 OA
ATOM     25  C   UNL     1      -0.837  -2.014   9.467  0.00  0.00    +0.277 C 
ENDBRANCH  22  24
BRANCH  21  26
ATOM     26  O   UNL     1      -4.462  -3.324   7.851  0.00  0.00    -0.491 OA
ATOM     27  C   UNL     1      -5.667  -3.746   7.210  0.00  0.00    +0.277 C 
ENDBRANCH  21  26
ENDBRANCH   9  18
BRANCH  10  28
ATOM     28  C   UNL     1      -2.036   0.205   3.635  0.00  0.00    +0.086 C 
ATOM     29  N   UNL     1      -2.363   1.104   2.751  0.00  0.00    -0.390 N 
ATOM     30  H   UNL     1      -1.724   1.371   2.071  0.00  0.00    +0.159 HD
BRANCH  29  31
ATOM     31  C   UNL     1      -3.696   1.711   2.782  0.00  0.00    +0.117 C 
BRANCH  31  32
ATOM     32  C   UNL     1      -3.572   3.195   3.133  0.00  0.00    +0.058 C 
BRANCH  32  33
ATOM     33  C   UNL     1      -4.947   3.793   3.281  0.00  0.00    -0.021 A 
ATOM     34  C   UNL     1      -5.779   3.777   4.487  0.00  0.00    +0.003 A 
ATOM     35  C   UNL     1      -5.612   3.263   5.774  0.00  0.00    +0.010 A 
ATOM     36  C   UNL     1      -6.605   3.417   6.700  0.00  0.00    +0.001 A 
ATOM     37  C   UNL     1      -7.779   4.081   6.371  0.00  0.00    +0.002 A 
ATOM     38  C   UNL     1      -7.964   4.596   5.107  0.00  0.00    +0.026 A 
ATOM     39  C   UNL     1      -6.967   4.450   4.148  0.00  0.00    +0.047 A 
ATOM     40  N   UNL     1      -6.852   4.841   2.833  0.00  0.00    -0.360 N 
ATOM     41  C   UNL     1      -5.640   4.446   2.335  0.00  0.00    +0.087 A 
ATOM     42  H   UNL     1      -7.527   5.328   2.335  0.00  0.00    +0.165 HD
ENDBRANCH  32  33
ENDBRANCH  31  32
ENDBRANCH  29  31
ENDBRANCH  10  28
TORSDOF 8
