REMARK  Name = ZINC32986184
REMARK  3 active torsions:
REMARK  status: ('A' for Active; 'I' for Inactive)
REMARK    1  A    between atoms: C_7  and  C_16
REMARK    2  A    between atoms: C_9  and  C_11
REMARK    3  A    between atoms: C_20  and  C_29
REMARK                            x       y       z     vdW  Elec       q    Type
REMARK                         _______ _______ _______ _____ _____    ______ ____
ROOT
ATOM      1  C   UNL     1      -6.103   2.767   0.147  0.00  0.00    +0.252 C 
ATOM      2  O   UNL     1      -7.223   2.296   0.194  0.00  0.00    -0.270 OA
ATOM      3  N   UNL     1      -5.936   4.104   0.129  0.00  0.00    -0.260 N 
ATOM      4  C   UNL     1      -4.603   4.703  -0.061  0.00  0.00    +0.168 C 
ATOM      5  C   UNL     1      -4.761   5.890  -1.023  0.00  0.00    +0.276 C 
ATOM      6  O   UNL     1      -5.694   6.816  -0.461  0.00  0.00    -0.476 OA
ATOM      7  C   UNL     1      -6.880   6.327  -0.013  0.00  0.00    +0.143 A 
ATOM      8  C   UNL     1      -7.026   4.976   0.286  0.00  0.00    +0.079 A 
ATOM      9  C   UNL     1      -8.242   4.492   0.741  0.00  0.00    +0.027 A 
ATOM     10  C   UNL     1      -9.313   5.353   0.891  0.00  0.00    +0.002 A 
ATOM     11  C   UNL     1      -9.171   6.694   0.587  0.00  0.00    +0.004 A 
ATOM     12  C   UNL     1      -7.960   7.183   0.145  0.00  0.00    +0.047 A 
ENDROOT
BRANCH   1  19
ATOM     13  C   UNL     1      -5.942  -0.801  -2.295  0.00  0.00    +0.001 A 
ATOM     14  C   UNL     1      -4.807  -1.608  -2.294  0.00  0.00    +0.002 A 
ATOM     15  C   UNL     1      -3.725  -1.297  -1.528  0.00  0.00    +0.028 A 
ATOM     16  C   UNL     1      -3.749  -0.143  -0.723  0.00  0.00    +0.073 A 
ATOM     17  C   UNL     1      -4.907   0.674  -0.730  0.00  0.00    +0.013 A 
ATOM     18  C   UNL     1      -6.000   0.325  -1.529  0.00  0.00    +0.011 A 
ATOM     19  C   UNL     1      -4.926   1.874   0.110  0.00  0.00    +0.049 A 
ATOM     20  C   UNL     1      -3.795   2.139   0.867  0.00  0.00    +0.045 A 
ATOM     21  C   UNL     1      -2.698   1.263   0.800  0.00  0.00    +0.107 A 
ATOM     22  N   UNL     1      -2.701   0.190   0.033  0.00  0.00    -0.244 NA
BRANCH  21  23
ATOM     23  C   UNL     1      -1.501   1.556   1.611  0.00  0.00    +0.153 A 
ATOM     24  C   UNL     1      -0.428   0.735   1.777  0.00  0.00    +0.051 A 
ATOM     25  C   UNL     1       0.474   1.413   2.618  0.00  0.00    +0.042 A 
ATOM     26  C   UNL     1      -0.088   2.600   2.926  0.00  0.00    +0.196 A 
ATOM     27  O   UNL     1      -1.282   2.681   2.320  0.00  0.00    -0.461 OA
ENDBRANCH  21  23
ENDBRANCH   1  19
BRANCH   5  28
ATOM     28  C   UNL     1      -3.429   6.567  -1.212  0.00  0.00    +0.253 C 
ATOM     29  O   UNL     1      -3.267   7.705  -0.826  0.00  0.00    -0.272 OA
ATOM     30  N   UNL     1      -2.417   5.908  -1.811  0.00  0.00    -0.326 N 
ATOM     31  H   UNL     1      -1.444   6.403  -1.949  0.00  0.00    +0.145 HD
ATOM     32  H   UNL     1      -2.563   4.876  -2.161  0.00  0.00    +0.145 HD
ENDBRANCH   5  28
TORSDOF 3
