REMARK  Name = ZINC21584342
REMARK  13 active torsions:
REMARK  status: ('A' for Active; 'I' for Inactive)
REMARK    1  A    between atoms: C_1  and  C_2
REMARK    2  A    between atoms: C_2  and  C_3
REMARK    3  A    between atoms: C_2  and  C_4
REMARK    4  A    between atoms: C_4  and  C_6
REMARK    5  A    between atoms: C_4  and  N_18
REMARK    6  A    between atoms: C_9  and  C_12
REMARK    7  A    between atoms: N_18  and  C_19
REMARK    8  A    between atoms: C_19  and  C_20
REMARK    9  A    between atoms: C_22  and  C_25
REMARK   10  A    between atoms: C_25  and  C_26
REMARK   11  A    between atoms: N_28  and  C_29
REMARK   12  A    between atoms: C_34  and  O_35
REMARK   13  A    between atoms: O_35  and  C_36
REMARK                            x       y       z     vdW  Elec       q    Type
REMARK                         _______ _______ _______ _____ _____    ______ ____
ROOT
ATOM      1  N   UNL     1       1.538   4.508  -1.262  0.00  0.00    +0.390 N 
ATOM      2  H   UNL     1       0.444   4.623  -1.235  0.00  0.00    -0.084 HD
ATOM      3  H   UNL     1       2.012   5.424  -0.880  0.00  0.00    -0.084 HD
ENDROOT
BRANCH   1   4
ATOM      4  C   UNL     1       1.931   3.366  -0.425  0.00  0.00    -0.038 C 
BRANCH   4   5
ATOM      5  C   UNL     1       0.868   2.301  -0.497  0.00  0.00    -0.061 A 
ATOM      6  C   UNL     1       1.228   0.968  -0.561  0.00  0.00    +0.002 A 
ATOM      7  C   UNL     1       0.253  -0.009  -0.626  0.00  0.00    +0.004 A 
ATOM      8  C   UNL     1      -1.083   0.346  -0.632  0.00  0.00    -0.044 A 
ATOM      9  C   UNL     1      -1.443   1.679  -0.564  0.00  0.00    +0.004 A 
ATOM     10  C   UNL     1      -0.468   2.657  -0.498  0.00  0.00    +0.002 A 
BRANCH   8  11
ATOM     11  C   UNL     1      -2.146  -0.719  -0.710  0.00  0.00    +0.019 C 
ATOM     12  C   UNL     1      -2.993  -0.503  -1.965  0.00  0.00    +0.008 C 
ATOM     13  C   UNL     1      -4.073  -1.585  -2.043  0.00  0.00    +0.001 C 
ATOM     14  C   UNL     1      -4.967  -1.504  -0.805  0.00  0.00    +0.000 C 
ATOM     15  C   UNL     1      -4.120  -1.719   0.451  0.00  0.00    +0.001 C 
ATOM     16  C   UNL     1      -3.040  -0.637   0.529  0.00  0.00    +0.008 C 
ENDBRANCH   8  11
ENDBRANCH   4   5
BRANCH   4  18
ATOM     17  C   UNL     1       3.262   4.812   1.118  0.00  0.00    +0.006 C 
ATOM     18  C   UNL     1       2.093   3.829   1.024  0.00  0.00    -0.027 C 
ATOM     19  C   UNL     1       0.808   4.519   1.486  0.00  0.00    +0.006 C 
ENDBRANCH   4  18
ENDBRANCH   1   4
BRANCH   1  20
ATOM     20  C   UNL     1       1.956   4.307  -2.656  0.00  0.00    +0.019 C 
BRANCH  20  21
ATOM     21  C   UNL     1       1.633   5.540  -3.460  0.00  0.00    +0.210 A 
ATOM     22  N   UNL     1       2.413   6.578  -3.645  0.00  0.00    -0.197 NA
ATOM     23  C   UNL     1       1.713   7.423  -4.422  0.00  0.00    +0.180 A 
ATOM     24  N   UNL     1       0.561   6.870  -4.660  0.00  0.00    -0.061 NA
ATOM     25  O   UNL     1       0.495   5.787  -4.116  0.00  0.00    -0.340 OA
BRANCH  23  26
ATOM     26  C   UNL     1       2.176   8.767  -4.922  0.00  0.00    +0.175 C 
BRANCH  26  27
ATOM     27  C   UNL     1       1.795   9.832  -3.925  0.00  0.00    +0.225 C 
ATOM     28  O   UNL     1       1.205   9.529  -2.910  0.00  0.00    -0.275 OA
ATOM     29  N   UNL     1       2.110  11.121  -4.163  0.00  0.00    -0.282 N 
ATOM     30  H   UNL     1       2.707  11.387  -5.047  0.00  0.00    +0.155 HD
BRANCH  29  31
ATOM     31  C   UNL     1       1.675  12.121  -3.283  0.00  0.00    +0.076 A 
ATOM     32  C   UNL     1       0.610  11.881  -2.427  0.00  0.00    +0.027 A 
ATOM     33  C   UNL     1       0.187  12.867  -1.557  0.00  0.00    +0.002 A 
ATOM     34  C   UNL     1       0.815  14.099  -1.545  0.00  0.00    +0.004 A 
ATOM     35  C   UNL     1       1.873  14.348  -2.399  0.00  0.00    +0.047 A 
ATOM     36  C   UNL     1       2.307  13.363  -3.271  0.00  0.00    +0.141 A 
BRANCH  36  37
ATOM     37  O   UNL     1       3.348  13.606  -4.112  0.00  0.00    -0.493 OA
ATOM     38  C   UNL     1       3.947  14.901  -4.043  0.00  0.00    +0.277 C 
ENDBRANCH  36  37
ENDBRANCH  29  31
ENDBRANCH  26  27
ENDBRANCH  23  26
ENDBRANCH  20  21
ENDBRANCH   1  20
TORSDOF 10
