REMARK  Name = ZINC56941761
REMARK  8 active torsions:
REMARK  status: ('A' for Active; 'I' for Inactive)
REMARK    1  A    between atoms: C_1  and  C_2
REMARK    2  A    between atoms: C_2  and  C_4
REMARK    3  A    between atoms: C_2  and  N_12
REMARK    4  A    between atoms: N_15  and  N_16
REMARK    5  A    between atoms: C_17  and  C_19
REMARK    6  A    between atoms: C_19  and  C_21
REMARK    7  A    between atoms: C_19  and  O_22
REMARK    8  A    between atoms: O_22  and  C_23
REMARK                            x       y       z     vdW  Elec       q    Type
REMARK                         _______ _______ _______ _____ _____    ______ ____
ROOT
ATOM      1  N   UNL     1       0.779  -0.134  -1.320  0.00  0.00    -0.292 N 
ATOM      2  C   UNL     1       2.122  -0.078  -1.425  0.00  0.00    +0.316 C 
ATOM      3  O   UNL     1       2.783   0.398  -0.523  0.00  0.00    -0.251 OA
ATOM      4  N   UNL     1       2.731  -0.551  -2.531  0.00  0.00    -0.218 N 
ATOM      5  H   UNL     1       0.252  -0.513  -2.040  0.00  0.00    +0.151 HD
ATOM      6  H   UNL     1       3.697  -0.511  -2.606  0.00  0.00    +0.174 HD
ENDROOT
BRANCH   4   7
ATOM      7  N   UNL     1       1.969  -1.099  -3.570  0.00  0.00    -0.230 N 
ATOM      8  C   UNL     1       2.578  -1.572  -4.676  0.00  0.00    +0.270 C 
ATOM      9  O   UNL     1       3.787  -1.522  -4.770  0.00  0.00    -0.270 OA
ATOM     10  H   UNL     1       1.003  -1.139  -3.495  0.00  0.00    +0.173 HD
BRANCH   8  11
ATOM     11  C   UNL     1       1.759  -2.162  -5.794  0.00  0.00    +0.257 C 
ATOM     12  C   UNL     1       0.879  -1.073  -6.412  0.00  0.00    +0.062 C 
BRANCH  11  13
ATOM     13  O   UNL     1       2.630  -2.694  -6.794  0.00  0.00    -0.477 OA
BRANCH  13  14
ATOM     14  C   UNL     1       2.134  -3.686  -7.581  0.00  0.00    +0.157 A 
ATOM     15  C   UNL     1       0.803  -4.060  -7.471  0.00  0.00    +0.048 A 
ATOM     16  C   UNL     1       0.301  -5.068  -8.271  0.00  0.00    +0.004 A 
ATOM     17  C   UNL     1       1.124  -5.705  -9.182  0.00  0.00    +0.003 A 
ATOM     18  C   UNL     1       2.451  -5.336  -9.294  0.00  0.00    +0.042 A 
ATOM     19  C   UNL     1       2.958  -4.323  -8.500  0.00  0.00    +0.165 A 
ATOM     20  F   UNL     1       4.253  -3.957  -8.614  0.00  0.00    -0.202 F 
ENDBRANCH  13  14
ENDBRANCH  11  13
ENDBRANCH   8  11
ENDBRANCH   4   7
BRANCH   1  22
ATOM     21  C   UNL     1      -0.103   1.887  -0.262  0.00  0.00    +0.033 C 
ATOM     22  C   UNL     1       0.117   0.380  -0.119  0.00  0.00    +0.102 C 
BRANCH  22  23
ATOM     23  C   UNL     1      -1.213  -0.308   0.055  0.00  0.00    -0.026 A 
ATOM     24  C   UNL     1      -2.005  -0.569  -1.048  0.00  0.00    +0.008 A 
ATOM     25  C   UNL     1      -3.224  -1.199  -0.891  0.00  0.00    +0.040 A 
ATOM     26  C   UNL     1      -3.654  -1.571   0.371  0.00  0.00    +0.142 A 
ATOM     27  C   UNL     1      -2.860  -1.309   1.476  0.00  0.00    +0.076 A 
ATOM     28  C   UNL     1      -1.637  -0.682   1.316  0.00  0.00    +0.028 A 
ATOM     29 CL   UNL     1      -3.397  -1.773   3.061  0.00  0.00    -0.081 Cl
ATOM     30  F   UNL     1      -4.846  -2.187   0.526  0.00  0.00    -0.204 F 
ENDBRANCH  22  23
ENDBRANCH   1  22
TORSDOF 6
