REMARK  Name = ZINC01468529
REMARK  6 active torsions:
REMARK  status: ('A' for Active; 'I' for Inactive)
REMARK    1  A    between atoms: C_1  and  C_2
REMARK    2  A    between atoms: C_2  and  C_3
REMARK    3  A    between atoms: C_6  and  C_9
REMARK    4  A    between atoms: C_11  and  C_15
REMARK    5  A    between atoms: N_17  and  N_18
REMARK    6  A    between atoms: C_19  and  C_20
REMARK                            x       y       z     vdW  Elec       q    Type
REMARK                         _______ _______ _______ _____ _____    ______ ____
ROOT
ATOM      1  C   UNL     1      -1.156  -0.694   0.025  0.00  0.00    +0.281 C 
ATOM      2  O   UNL     1      -2.217  -0.100   0.045  0.00  0.00    -0.267 OA
ATOM      3  N   UNL     1       0.002  -0.004   0.009  0.00  0.00    -0.202 N 
ATOM      4  H   UNL     1       0.849  -0.478  -0.007  0.00  0.00    +0.178 HD
ENDROOT
BRANCH   1   7
ATOM      5  C   UNL     1      -1.699  -4.309   0.015  0.00  0.00    +0.093 A 
ATOM      6  C   UNL     1      -2.231  -3.008   0.035  0.00  0.00    +0.062 A 
ATOM      7  C   UNL     1      -1.136  -2.165   0.017  0.00  0.00    +0.122 A 
ATOM      8  N   UNL     1      -0.030  -2.968  -0.005  0.00  0.00    -0.272 N 
ATOM      9  H   UNL     1       0.916  -2.644  -0.019  0.00  0.00    +0.189 HD
ATOM     10  N   UNL     1      -0.387  -4.202  -0.006  0.00  0.00    -0.173 NA
BRANCH   5  14
ATOM     11  C   UNL     1      -3.922  -7.934   0.034  0.00  0.00    -0.048 A 
ATOM     12  C   UNL     1      -2.540  -7.974   0.012  0.00  0.00    +0.004 A 
ATOM     13  C   UNL     1      -1.813  -6.801   0.005  0.00  0.00    +0.010 A 
ATOM     14  C   UNL     1      -2.475  -5.575   0.022  0.00  0.00    +0.002 A 
ATOM     15  C   UNL     1      -3.867  -5.540   0.050  0.00  0.00    +0.010 A 
ATOM     16  C   UNL     1      -4.584  -6.720   0.051  0.00  0.00    +0.004 A 
BRANCH  11  18
ATOM     17  C   UNL     1      -4.954  -9.660   1.486  0.00  0.00    +0.009 C 
ATOM     18  C   UNL     1      -4.710  -9.219   0.041  0.00  0.00    +0.032 C 
ENDBRANCH  11  18
ENDBRANCH   5  14
ENDBRANCH   1   7
BRANCH   3  19
ATOM     19  N   UNL     1      -0.017   1.397   0.017  0.00  0.00    -0.187 NA
ATOM     20  C   UNL     1       1.099   2.062   0.003  0.00  0.00    +0.139 C 
BRANCH  20  21
ATOM     21  C   UNL     1       1.080   3.533   0.011  0.00  0.00    +0.002 A 
ATOM     22  C   UNL     1       2.261   4.258   0.107  0.00  0.00    +0.010 A 
ATOM     23  C   UNL     1       2.240   5.646   0.108  0.00  0.00    +0.001 A 
ATOM     24  C   UNL     1       1.075   6.346   0.028  0.00  0.00    +0.008 A 
ATOM     25  C   UNL     1      -0.158   5.678  -0.066  0.00  0.00    -0.017 A 
ATOM     26  C   UNL     1      -0.184   4.262  -0.077  0.00  0.00    -0.009 A 
ATOM     27  C   UNL     1      -1.410   3.594  -0.172  0.00  0.00    +0.009 A 
ATOM     28  C   UNL     1      -2.565   4.313  -0.250  0.00  0.00    +0.001 A 
ATOM     29  C   UNL     1      -2.543   5.705  -0.240  0.00  0.00    +0.001 A 
ATOM     30  C   UNL     1      -1.368   6.388  -0.149  0.00  0.00    +0.008 A 
ENDBRANCH  20  21
ENDBRANCH   3  19
TORSDOF 5
