REMARK  Name = ZINC35316569
REMARK  8 active torsions:
REMARK  status: ('A' for Active; 'I' for Inactive)
REMARK    1  A    between atoms: C_1  and  C_2
REMARK    2  A    between atoms: C_2  and  C_3
REMARK    3  A    between atoms: C_2  and  C_4
REMARK    4  A    between atoms: C_2  and  C_5
REMARK    5  A    between atoms: C_11  and  C_14
REMARK    6  A    between atoms: C_14  and  N_16
REMARK    7  A    between atoms: C_20  and  C_23
REMARK    8  A    between atoms: N_21  and  C_22
REMARK                            x       y       z     vdW  Elec       q    Type
REMARK                         _______ _______ _______ _____ _____    ______ ____
ROOT
ATOM      1  C   UNL     1       5.261   0.070  -2.072  0.00  0.00    +0.292 C 
ATOM      2  O   UNL     1       5.053   0.340  -0.902  0.00  0.00    -0.266 OA
ENDROOT
BRANCH   1   8
ATOM      3  C   UNL     1       0.718  -0.497  -1.257  0.00  0.00    -0.001 C 
ATOM      4  C   UNL     1      -0.022   0.010  -2.497  0.00  0.00    +0.012 C 
ATOM      5  C   UNL     1       0.538  -0.683  -3.745  0.00  0.00    +0.078 C 
ATOM      6  C   UNL     1       2.042  -0.568  -3.720  0.00  0.00    +0.141 A 
ATOM      7  C   UNL     1       2.759  -0.249  -2.622  0.00  0.00    +0.027 A 
ATOM      8  C   UNL     1       4.123  -0.235  -2.977  0.00  0.00    +0.173 A 
ATOM      9  N   UNL     1       4.207  -0.539  -4.251  0.00  0.00    -0.073 NA
ATOM     10  O   UNL     1       2.892  -0.754  -4.735  0.00  0.00    -0.359 OA
ATOM     11  C   UNL     1       2.157   0.034  -1.268  0.00  0.00    +0.045 C 
BRANCH   3  13
ATOM     12  C   UNL     1      -0.019   1.526   0.010  0.00  0.00    +0.011 C 
ATOM     13  C   UNL     1       0.002  -0.004   0.002  0.00  0.00    -0.035 C 
ATOM     14  C   UNL     1       0.742  -0.511   1.242  0.00  0.00    +0.011 C 
ATOM     15  C   UNL     1      -1.433  -0.534   0.013  0.00  0.00    +0.011 C 
ENDBRANCH   3  13
ENDBRANCH   1   8
BRANCH   1  16
ATOM     16  N   UNL     1       6.510   0.047  -2.541  0.00  0.00    -0.141 NA
ATOM     17  C   UNL     1       7.530   0.321  -1.730  0.00  0.00    +0.201 A 
ATOM     18  N   UNL     1       7.439   0.630  -0.410  0.00  0.00    -0.332 N 
ATOM     19  C   UNL     1       8.713   0.844   0.071  0.00  0.00    +0.112 A 
ATOM     20  C   UNL     1       9.578   0.667  -0.945  0.00  0.00    +0.067 A 
ATOM     21  N   UNL     1       8.843   0.333  -2.075  0.00  0.00    -0.315 N 
ATOM     22  C   UNL     1       9.388   0.048  -3.405  0.00  0.00    +0.152 C 
ATOM     23  H   UNL     1       6.620   0.690   0.105  0.00  0.00    +0.168 HD
BRANCH  20  24
ATOM     24  C   UNL     1      11.050   0.800  -0.869  0.00  0.00    +0.000 A 
ATOM     25  C   UNL     1      11.830   0.594  -2.007  0.00  0.00    +0.013 A 
ATOM     26  C   UNL     1      13.202   0.719  -1.931  0.00  0.00    +0.039 A 
ATOM     27  C   UNL     1      13.805   1.048  -0.728  0.00  0.00    +0.123 A 
ATOM     28  C   UNL     1      13.034   1.254   0.405  0.00  0.00    +0.039 A 
ATOM     29  C   UNL     1      11.661   1.137   0.339  0.00  0.00    +0.013 A 
ATOM     30  F   UNL     1      15.149   1.169  -0.659  0.00  0.00    -0.205 F 
ENDBRANCH  20  24
ENDBRANCH   1  16
TORSDOF 4
