REMARK  Name = ZINC04686372
REMARK  8 active torsions:
REMARK  status: ('A' for Active; 'I' for Inactive)
REMARK    1  A    between atoms: C_1  and  C_2
REMARK    2  A    between atoms: C_2  and  O_3
REMARK    3  A    between atoms: O_3  and  C_4
REMARK    4  A    between atoms: C_4  and  C_6
REMARK    5  A    between atoms: C_7  and  C_21
REMARK    6  A    between atoms: C_12  and  C_14
REMARK    7  A    between atoms: C_21  and  N_53
REMARK    8  A    between atoms: C_26  and  C_28
REMARK                            x       y       z     vdW  Elec       q    Type
REMARK                         _______ _______ _______ _____ _____    ______ ____
ROOT
ATOM      1  C   UNL     1      -0.024   3.330   4.604  0.00  0.00    +0.076 C 
ATOM      2  C   UNL     1      -0.930   2.764   3.777  0.00  0.00    +0.008 C 
ATOM      3  N   UNL     1      -1.162   1.419   3.801  0.00  0.00    -0.274 N 
ATOM      4  C   UNL     1      -0.534   0.571   4.626  0.00  0.00    +0.304 C 
ATOM      5  O   UNL     1      -0.808  -0.612   4.573  0.00  0.00    -0.252 OA
ATOM      6  N   UNL     1       0.392   0.987   5.512  0.00  0.00    -0.288 N 
ATOM      7  C   UNL     1       0.716   2.423   5.566  0.00  0.00    +0.143 C 
ATOM      8  H   UNL     1      -1.819   1.057   3.186  0.00  0.00    +0.156 HD
ATOM      9  H   UNL     1       0.835   0.356   6.101  0.00  0.00    +0.151 HD
ENDROOT
BRANCH   7  10
ATOM     10  C   UNL     1       0.448   2.907   6.968  0.00  0.00    -0.022 A 
ATOM     11  C   UNL     1      -0.667   2.460   7.652  0.00  0.00    +0.007 A 
ATOM     12  C   UNL     1      -0.910   2.899   8.940  0.00  0.00    +0.020 A 
ATOM     13  C   UNL     1      -0.044   3.796   9.540  0.00  0.00    +0.041 A 
ATOM     14  C   UNL     1       1.069   4.247   8.852  0.00  0.00    +0.020 A 
ATOM     15  C   UNL     1       1.314   3.803   7.567  0.00  0.00    +0.007 A 
ATOM     16 CL   UNL     1      -0.352   4.353  11.155  0.00  0.00    -0.084 Cl
ENDBRANCH   7  10
BRANCH   1  17
ATOM     17  C   UNL     1       0.222   4.723   4.577  0.00  0.00    +0.339 C 
ATOM     18  O   UNL     1      -0.307   5.417   3.729  0.00  0.00    -0.245 OA
BRANCH  17  19
ATOM     19  O   UNL     1       1.042   5.281   5.491  0.00  0.00    -0.462 OA
BRANCH  19  21
ATOM     20  C   UNL     1       2.198   7.141   6.514  0.00  0.00    +0.048 C 
ATOM     21  C   UNL     1       1.245   6.693   5.404  0.00  0.00    +0.229 C 
ENDBRANCH  19  21
ENDBRANCH  17  19
ENDBRANCH   1  17
BRANCH   2  22
ATOM     22  C   UNL     1      -1.692   3.631   2.808  0.00  0.00    -0.026 C 
BRANCH  22  29
ATOM     23  C   UNL     1      -0.436   2.564   1.035  0.00  0.00    -0.078 C 
ATOM     24  C   UNL     1       0.519   2.827  -0.132  0.00  0.00    -0.019 C 
ATOM     25  C   UNL     1      -0.202   3.654  -1.199  0.00  0.00    -0.003 C 
ATOM     26  C   UNL     1      -0.699   4.960  -0.572  0.00  0.00    -0.016 C 
ATOM     27  C   UNL     1      -1.619   4.636   0.607  0.00  0.00    -0.071 C 
ATOM     28  C   UNL     1      -2.102   5.937   1.249  0.00  0.00    -0.013 C 
ATOM     29  N   UNL     1      -0.859   3.859   1.610  0.00  0.00    +0.385 N 
ATOM     30  H   UNL     1      -0.024   4.392   1.880  0.00  0.00    -0.081 HD
ENDBRANCH  22  29
ENDBRANCH   2  22
TORSDOF 6
