REMARK  Name = ZINC58305052
REMARK  9 active torsions:
REMARK  status: ('A' for Active; 'I' for Inactive)
REMARK    1  A    between atoms: C_1  and  C_2
REMARK    2  A    between atoms: C_5  and  S_8
REMARK    3  A    between atoms: S_8  and  N_11
REMARK    4  A    between atoms: N_11  and  C_12
REMARK    5  A    between atoms: C_12  and  C_13
REMARK    6  A    between atoms: N_18  and  C_20
REMARK    7  A    between atoms: C_20  and  C_22
REMARK    8  A    between atoms: C_20  and  C_23
REMARK    9  A    between atoms: C_25  and  C_28
REMARK                            x       y       z     vdW  Elec       q    Type
REMARK                         _______ _______ _______ _____ _____    ______ ____
ROOT
ATOM      1  C   UNL     1       3.787  -5.540   1.028  0.00  0.00    -0.012 C 
ATOM      2  C   UNL     1       3.431  -7.023   1.168  0.00  0.00    +0.001 C 
ATOM      3  C   UNL     1       4.720  -7.850   1.161  0.00  0.00    -0.018 C 
ATOM      4  C   UNL     1       5.638  -7.365   2.285  0.00  0.00    -0.078 C 
ATOM      5  N   UNL     1       5.962  -5.948   2.079  0.00  0.00    +0.387 N 
ATOM      6  C   UNL     1       4.739  -5.140   2.156  0.00  0.00    -0.073 C 
ATOM      7  H   UNL     1       6.385  -5.830   1.170  0.00  0.00    -0.081 HD
ENDROOT
BRANCH   5   8
ATOM      8  C   UNL     1       6.905  -5.508   3.116  0.00  0.00    +0.019 C 
ATOM      9  C   UNL     1       8.184  -6.342   3.030  0.00  0.00    -0.003 C 
BRANCH   8  10
ATOM     10  C   UNL     1       7.239  -4.053   2.905  0.00  0.00    +0.214 A 
ATOM     11  N   UNL     1       7.290  -3.143   3.835  0.00  0.00    -0.192 NA
ATOM     12  C   UNL     1       7.618  -1.952   3.297  0.00  0.00    +0.209 A 
ATOM     13  N   UNL     1       7.779  -2.108   2.003  0.00  0.00    -0.056 NA
ATOM     14  O   UNL     1       7.540  -3.482   1.732  0.00  0.00    -0.339 OA
BRANCH  12  15
ATOM     15  C   UNL     1       7.771  -0.684   4.038  0.00  0.00    +0.060 A 
ATOM     16  C   UNL     1       8.095   0.560   3.564  0.00  0.00    +0.019 A 
ATOM     17  C   UNL     1       8.180   1.606   4.453  0.00  0.00    +0.008 A 
ATOM     18  C   UNL     1       7.942   1.376   5.771  0.00  0.00    +0.046 A 
ATOM     19  S   UNL     1       7.574  -0.371   5.785  0.00  0.00    -0.093 S 
ENDBRANCH  12  15
ENDBRANCH   8  10
ENDBRANCH   5   8
BRANCH   1  20
ATOM     20  C   UNL     1       2.512  -4.699   1.113  0.00  0.00    +0.107 C 
BRANCH  20  21
ATOM     21  N   UNL     1       1.651  -4.999  -0.034  0.00  0.00    -0.190 NA
ATOM     22  H   UNL     1       2.011  -5.473  -0.800  0.00  0.00    +0.148 HD
BRANCH  21  23
ATOM     23  S   UNL     1       0.063  -4.530  -0.023  0.00  0.00    +0.058 S 
ATOM     24  O   UNL     1      -0.476  -4.950   1.223  0.00  0.00    -0.153 OA
ATOM     25  O   UNL     1      -0.490  -4.937  -1.267  0.00  0.00    -0.153 OA
BRANCH  23  30
ATOM     26  C   UNL     1      -0.018   1.503   0.010  0.00  0.00    +0.044 C 
ATOM     27  C   UNL     1       0.002  -0.004   0.002  0.00  0.00    -0.050 A 
ATOM     28  C   UNL     1       0.006  -0.689  -1.199  0.00  0.00    +0.005 A 
ATOM     29  C   UNL     1       0.025  -2.071  -1.206  0.00  0.00    +0.029 A 
ATOM     30  C   UNL     1       0.040  -2.768  -0.013  0.00  0.00    +0.105 A 
ATOM     31  C   UNL     1       0.037  -2.084   1.188  0.00  0.00    +0.029 A 
ATOM     32  C   UNL     1       0.023  -0.702   1.195  0.00  0.00    +0.005 A 
ENDBRANCH  23  30
ENDBRANCH  21  23
ENDBRANCH  20  21
ENDBRANCH   1  20
TORSDOF 7
