REMARK  Name = ZINC35492842
REMARK  6 active torsions:
REMARK  status: ('A' for Active; 'I' for Inactive)
REMARK    1  A    between atoms: C_1  and  N_2
REMARK    2  A    between atoms: C_5  and  C_10
REMARK    3  A    between atoms: C_15  and  C_16
REMARK    4  A    between atoms: N_22  and  C_24
REMARK    5  A    between atoms: N_27  and  C_30
REMARK    6  A    between atoms: C_30  and  C_31
REMARK                            x       y       z     vdW  Elec       q    Type
REMARK                         _______ _______ _______ _____ _____    ______ ____
ROOT
ATOM      1  C   UNL     1      -1.867   1.072   0.129  0.00  0.00    +0.139 C 
ATOM      2  N   UNL     1      -1.323  -0.287   0.089  0.00  0.00    -0.260 N 
ATOM      3  C   UNL     1      -2.191  -1.334   0.213  0.00  0.00    +0.042 C 
ATOM      4  C   UNL     1      -1.756  -2.610   0.184  0.00  0.00    +0.058 C 
ATOM      5  C   UNL     1      -0.270  -2.844   0.009  0.00  0.00    +0.142 C 
ATOM      6  N   UNL     1       0.583  -1.650  -0.117  0.00  0.00    -0.288 N 
ATOM      7  C   UNL     1      -0.002  -0.436  -0.074  0.00  0.00    +0.307 C 
ATOM      8  O   UNL     1       0.693   0.555  -0.181  0.00  0.00    -0.252 OA
ATOM      9  C   UNL     1      -2.840  -3.501   0.333  0.00  0.00    +0.247 C 
ATOM     10  O   UNL     1      -2.737  -4.714   0.343  0.00  0.00    -0.270 OA
ATOM     11  N   UNL     1      -4.002  -2.835   0.461  0.00  0.00    -0.289 N 
ATOM     12  C   UNL     1      -3.691  -1.399   0.397  0.00  0.00    +0.159 C 
ATOM     13  H   UNL     1       1.542  -1.735  -0.232  0.00  0.00    +0.151 HD
ENDROOT
BRANCH  11  14
ATOM     14  C   UNL     1      -5.329  -3.430   0.633  0.00  0.00    +0.073 C 
ATOM     15  C   UNL     1      -5.348  -4.282   1.905  0.00  0.00    +0.004 C 
ATOM     16  C   UNL     1      -6.712  -4.963   2.037  0.00  0.00    -0.077 C 
ATOM     17  N   UNL     1      -6.949  -5.820   0.869  0.00  0.00    +0.382 N 
ATOM     18  C   UNL     1      -7.004  -5.000  -0.348  0.00  0.00    -0.077 C 
ATOM     19  C   UNL     1      -5.651  -4.321  -0.571  0.00  0.00    +0.004 C 
ATOM     20  H   UNL     1      -6.199  -6.491   0.787  0.00  0.00    -0.081 HD
BRANCH  17  21
ATOM     21  C   UNL     1      -8.223  -6.532   1.036  0.00  0.00    -0.043 C 
BRANCH  21  22
ATOM     22  C   UNL     1      -8.409  -7.503  -0.102  0.00  0.00    -0.064 A 
ATOM     23  C   UNL     1      -9.047  -7.097  -1.259  0.00  0.00    +0.002 A 
ATOM     24  C   UNL     1      -9.218  -7.988  -2.303  0.00  0.00    +0.000 A 
ATOM     25  C   UNL     1      -8.751  -9.284  -2.189  0.00  0.00    +0.000 A 
ATOM     26  C   UNL     1      -8.112  -9.689  -1.031  0.00  0.00    +0.000 A 
ATOM     27  C   UNL     1      -7.937  -8.797   0.010  0.00  0.00    +0.002 A 
ENDBRANCH  21  22
ENDBRANCH  17  21
ENDBRANCH  11  14
BRANCH   5  28
ATOM     28  C   UNL     1      -0.074  -3.685  -1.226  0.00  0.00    -0.011 A 
ATOM     29  C   UNL     1      -0.275  -3.133  -2.478  0.00  0.00    +0.006 A 
ATOM     30  C   UNL     1      -0.096  -3.905  -3.611  0.00  0.00    +0.000 A 
ATOM     31  C   UNL     1       0.284  -5.229  -3.492  0.00  0.00    +0.001 A 
ATOM     32  C   UNL     1       0.486  -5.780  -2.241  0.00  0.00    +0.013 A 
ATOM     33  C   UNL     1       0.311  -5.008  -1.108  0.00  0.00    +0.060 A 
BRANCH  33  34
ATOM     34  C   UNL     1       0.536  -5.608   0.256  0.00  0.00    +0.418 C 
ATOM     35  F   UNL     1       0.851  -6.964   0.122  0.00  0.00    -0.166 F 
ATOM     36  F   UNL     1       1.592  -4.944   0.889  0.00  0.00    -0.166 F 
ATOM     37  F   UNL     1      -0.626  -5.472   1.022  0.00  0.00    -0.166 F 
ENDBRANCH  33  34
ENDBRANCH   5  28
TORSDOF 5
