REMARK  Name = ZINC12548917
REMARK  9 active torsions:
REMARK  status: ('A' for Active; 'I' for Inactive)
REMARK    1  A    between atoms: C_1  and  N_2
REMARK    2  A    between atoms: N_2  and  C_3
REMARK    3  A    between atoms: N_2  and  C_21
REMARK    4  A    between atoms: C_3  and  C_4
REMARK    5  A    between atoms: N_6  and  C_7
REMARK    6  A    between atoms: C_10  and  S_13
REMARK    7  A    between atoms: S_13  and  N_16
REMARK    8  A    between atoms: C_21  and  C_22
REMARK    9  A    between atoms: N_24  and  C_25
REMARK                            x       y       z     vdW  Elec       q    Type
REMARK                         _______ _______ _______ _____ _____    ______ ____
ROOT
ATOM      1  C   UNL     1       0.865  -0.615  -1.080  0.00  0.00    +0.019 C 
ENDROOT
BRANCH   1   2
ATOM      2  C   UNL     1       0.132  -0.277  -2.353  0.00  0.00    +0.201 C 
ATOM      3  O   UNL     1      -0.910   0.343  -2.307  0.00  0.00    -0.278 OA
ATOM      4  N   UNL     1       0.635  -0.662  -3.542  0.00  0.00    -0.287 N 
ATOM      5  H   UNL     1       1.501  -1.096  -3.585  0.00  0.00    +0.155 HD
BRANCH   4   6
ATOM      6  C   UNL     1      -0.093  -0.437  -4.716  0.00  0.00    +0.033 A 
ATOM      7  C   UNL     1      -0.045  -1.359  -5.753  0.00  0.00    +0.025 A 
ATOM      8  C   UNL     1      -0.765  -1.134  -6.910  0.00  0.00    +0.030 A 
ATOM      9  C   UNL     1      -1.532   0.009  -7.036  0.00  0.00    +0.106 A 
ATOM     10  C   UNL     1      -1.582   0.930  -6.006  0.00  0.00    +0.030 A 
ATOM     11  C   UNL     1      -0.870   0.708  -4.844  0.00  0.00    +0.025 A 
BRANCH   9  12
ATOM     12  S   UNL     1      -2.449   0.294  -8.514  0.00  0.00    +0.061 S 
ATOM     13  O   UNL     1      -2.654   1.697  -8.601  0.00  0.00    -0.153 OA
ATOM     14  O   UNL     1      -1.804  -0.447  -9.541  0.00  0.00    -0.153 OA
BRANCH  12  15
ATOM     15  N   UNL     1      -3.942  -0.390  -8.303  0.00  0.00    -0.177 NA
ATOM     16  C   UNL     1      -4.306  -1.775  -8.639  0.00  0.00    +0.109 C 
ATOM     17  C   UNL     1      -5.800  -1.952  -8.295  0.00  0.00    +0.018 C 
ATOM     18  C   UNL     1      -6.336  -0.497  -8.315  0.00  0.00    +0.018 C 
ATOM     19  C   UNL     1      -5.126   0.286  -7.742  0.00  0.00    +0.109 C 
ENDBRANCH  12  15
ENDBRANCH   9  12
ENDBRANCH   4   6
ENDBRANCH   1   2
BRANCH   1  21
ATOM     20  C   UNL     1       0.099   1.380   0.010  0.00  0.00    -0.095 C 
ATOM     21  N   UNL     1       0.118  -0.087   0.070  0.00  0.00    +0.389 N 
ATOM     22  H   UNL     1      -0.829  -0.437   0.045  0.00  0.00    -0.081 HD
BRANCH  21  23
ATOM     23  C   UNL     1       0.767  -0.519   1.315  0.00  0.00    +0.019 C 
BRANCH  23  24
ATOM     24  C   UNL     1      -0.066  -0.083   2.493  0.00  0.00    +0.201 C 
ATOM     25  O   UNL     1      -1.099   0.527   2.313  0.00  0.00    -0.278 OA
ATOM     26  N   UNL     1       0.337  -0.370   3.747  0.00  0.00    -0.285 N 
ATOM     27  H   UNL     1       1.200  -0.786   3.895  0.00  0.00    +0.155 HD
BRANCH  26  28
ATOM     28  C   UNL     1      -0.492  -0.069   4.835  0.00  0.00    +0.072 A 
ATOM     29  C   UNL     1      -1.866   0.030   4.657  0.00  0.00    +0.029 A 
ATOM     30  C   UNL     1      -2.682   0.328   5.731  0.00  0.00    +0.043 A 
ATOM     31  C   UNL     1      -2.134   0.528   6.986  0.00  0.00    +0.161 A 
ATOM     32  C   UNL     1      -0.763   0.430   7.169  0.00  0.00    +0.195 A 
ATOM     33  C   UNL     1       0.058   0.126   6.096  0.00  0.00    +0.182 A 
ATOM     34  F   UNL     1       1.394   0.025   6.274  0.00  0.00    -0.200 F 
ATOM     35  F   UNL     1      -0.229   0.627   8.395  0.00  0.00    -0.199 F 
ATOM     36  F   UNL     1      -2.935   0.819   8.034  0.00  0.00    -0.202 F 
ENDBRANCH  26  28
ENDBRANCH  23  24
ENDBRANCH  21  23
ENDBRANCH   1  21
TORSDOF 8
