REMARK  Name = ZINC12703387
REMARK  8 active torsions:
REMARK  status: ('A' for Active; 'I' for Inactive)
REMARK    1  A    between atoms: C_3  and  C_22
REMARK    2  A    between atoms: C_6  and  C_7
REMARK    3  A    between atoms: C_7  and  N_55
REMARK    4  A    between atoms: C_8  and  N_55
REMARK    5  A    between atoms: N_13  and  C_15
REMARK    6  A    between atoms: C_23  and  C_24
REMARK    7  A    between atoms: C_24  and  C_25
REMARK    8  A    between atoms: C_25  and  O_26
REMARK                            x       y       z     vdW  Elec       q    Type
REMARK                         _______ _______ _______ _____ _____    ______ ____
ROOT
ATOM      1  N   UNL     1      -0.800   1.613  -1.122  0.00  0.00    +0.385 N 
ATOM      2  H   UNL     1      -1.791   1.654  -0.856  0.00  0.00    -0.085 HD
ATOM      3  H   UNL     1      -0.469   2.557  -1.354  0.00  0.00    -0.085 HD
ENDROOT
BRANCH   1   4
ATOM      4  C   UNL     1      -0.013   1.086   0.008  0.00  0.00    -0.045 C 
ATOM      5  C   UNL     1       1.423   1.659  -0.003  0.00  0.00    +0.082 C 
ATOM      6  C   UNL     1       1.750   1.867   1.460  0.00  0.00    +0.214 C 
ATOM      7  O   UNL     1       2.866   2.036   1.905  0.00  0.00    -0.276 OA
ATOM      8  N   UNL     1       0.625   1.838   2.194  0.00  0.00    -0.300 N 
ATOM      9  C   UNL     1      -0.557   1.624   1.350  0.00  0.00    +0.093 C 
BRANCH   8  10
ATOM     10  C   UNL     1       0.583   1.998   3.650  0.00  0.00    +0.076 C 
ATOM     11  C   UNL     1       1.103   3.404   4.012  0.00  0.00    +0.022 C 
ATOM     12  C   UNL     1       0.600   3.760   5.385  0.00  0.00    +0.002 C 
ATOM     13  C   UNL     1       1.613   3.413   6.493  0.00  0.00    +0.000 C 
ATOM     14  C   UNL     1       2.293   2.048   6.273  0.00  0.00    +0.000 C 
ATOM     15  C   UNL     1       1.329   0.992   5.804  0.00  0.00    +0.002 C 
ATOM     16  C   UNL     1       1.372   0.940   4.263  0.00  0.00    +0.022 C 
ENDBRANCH   8  10
ENDBRANCH   1   4
BRANCH   1  17
ATOM     17  C   UNL     1      -0.649   0.742  -2.303  0.00  0.00    -0.046 C 
BRANCH  17  23
ATOM     18  C   UNL     1      -2.779   0.910  -3.606  0.00  0.00    +0.003 A 
ATOM     19  C   UNL     1      -3.531   1.426  -4.641  0.00  0.00    +0.017 A 
ATOM     20  C   UNL     1      -2.958   2.338  -5.528  0.00  0.00    +0.025 A 
ATOM     21  C   UNL     1      -1.629   2.727  -5.359  0.00  0.00    +0.017 A 
ATOM     22  C   UNL     1      -0.889   2.208  -4.316  0.00  0.00    +0.003 A 
ATOM     23  C   UNL     1      -1.463   1.304  -3.439  0.00  0.00    -0.064 A 
BRANCH  20  24
ATOM     24  C   UNL     1      -3.731   2.873  -6.608  0.00  0.00    -0.066 C 
ATOM     25  C   UNL     1      -4.365   3.312  -7.494  0.00  0.00    -0.095 C 
BRANCH  25  26
ATOM     26  C   UNL     1      -5.160   3.862  -8.604  0.00  0.00    +0.117 C 
BRANCH  26  27
ATOM     27  C   UNL     1      -6.572   3.275  -8.560  0.00  0.00    +0.168 C 
BRANCH  27  28
ATOM     28  O   UNL     1      -7.344   3.809  -9.637  0.00  0.00    -0.394 OA
ATOM     29  H   UNL     1      -8.253   3.479  -9.671  0.00  0.00    +0.209 HD
ENDBRANCH  27  28
ENDBRANCH  26  27
ENDBRANCH  25  26
ENDBRANCH  20  24
ENDBRANCH  17  23
ENDBRANCH   1  17
TORSDOF 8
