REMARK  Name = ZINC02754708
REMARK  8 active torsions:
REMARK  status: ('A' for Active; 'I' for Inactive)
REMARK    1  A    between atoms: C_1  and  C_2
REMARK    2  A    between atoms: C_2  and  C_3
REMARK    3  A    between atoms: C_2  and  C_4
REMARK    4  A    between atoms: C_2  and  C_5
REMARK    5  A    between atoms: C_12  and  N_17
REMARK    6  A    between atoms: C_13  and  C_14
REMARK    7  A    between atoms: C_18  and  C_20
REMARK    8  A    between atoms: N_23  and  C_25
REMARK                            x       y       z     vdW  Elec       q    Type
REMARK                         _______ _______ _______ _____ _____    ______ ____
ROOT
ATOM      1  C   UNL     1       0.550  -7.948   6.946  0.00  0.00    -0.000 C 
ATOM      2  C   UNL     1      -0.293  -6.943   7.735  0.00  0.00    +0.009 C 
ATOM      3  C   UNL     1       0.141  -5.517   7.393  0.00  0.00    +0.037 C 
ATOM      4  C   UNL     1       0.126  -5.351   5.878  0.00  0.00    -0.023 A 
ATOM      5  C   UNL     1       0.133  -6.425   5.060  0.00  0.00    -0.004 A 
ATOM      6  S   UNL     1       0.102  -5.749   3.424  0.00  0.00    -0.077 S 
ATOM      7  C   UNL     1       0.091  -4.062   3.819  0.00  0.00    +0.085 A 
ATOM      8  C   UNL     1       0.104  -4.062   5.207  0.00  0.00    +0.068 A 
ATOM      9  C   UNL     1       0.157  -7.867   5.464  0.00  0.00    +0.046 C 
ENDROOT
BRANCH   8  10
ATOM     10  C   UNL     1       0.094  -2.809   5.967  0.00  0.00    +0.244 C 
ATOM     11  O   UNL     1      -0.964  -2.302   6.292  0.00  0.00    -0.270 OA
ATOM     12  N   UNL     1       1.256  -2.217   6.306  0.00  0.00    -0.325 N 
ATOM     13  H   UNL     1       2.100  -2.621   6.048  0.00  0.00    +0.145 HD
ATOM     14  H   UNL     1       1.250  -1.388   6.809  0.00  0.00    +0.145 HD
ENDBRANCH   8  10
BRANCH   1  16
ATOM     15  C   UNL     1       1.117 -10.366   6.668  0.00  0.00    +0.011 C 
ATOM     16  C   UNL     1       0.287  -9.362   7.470  0.00  0.00    -0.035 C 
ATOM     17  C   UNL     1       0.679  -9.439   8.947  0.00  0.00    +0.011 C 
ATOM     18  C   UNL     1      -1.200  -9.693   7.319  0.00  0.00    +0.011 C 
ENDBRANCH   1  16
BRANCH   7  19
ATOM     19  N   UNL     1       0.069  -2.977   2.958  0.00  0.00    -0.274 N 
ATOM     20  C   UNL     1       0.059  -3.174   1.625  0.00  0.00    +0.270 C 
ATOM     21  O   UNL     1       0.070  -4.305   1.177  0.00  0.00    -0.268 OA
ATOM     22  H   UNL     1       0.060  -2.075   3.315  0.00  0.00    +0.156 HD
BRANCH  20  23
ATOM     23  C   UNL     1       0.036  -2.018   0.707  0.00  0.00    +0.161 A 
ATOM     24  C   UNL     1       0.024  -2.066  -0.707  0.00  0.00    +0.068 A 
ATOM     25  C   UNL     1      -0.003  -0.775  -1.114  0.00  0.00    +0.124 A 
ATOM     26  N   UNL     1       0.002  -0.004   0.002  0.00  0.00    -0.273 N 
ATOM     27  N   UNL     1       0.022  -0.745   1.051  0.00  0.00    -0.166 NA
ATOM     28  C   UNL     1      -0.018   1.461   0.010  0.00  0.00    +0.172 C 
ATOM     29 BR   UNL     1       0.035  -3.610  -1.800  0.00  0.00    -0.046 Br
ENDBRANCH  20  23
ENDBRANCH   7  19
TORSDOF 4
