REMARK  Name = ZINC12466993
REMARK  13 active torsions:
REMARK  status: ('A' for Active; 'I' for Inactive)
REMARK    1  A    between atoms: C_1  and  C_2
REMARK    2  A    between atoms: C_2  and  O_3
REMARK    3  A    between atoms: O_3  and  C_4
REMARK    4  A    between atoms: C_9  and  C_10
REMARK    5  A    between atoms: C_10  and  N_70
REMARK    6  A    between atoms: C_16  and  C_18
REMARK    7  A    between atoms: C_18  and  C_19
REMARK    8  A    between atoms: N_21  and  C_22
REMARK    9  A    between atoms: N_21  and  C_23
REMARK   10  A    between atoms: C_25  and  C_30
REMARK   11  A    between atoms: C_25  and  C_31
REMARK   12  A    between atoms: C_26  and  C_28
REMARK   13  A    between atoms: C_26  and  C_29
REMARK                            x       y       z     vdW  Elec       q    Type
REMARK                         _______ _______ _______ _____ _____    ______ ____
ROOT
ATOM      1  C   UNL     1       4.080   5.759  -3.527  0.00  0.00    -0.058 C 
ATOM      2  C   UNL     1       4.684   7.067  -3.014  0.00  0.00    +0.085 C 
ATOM      3  N   UNL     1       4.631   7.105  -1.556  0.00  0.00    -0.318 N 
ATOM      4  C   UNL     1       4.457   6.011  -0.806  0.00  0.00    +0.200 C 
ATOM      5  O   UNL     1       4.455   6.128   0.401  0.00  0.00    -0.278 OA
ATOM      6  C   UNL     1       4.262   4.644  -1.397  0.00  0.00    +0.028 C 
ATOM      7  H   UNL     1       4.726   7.962  -1.110  0.00  0.00    +0.149 HD
ATOM      8  N   UNL     1       4.718   4.644  -2.800  0.00  0.00    +0.391 N 
ATOM      9  H   UNL     1       5.737   4.769  -2.821  0.00  0.00    -0.080 HD
ENDROOT
BRANCH   8  10
ATOM     10  C   UNL     1       4.377   3.355  -3.444  0.00  0.00    -0.038 C 
BRANCH  10  16
ATOM     11  C   UNL     1       6.357   2.999  -4.940  0.00  0.00    +0.122 A 
ATOM     12  C   UNL     1       6.938   2.956  -6.200  0.00  0.00    +0.046 A 
ATOM     13  C   UNL     1       6.176   3.226  -7.320  0.00  0.00    +0.004 A 
ATOM     14  C   UNL     1       4.833   3.529  -7.188  0.00  0.00    +0.000 A 
ATOM     15  C   UNL     1       4.252   3.572  -5.934  0.00  0.00    +0.005 A 
ATOM     16  C   UNL     1       5.011   3.307  -4.810  0.00  0.00    -0.022 A 
BRANCH  11  17
ATOM     17  O   UNL     1       7.106   2.739  -3.836  0.00  0.00    -0.492 OA
BRANCH  17  19
ATOM     18  C   UNL     1       9.160   2.168  -2.698  0.00  0.00    +0.048 C 
ATOM     19  C   UNL     1       8.485   2.429  -4.046  0.00  0.00    +0.225 C 
ENDBRANCH  17  19
ENDBRANCH  11  17
ENDBRANCH  10  16
ENDBRANCH   8  10
BRANCH   6  20
ATOM     20  C   UNL     1       5.087   3.627  -0.606  0.00  0.00    +0.090 C 
BRANCH  20  21
ATOM     21  C   UNL     1       4.520   3.491   0.784  0.00  0.00    +0.214 C 
ATOM     22  O   UNL     1       3.476   4.040   1.069  0.00  0.00    -0.276 OA
ATOM     23  N   UNL     1       5.172   2.761   1.710  0.00  0.00    -0.302 N 
ATOM     24  C   UNL     1       6.432   2.098   1.366  0.00  0.00    +0.132 C 
BRANCH  23  25
ATOM     25  C   UNL     1       4.619   2.629   3.063  0.00  0.00    +0.073 C 
ATOM     26  C   UNL     1       5.639   3.148   4.077  0.00  0.00    +0.009 C 
ATOM     27  C   UNL     1       5.107   2.993   5.499  0.00  0.00    -0.072 C 
ATOM     28  C   UNL     1       3.778   0.995   4.763  0.00  0.00    -0.072 C 
ATOM     29  C   UNL     1       4.358   1.151   3.358  0.00  0.00    +0.009 C 
ATOM     30  C   UNL     1       2.324   1.478   4.779  0.00  0.00    -0.010 C 
ATOM     31  C   UNL     1       3.766  -0.513   5.096  0.00  0.00    -0.010 C 
ATOM     32  C   UNL     1       4.062   4.080   5.777  0.00  0.00    -0.010 C 
ATOM     33  C   UNL     1       6.288   3.238   6.466  0.00  0.00    -0.010 C 
ATOM     34  N   UNL     1       4.587   1.640   5.833  0.00  0.00    +0.386 N 
ATOM     35  H   UNL     1       3.998   1.723   6.670  0.00  0.00    -0.084 HD
ATOM     36  H   UNL     1       5.388   1.032   6.037  0.00  0.00    -0.084 HD
ENDBRANCH  23  25
ENDBRANCH  20  21
ENDBRANCH   6  20
TORSDOF 7
