REMARK  Name = ZINC40612230
REMARK  8 active torsions:
REMARK  status: ('A' for Active; 'I' for Inactive)
REMARK    1  A    between atoms: C_1  and  C_2
REMARK    2  A    between atoms: C_10  and  N_26
REMARK    3  A    between atoms: C_11  and  N_15
REMARK    4  A    between atoms: N_15  and  C_16
REMARK    5  A    between atoms: C_18  and  C_24
REMARK    6  A    between atoms: C_18  and  C_25
REMARK    7  A    between atoms: C_20  and  C_22
REMARK    8  A    between atoms: C_20  and  C_23
REMARK                            x       y       z     vdW  Elec       q    Type
REMARK                         _______ _______ _______ _____ _____    ______ ____
ROOT
ATOM      1  C   UNL     1       3.168   0.432   1.769  0.00  0.00    +0.009 C 
ATOM      2  C   UNL     1       1.754  -0.131   1.931  0.00  0.00    +0.003 C 
ATOM      3  C   UNL     1       0.887   0.320   0.753  0.00  0.00    +0.006 C 
ATOM      4  C   UNL     1      -0.536  -0.215   0.930  0.00  0.00    +0.019 C 
ATOM      5  C   UNL     1      -0.502  -1.746   0.948  0.00  0.00    +0.106 C 
ATOM      6  N   UNL     1       0.442  -2.187   1.984  0.00  0.00    -0.313 N 
ATOM      7  C   UNL     1       1.813  -1.661   1.960  0.00  0.00    +0.109 C 
ATOM      8  C   UNL     1       0.046  -3.082   2.965  0.00  0.00    +0.157 A 
ATOM      9  C   UNL     1       0.119  -4.454   2.741  0.00  0.00    +0.205 A 
ATOM     10  C   UNL     1      -0.290  -5.311   3.758  0.00  0.00    +0.155 A 
ATOM     11  N   UNL     1      -0.734  -4.791   4.902  0.00  0.00    -0.218 NA
ATOM     12  C   UNL     1      -0.787  -3.486   5.076  0.00  0.00    +0.225 A 
ATOM     13  N   UNL     1      -0.405  -2.642   4.139  0.00  0.00    -0.218 NA
ENDROOT
BRANCH   9  14
ATOM     14  N   UNL     1       0.618  -4.987   1.454  0.00  0.00    +0.063 N 
ATOM     15  O   UNL     1       1.785  -5.277   1.331  0.00  0.00    -0.126 OA
ATOM     16  O   UNL     1      -0.142  -5.134   0.525  0.00  0.00    -0.126 OA
ENDBRANCH   9  14
BRANCH  10  17
ATOM     17  N   UNL     1      -0.237  -6.685   3.584  0.00  0.00    -0.324 N 
ATOM     18  H   UNL     1       0.086  -7.056   2.748  0.00  0.00    +0.148 HD
BRANCH  17  19
ATOM     19  C   UNL     1      -0.672  -7.579   4.665  0.00  0.00    +0.069 C 
ATOM     20  C   UNL     1       0.505  -7.835   5.609  0.00  0.00    +0.009 C 
ATOM     21  C   UNL     1       0.072  -8.775   6.733  0.00  0.00    -0.072 C 
ATOM     22  N   UNL     1      -0.513 -10.007   6.224  0.00  0.00    +0.386 N 
ATOM     23  C   UNL     1      -1.506  -9.896   5.167  0.00  0.00    -0.072 C 
ATOM     24  C   UNL     1      -1.107  -8.917   4.068  0.00  0.00    +0.009 C 
ATOM     25  C   UNL     1      -2.884  -9.527   5.721  0.00  0.00    -0.010 C 
ATOM     26  C   UNL     1      -1.642 -11.291   4.511  0.00  0.00    -0.010 C 
ATOM     27  C   UNL     1      -0.865  -8.049   7.698  0.00  0.00    -0.010 C 
ATOM     28  C   UNL     1       1.343  -9.156   7.527  0.00  0.00    -0.010 C 
ATOM     29  H   UNL     1       0.245 -10.608   5.892  0.00  0.00    -0.084 HD
ATOM     30  H   UNL     1      -0.932 -10.512   7.008  0.00  0.00    -0.084 HD
ENDBRANCH  17  19
ENDBRANCH  10  17
TORSDOF 3
