REMARK  Name = ZINC39898098
REMARK  13 active torsions:
REMARK  status: ('A' for Active; 'I' for Inactive)
REMARK    1  A    between atoms: C_1  and  C_2
REMARK    2  A    between atoms: C_2  and  C_3
REMARK    3  A    between atoms: C_2  and  C_4
REMARK    4  A    between atoms: C_4  and  C_5
REMARK    5  A    between atoms: C_5  and  O_6
REMARK    6  A    between atoms: O_6  and  C_7
REMARK    7  A    between atoms: C_11  and  C_13
REMARK    8  A    between atoms: C_16  and  C_28
REMARK    9  A    between atoms: N_23  and  C_24
REMARK   10  A    between atoms: C_24  and  C_25
REMARK   11  A    between atoms: C_25  and  C_26
REMARK   12  A    between atoms: C_26  and  O_27
REMARK   13  A    between atoms: C_33  and  O_34
REMARK                            x       y       z     vdW  Elec       q    Type
REMARK                         _______ _______ _______ _____ _____    ______ ____
ROOT
ATOM      1  C   UNL     1      -7.460  -0.622  -3.747  0.00  0.00    +0.141 C 
ATOM      2  C   UNL     1      -8.568   0.261  -3.240  0.00  0.00    +0.035 A 
ATOM      3  C   UNL     1      -9.103   0.983  -2.168  0.00  0.00    +0.102 A 
ATOM      4  N   UNL     1     -10.222   1.541  -2.588  0.00  0.00    -0.173 NA
ATOM      5  N   UNL     1     -10.445   1.243  -3.818  0.00  0.00    -0.272 N 
ATOM      6  H   UNL     1     -11.210   1.543  -4.333  0.00  0.00    +0.189 HD
ATOM      7  C   UNL     1      -9.446   0.441  -4.291  0.00  0.00    +0.126 A 
ATOM      8  C   UNL     1      -8.939  -0.296  -5.454  0.00  0.00    +0.265 C 
ATOM      9  O   UNL     1      -9.484  -0.340  -6.540  0.00  0.00    -0.268 OA
ATOM     10  N   UNL     1      -7.785  -0.919  -5.148  0.00  0.00    -0.285 N 
ENDROOT
BRANCH   3  11
ATOM     11  C   UNL     1      -8.520   1.099  -0.808  0.00  0.00    +0.045 A 
ATOM     12  C   UNL     1      -7.393   0.356  -0.465  0.00  0.00    +0.033 A 
ATOM     13  C   UNL     1      -6.854   0.467   0.802  0.00  0.00    +0.042 A 
ATOM     14  C   UNL     1      -7.430   1.316   1.732  0.00  0.00    +0.023 A 
ATOM     15  C   UNL     1      -8.549   2.057   1.401  0.00  0.00    +0.047 A 
ATOM     16  C   UNL     1      -9.095   1.959   0.131  0.00  0.00    +0.126 A 
ATOM     17 CL   UNL     1      -5.450  -0.460   1.230  0.00  0.00    -0.084 Cl
BRANCH  16  18
ATOM     18  O   UNL     1     -10.191   2.692  -0.197  0.00  0.00    -0.506 OA
ATOM     19  H   UNL     1     -11.031   2.249  -0.013  0.00  0.00    +0.292 HD
ENDBRANCH  16  18
ENDBRANCH   3  11
BRANCH   1  24
ATOM     20  C   UNL     1      -3.969   0.350  -2.679  0.00  0.00    +0.121 A 
ATOM     21  C   UNL     1      -3.719   1.433  -3.510  0.00  0.00    +0.045 A 
ATOM     22  C   UNL     1      -4.679   1.845  -4.414  0.00  0.00    +0.004 A 
ATOM     23  C   UNL     1      -5.889   1.179  -4.490  0.00  0.00    +0.006 A 
ATOM     24  C   UNL     1      -6.141   0.101  -3.662  0.00  0.00    -0.019 A 
ATOM     25  C   UNL     1      -5.181  -0.319  -2.761  0.00  0.00    +0.051 A 
BRANCH  20  26
ATOM     26  O   UNL     1      -3.025  -0.057  -1.790  0.00  0.00    -0.492 OA
BRANCH  26  27
ATOM     27  C   UNL     1      -1.800   0.679  -1.761  0.00  0.00    +0.229 C 
BRANCH  27  28
ATOM     28  C   UNL     1      -0.869   0.078  -0.706  0.00  0.00    +0.044 C 
BRANCH  28  30
ATOM     29  C   UNL     1       0.167   2.296  -0.204  0.00  0.00    +0.007 C 
ATOM     30  C   UNL     1       0.442   0.866  -0.675  0.00  0.00    -0.014 C 
ATOM     31  C   UNL     1       1.420   0.191   0.289  0.00  0.00    +0.007 C 
ENDBRANCH  28  30
ENDBRANCH  27  28
ENDBRANCH  26  27
ENDBRANCH  20  26
ENDBRANCH   1  24
BRANCH  10  32
ATOM     32  C   UNL     1      -6.989  -1.748  -6.056  0.00  0.00    +0.111 C 
BRANCH  32  33
ATOM     33  C   UNL     1      -7.450  -3.204  -5.954  0.00  0.00    +0.047 C 
BRANCH  33  34
ATOM     34  C   UNL     1      -6.619  -4.070  -6.902  0.00  0.00    +0.157 C 
BRANCH  34  35
ATOM     35  O   UNL     1      -7.049  -5.429  -6.807  0.00  0.00    -0.395 OA
ATOM     36  H   UNL     1      -6.565  -6.037  -7.382  0.00  0.00    +0.209 HD
ENDBRANCH  34  35
ENDBRANCH  33  34
ENDBRANCH  32  33
ENDBRANCH  10  32
TORSDOF 11
