REMARK  Name = ZINC39599055
REMARK  10 active torsions:
REMARK  status: ('A' for Active; 'I' for Inactive)
REMARK    1  A    between atoms: C_1  and  C_2
REMARK    2  A    between atoms: C_2  and  C_3
REMARK    3  A    between atoms: C_3  and  C_5
REMARK    4  A    between atoms: C_3  and  C_6
REMARK    5  A    between atoms: C_10  and  C_19
REMARK    6  A    between atoms: N_21  and  C_22
REMARK    7  A    between atoms: C_22  and  C_23
REMARK    8  A    between atoms: C_23  and  C_24
REMARK    9  A    between atoms: C_27  and  O_33
REMARK   10  A    between atoms: O_33  and  C_34
REMARK                            x       y       z     vdW  Elec       q    Type
REMARK                         _______ _______ _______ _____ _____    ______ ____
ROOT
ATOM      1  C   UNL     1      -1.378  -2.194  -0.100  0.00  0.00    +0.218 C 
ATOM      2  O   UNL     1      -0.340  -2.803  -0.249  0.00  0.00    -0.275 OA
ATOM      3  N   UNL     1      -2.555  -2.848  -0.145  0.00  0.00    -0.300 N 
ATOM      4  C   UNL     1      -3.916  -2.280   0.007  0.00  0.00    +0.121 C 
ATOM      5  C   UNL     1      -4.774  -3.039  -1.029  0.00  0.00    +0.100 C 
ATOM      6  C   UNL     1      -4.026  -4.363  -1.264  0.00  0.00    -0.004 C 
ATOM      7  C   UNL     1      -2.783  -4.296  -0.366  0.00  0.00    +0.115 C 
ATOM      8  C   UNL     1      -4.905  -5.544  -0.866  0.00  0.00    -0.010 C 
ATOM      9  C   UNL     1      -4.162  -6.850  -1.163  0.00  0.00    -0.082 C 
ATOM     10  N   UNL     1      -3.837  -6.916  -2.593  0.00  0.00    +0.379 N 
ATOM     11  C   UNL     1      -2.917  -5.829  -2.948  0.00  0.00    -0.082 C 
ATOM     12  C   UNL     1      -3.607  -4.480  -2.727  0.00  0.00    -0.010 C 
ATOM     13  H   UNL     1      -3.403  -7.803  -2.797  0.00  0.00    -0.086 HD
ATOM     14  H   UNL     1      -4.685  -6.828  -3.133  0.00  0.00    -0.086 HD
ENDROOT
BRANCH   5  15
ATOM     15  C   UNL     1      -6.151  -3.303  -0.478  0.00  0.00    +0.218 C 
ATOM     16  O   UNL     1      -6.307  -3.460   0.714  0.00  0.00    -0.275 OA
ATOM     17  N   UNL     1      -7.210  -3.365  -1.310  0.00  0.00    -0.315 N 
ATOM     18  H   UNL     1      -7.085  -3.239  -2.264  0.00  0.00    +0.149 HD
BRANCH  17  19
ATOM     19  C   UNL     1      -8.549  -3.621  -0.774  0.00  0.00    +0.109 C 
BRANCH  19  20
ATOM     20  C   UNL     1      -9.562  -3.641  -1.921  0.00  0.00    +0.056 C 
BRANCH  20  21
ATOM     21  C   UNL     1     -10.939  -3.904  -1.369  0.00  0.00    -0.021 A 
ATOM     22  C   UNL     1     -11.866  -2.908  -0.826  0.00  0.00    +0.006 A 
ATOM     23  C   UNL     1     -11.806  -1.524  -0.649  0.00  0.00    +0.056 A 
ATOM     24  C   UNL     1     -12.881  -0.861  -0.091  0.00  0.00    +0.121 A 
ATOM     25  C   UNL     1     -14.018  -1.566   0.292  0.00  0.00    +0.047 A 
ATOM     26  C   UNL     1     -14.088  -2.931   0.123  0.00  0.00    +0.030 A 
ATOM     27  C   UNL     1     -13.017  -3.618  -0.437  0.00  0.00    +0.047 A 
ATOM     28  N   UNL     1     -12.792  -4.946  -0.729  0.00  0.00    -0.360 N 
ATOM     29  C   UNL     1     -11.552  -5.096  -1.288  0.00  0.00    +0.087 A 
ATOM     30  H   UNL     1     -13.420  -5.667  -0.566  0.00  0.00    +0.165 HD
BRANCH  24  31
ATOM     31  O   UNL     1     -12.828   0.487   0.084  0.00  0.00    -0.495 OA
ATOM     32  C   UNL     1     -13.974   1.110   0.667  0.00  0.00    +0.277 C 
ENDBRANCH  24  31
ENDBRANCH  20  21
ENDBRANCH  19  20
ENDBRANCH  17  19
ENDBRANCH   5  15
BRANCH   1  33
ATOM     33  C   UNL     1      -1.351  -0.706   0.137  0.00  0.00    +0.072 C 
ATOM     34  C   UNL     1      -2.000  -0.393   1.487  0.00  0.00    +0.017 C 
BRANCH  33  36
ATOM     35  C   UNL     1       0.122   1.309   0.258  0.00  0.00    +0.004 C 
ATOM     36  C   UNL     1       0.099  -0.217   0.143  0.00  0.00    +0.009 C 
ENDBRANCH  33  36
ENDBRANCH   1  33
TORSDOF 7
