REMARK  Name = ZINC64600379
REMARK  8 active torsions:
REMARK  status: ('A' for Active; 'I' for Inactive)
REMARK    1  A    between atoms: C_7  and  C_10
REMARK    2  A    between atoms: C_10  and  C_11
REMARK    3  A    between atoms: C_11  and  C_12
REMARK    4  A    between atoms: C_18  and  C_21
REMARK    5  A    between atoms: N_23  and  C_24
REMARK    6  A    between atoms: C_24  and  C_25
REMARK    7  A    between atoms: C_25  and  C_26
REMARK    8  A    between atoms: C_29  and  O_32
REMARK                            x       y       z     vdW  Elec       q    Type
REMARK                         _______ _______ _______ _____ _____    ______ ____
ROOT
ATOM      1  C   UNL     1      -0.484  -4.830  -1.460  0.00  0.00    +0.216 C 
ATOM      2  O   UNL     1      -0.925  -5.254  -0.412  0.00  0.00    -0.276 OA
ATOM      3  N   UNL     1      -0.837  -5.413  -2.623  0.00  0.00    -0.301 N 
ATOM      4  C   UNL     1      -0.307  -4.916  -3.900  0.00  0.00    +0.108 C 
ATOM      5  C   UNL     1       0.331  -6.084  -4.658  0.00  0.00    +0.020 C 
ATOM      6  C   UNL     1      -0.690  -7.215  -4.799  0.00  0.00    +0.016 C 
ATOM      7  C   UNL     1      -1.103  -7.707  -3.410  0.00  0.00    +0.092 C 
ATOM      8  C   UNL     1      -1.753  -6.561  -2.638  0.00  0.00    +0.120 C 
ENDROOT
BRANCH   7   9
ATOM      9  C   UNL     1      -2.084  -8.843  -3.550  0.00  0.00    +0.218 C 
ATOM     10  O   UNL     1      -2.420  -9.221  -4.652  0.00  0.00    -0.275 OA
ATOM     11  N   UNL     1      -2.588  -9.438  -2.451  0.00  0.00    -0.315 N 
ATOM     12  H   UNL     1      -2.319  -9.135  -1.569  0.00  0.00    +0.149 HD
BRANCH  11  13
ATOM     13  C   UNL     1      -3.541 -10.542  -2.587  0.00  0.00    +0.109 C 
BRANCH  13  14
ATOM     14  C   UNL     1      -3.954 -11.034  -1.198  0.00  0.00    +0.054 C 
BRANCH  14  15
ATOM     15  C   UNL     1      -4.935 -12.169  -1.339  0.00  0.00    -0.046 A 
ATOM     16  C   UNL     1      -6.291 -11.906  -1.400  0.00  0.00    +0.007 A 
ATOM     17  C   UNL     1      -7.192 -12.945  -1.528  0.00  0.00    +0.045 A 
ATOM     18  C   UNL     1      -6.735 -14.254  -1.595  0.00  0.00    +0.117 A 
ATOM     19  C   UNL     1      -5.374 -14.515  -1.534  0.00  0.00    +0.045 A 
ATOM     20  C   UNL     1      -4.477 -13.472  -1.411  0.00  0.00    +0.007 A 
BRANCH  18  21
ATOM     21  O   UNL     1      -7.620 -15.278  -1.721  0.00  0.00    -0.507 OA
ATOM     22  H   UNL     1      -7.824 -15.511  -2.637  0.00  0.00    +0.292 HD
ENDBRANCH  18  21
ENDBRANCH  14  15
ENDBRANCH  13  14
ENDBRANCH  11  13
ENDBRANCH   7   9
BRANCH   1  23
ATOM     23  C   UNL     1       0.457  -3.653  -1.462  0.00  0.00    +0.100 C 
BRANCH  23  24
ATOM     24  C   UNL     1       0.691  -3.186  -0.024  0.00  0.00    +0.042 C 
BRANCH  24  31
ATOM     25  C   UNL     1      -0.016   1.348   0.009  0.00  0.00    +0.001 A 
ATOM     26  C   UNL     1       1.166   2.101   0.002  0.00  0.00    +0.002 A 
ATOM     27  C   UNL     1       2.391   1.535  -0.013  0.00  0.00    +0.026 A 
ATOM     28  C   UNL     1       2.529   0.120  -0.022  0.00  0.00    +0.043 A 
ATOM     29  N   UNL     1       3.587  -0.654  -0.037  0.00  0.00    -0.380 N 
ATOM     30  C   UNL     1       3.143  -2.053  -0.041  0.00  0.00    +0.144 C 
ATOM     31  C   UNL     1       1.631  -2.008  -0.025  0.00  0.00    -0.041 C 
ATOM     32  C   UNL     1       1.295  -0.698  -0.014  0.00  0.00    -0.001 A 
ATOM     33  C   UNL     1       0.002  -0.004   0.002  0.00  0.00    +0.010 A 
ATOM     34  H   UNL     1       4.509  -0.353  -0.045  0.00  0.00    +0.160 HD
ENDBRANCH  24  31
ENDBRANCH  23  24
ENDBRANCH   1  23
TORSDOF 8
