REMARK  Name = ZINC27551241
REMARK  7 active torsions:
REMARK  status: ('A' for Active; 'I' for Inactive)
REMARK    1  A    between atoms: C_1  and  C_2
REMARK    2  A    between atoms: C_5  and  N_8
REMARK    3  A    between atoms: C_12  and  C_13
REMARK    4  A    between atoms: C_16  and  C_18
REMARK    5  A    between atoms: C_21  and  S_24
REMARK    6  A    between atoms: S_24  and  N_27
REMARK    7  A    between atoms: C_28  and  C_30
REMARK                            x       y       z     vdW  Elec       q    Type
REMARK                         _______ _______ _______ _____ _____    ______ ____
ROOT
ATOM      1  C   UNL     1      -0.891  -2.254  -0.002  0.00  0.00    +0.129 A 
ATOM      2  C   UNL     1      -1.887  -3.223   0.002  0.00  0.00    +0.050 A 
ATOM      3  C   UNL     1      -1.245  -4.459  -0.011  0.00  0.00    +0.050 A 
ATOM      4  C   UNL     1       0.112  -4.211  -0.022  0.00  0.00    +0.136 A 
ATOM      5  O   UNL     1       0.306  -2.881  -0.022  0.00  0.00    -0.455 OA
ENDROOT
BRANCH   1  10
ATOM      6  N   UNL     1       2.105   0.800  -0.014  0.00  0.00    -0.156 N 
ATOM      7  C   UNL     1       1.425  -0.365  -0.013  0.00  0.00    +0.272 C 
ATOM      8  O   UNL     1       1.897  -1.490  -0.024  0.00  0.00    -0.268 OA
ATOM      9  C   UNL     1       0.002  -0.004   0.002  0.00  0.00    +0.065 C 
ATOM     10  C   UNL     1      -1.092  -0.868   0.007  0.00  0.00    +0.061 C 
ATOM     11  C   UNL     1      -0.018   1.464   0.010  0.00  0.00    +0.069 C 
ATOM     12  N   UNL     1       1.215   1.873   0.001  0.00  0.00    -0.177 NA
ATOM     13  C   UNL     1      -1.246   2.337   0.021  0.00  0.00    +0.068 C 
BRANCH   6  18
ATOM     14  C   UNL     1       7.761   1.264  -0.063  0.00  0.00    +0.044 C 
ATOM     15  C   UNL     1       6.259   1.140  -0.049  0.00  0.00    -0.050 A 
ATOM     16  C   UNL     1       5.473   2.278  -0.037  0.00  0.00    +0.005 A 
ATOM     17  C   UNL     1       4.096   2.169  -0.025  0.00  0.00    +0.026 A 
ATOM     18  C   UNL     1       3.501   0.914  -0.026  0.00  0.00    +0.060 A 
ATOM     19  C   UNL     1       4.293  -0.227  -0.034  0.00  0.00    +0.026 A 
ATOM     20  C   UNL     1       5.669  -0.111  -0.050  0.00  0.00    +0.005 A 
ENDBRANCH   6  18
ENDBRANCH   1  10
BRANCH   4  21
ATOM     21  C   UNL     1       1.174  -5.235  -0.037  0.00  0.00    +0.017 A 
ATOM     22  C   UNL     1       0.841  -6.592  -0.035  0.00  0.00    +0.013 A 
ATOM     23  C   UNL     1       1.839  -7.543  -0.056  0.00  0.00    +0.029 A 
ATOM     24  C   UNL     1       3.168  -7.157  -0.066  0.00  0.00    +0.105 A 
ATOM     25  C   UNL     1       3.506  -5.815  -0.061  0.00  0.00    +0.029 A 
ATOM     26  C   UNL     1       2.518  -4.852  -0.047  0.00  0.00    +0.013 A 
BRANCH  24  27
ATOM     27  S   UNL     1       4.437  -8.380  -0.085  0.00  0.00    +0.056 S 
ATOM     28  O   UNL     1       3.860  -9.555  -0.637  0.00  0.00    -0.153 OA
ATOM     29  O   UNL     1       5.588  -7.762  -0.643  0.00  0.00    -0.153 OA
BRANCH  27  30
ATOM     30  N   UNL     1       4.804  -8.729   1.492  0.00  0.00    -0.204 NA
ATOM     31  H   UNL     1       5.595  -9.492   1.524  0.00  0.00    +0.144 HD
ATOM     32  H   UNL     1       3.907  -9.110   2.002  0.00  0.00    +0.144 HD
ENDBRANCH  27  30
ENDBRANCH  24  27
ENDBRANCH   4  21
TORSDOF 5
