REMARK  Name = ZINC44545346
REMARK  18 active torsions:
REMARK  status: ('A' for Active; 'I' for Inactive)
REMARK    1  A    between atoms: C_1  and  C_2
REMARK    2  A    between atoms: C_2  and  O_3
REMARK    3  A    between atoms: O_3  and  C_4
REMARK    4  A    between atoms: C_4  and  C_6
REMARK    5  A    between atoms: C_6  and  N_8
REMARK    6  A    between atoms: C_6  and  S_12
REMARK    7  A    between atoms: C_9  and  C_11
REMARK    8  A    between atoms: S_12  and  C_13
REMARK    9  A    between atoms: C_14  and  C_25
REMARK   10  A    between atoms: C_27  and  C_36
REMARK   11  A    between atoms: C_28  and  O_35
REMARK   12  A    between atoms: C_29  and  C_31
REMARK   13  A    between atoms: C_31  and  C_32
REMARK   14  A    between atoms: C_31  and  C_33
REMARK   15  A    between atoms: C_31  and  C_34
REMARK   16  A    between atoms: C_36  and  C_37
REMARK   17  A    between atoms: C_36  and  C_38
REMARK   18  A    between atoms: C_36  and  C_39
REMARK                            x       y       z     vdW  Elec       q    Type
REMARK                         _______ _______ _______ _____ _____    ______ ____
ROOT
ATOM      1  C   UNL     1       1.237  -5.371  -2.883  0.00  0.00    +0.029 C 
ATOM      2  C   UNL     1       0.853  -4.896  -4.128  0.00  0.00    +0.043 C 
ATOM      3  C   UNL     1       0.375  -5.770  -5.128  0.00  0.00    +0.195 C 
ATOM      4  O   UNL     1       0.044  -5.322  -6.213  0.00  0.00    -0.287 OA
ATOM      5  C   UNL     1       0.273  -7.216  -4.874  0.00  0.00    +0.030 A 
ATOM      6  C   UNL     1      -0.199  -8.082  -5.862  0.00  0.00    +0.012 A 
ATOM      7  C   UNL     1      -0.286  -9.434  -5.603  0.00  0.00    +0.001 A 
ATOM      8  C   UNL     1       0.089  -9.941  -4.369  0.00  0.00    +0.001 A 
ATOM      9  C   UNL     1       0.557  -9.100  -3.380  0.00  0.00    +0.009 A 
ATOM     10  C   UNL     1       0.653  -7.734  -3.623  0.00  0.00    -0.007 A 
ATOM     11  C   UNL     1       1.158  -6.811  -2.582  0.00  0.00    -0.010 C 
ATOM     12  C   UNL     1       1.535  -7.280  -1.374  0.00  0.00    +0.018 C 
ENDROOT
BRANCH   2  13
ATOM     13  C   UNL     1       0.944  -3.446  -4.413  0.00  0.00    -0.012 A 
ATOM     14  C   UNL     1       0.235  -2.534  -3.633  0.00  0.00    +0.016 A 
ATOM     15  C   UNL     1       0.323  -1.184  -3.901  0.00  0.00    +0.000 A 
ATOM     16  C   UNL     1       1.116  -0.733  -4.947  0.00  0.00    +0.124 A 
ATOM     17  C   UNL     1       1.823  -1.638  -5.727  0.00  0.00    +0.000 A 
ATOM     18  C   UNL     1       1.745  -2.989  -5.460  0.00  0.00    +0.016 A 
BRANCH  17  19
ATOM     19  C   UNL     1       2.682  -1.143  -6.862  0.00  0.00    -0.009 C 
ATOM     20  C   UNL     1       3.364  -2.332  -7.541  0.00  0.00    +0.015 C 
ATOM     21  C   UNL     1       1.809  -0.406  -7.879  0.00  0.00    +0.015 C 
ATOM     22  C   UNL     1       3.747  -0.188  -6.317  0.00  0.00    +0.015 C 
ENDBRANCH  17  19
BRANCH  15  23
ATOM     23  C   UNL     1      -0.444  -0.197  -3.058  0.00  0.00    -0.009 C 
ATOM     24  C   UNL     1      -1.269  -0.951  -2.014  0.00  0.00    +0.015 C 
ATOM     25  C   UNL     1       0.537   0.741  -2.353  0.00  0.00    +0.015 C 
ATOM     26  C   UNL     1      -1.378   0.621  -3.953  0.00  0.00    +0.015 C 
ENDBRANCH  15  23
BRANCH  16  27
ATOM     27  O   UNL     1       1.199   0.599  -5.210  0.00  0.00    -0.506 OA
ATOM     28  H   UNL     1       1.912   1.049  -4.736  0.00  0.00    +0.292 HD
ENDBRANCH  16  27
ENDBRANCH   2  13
BRANCH   1  29
ATOM     29  S   UNL     1       1.829  -4.249  -1.660  0.00  0.00    -0.090 S 
BRANCH  29  30
ATOM     30  C   UNL     1       3.262  -3.460  -2.445  0.00  0.00    +0.246 C 
BRANCH  30  31
ATOM     31  N   UNL     1       4.492  -3.939  -1.810  0.00  0.00    -0.294 N 
ATOM     32  C   UNL     1       4.660  -5.256  -1.573  0.00  0.00    +0.211 C 
ATOM     33  O   UNL     1       3.816  -6.049  -1.934  0.00  0.00    -0.276 OA
ATOM     34  C   UNL     1       5.895  -5.742  -0.860  0.00  0.00    +0.109 C 
ATOM     35  H   UNL     1       5.186  -3.309  -1.560  0.00  0.00    +0.150 HD
ENDBRANCH  30  31
BRANCH  30  36
ATOM     36  C   UNL     1       3.163  -1.965  -2.283  0.00  0.00    +0.338 C 
ATOM     37  O   UNL     1       2.253  -1.485  -1.649  0.00  0.00    -0.248 OA
BRANCH  36  38
ATOM     38  O   UNL     1       4.085  -1.167  -2.845  0.00  0.00    -0.463 OA
BRANCH  38  40
ATOM     39  C   UNL     1       5.136   0.970  -3.255  0.00  0.00    +0.048 C 
ATOM     40  C   UNL     1       3.973   0.234  -2.587  0.00  0.00    +0.229 C 
ENDBRANCH  38  40
ENDBRANCH  36  38
ENDBRANCH  30  36
ENDBRANCH  29  30
ENDBRANCH   1  29
TORSDOF 10
