REMARK  Name = ZINC09509622
REMARK  6 active torsions:
REMARK  status: ('A' for Active; 'I' for Inactive)
REMARK    1  A    between atoms: C_4  and  N_11
REMARK    2  A    between atoms: C_5  and  C_7
REMARK    3  A    between atoms: C_16  and  C_19
REMARK    4  A    between atoms: C_19  and  C_20
REMARK    5  A    between atoms: N_22  and  C_23
REMARK    6  A    between atoms: C_25  and  N_30
REMARK                            x       y       z     vdW  Elec       q    Type
REMARK                         _______ _______ _______ _____ _____    ______ ____
ROOT
ATOM      1  N   UNL     1       3.651  -0.664  -0.033  0.00  0.00    -0.225 NA
ATOM      2  C   UNL     1       4.766   0.019  -0.138  0.00  0.00    +0.161 C 
ATOM      3  N   UNL     1       6.052  -0.463  -0.265  0.00  0.00    -0.264 N 
ATOM      4  C   UNL     1       7.102   0.333  -0.363  0.00  0.00    +0.232 C 
ATOM      5  O   UNL     1       8.230  -0.099  -0.475  0.00  0.00    -0.274 OA
ATOM      6  C   UNL     1       6.808   1.824  -0.328  0.00  0.00    +0.149 C 
ATOM      7  S   UNL     1       4.976   1.794  -0.158  0.00  0.00    -0.077 S 
ATOM      8  H   UNL     1       6.190  -1.423  -0.282  0.00  0.00    +0.157 HD
ENDROOT
BRANCH   1  12
ATOM      9  C   UNL     1       0.013   1.310   0.010  0.00  0.00    +0.001 A 
ATOM     10  C   UNL     1       1.059   1.776   0.787  0.00  0.00    +0.002 A 
ATOM     11  C   UNL     1       2.274   1.124   0.777  0.00  0.00    +0.028 A 
ATOM     12  C   UNL     1       2.447  -0.011  -0.018  0.00  0.00    +0.078 A 
ATOM     13  C   UNL     1       1.387  -0.477  -0.799  0.00  0.00    +0.080 A 
ATOM     14  C   UNL     1       0.177   0.186  -0.780  0.00  0.00    +0.014 A 
BRANCH  13  15
ATOM     15  C   UNL     1       1.565  -1.700  -1.661  0.00  0.00    +0.419 C 
ATOM     16  F   UNL     1       0.373  -1.967  -2.343  0.00  0.00    -0.166 F 
ATOM     17  F   UNL     1       2.591  -1.475  -2.585  0.00  0.00    -0.166 F 
ATOM     18  F   UNL     1       1.896  -2.795  -0.855  0.00  0.00    -0.166 F 
ENDBRANCH  13  15
ENDBRANCH   1  12
BRANCH   6  19
ATOM     19  C   UNL     1       7.229   2.503  -1.633  0.00  0.00    +0.120 C 
BRANCH  19  20
ATOM     20  C   UNL     1       7.034   3.993  -1.509  0.00  0.00    +0.219 C 
ATOM     21  O   UNL     1       6.602   4.465  -0.479  0.00  0.00    -0.275 OA
ATOM     22  N   UNL     1       7.340   4.800  -2.544  0.00  0.00    -0.284 N 
ATOM     23  H   UNL     1       7.606   4.419  -3.395  0.00  0.00    +0.155 HD
BRANCH  22  24
ATOM     24  C   UNL     1       7.275   6.190  -2.390  0.00  0.00    +0.054 A 
ATOM     25  C   UNL     1       7.408   6.758  -1.130  0.00  0.00    +0.057 A 
ATOM     26  C   UNL     1       7.344   8.129  -0.981  0.00  0.00    +0.128 A 
ATOM     27  C   UNL     1       7.147   8.938  -2.086  0.00  0.00    +0.034 A 
ATOM     28  C   UNL     1       7.015   8.377  -3.342  0.00  0.00    +0.024 A 
ATOM     29  C   UNL     1       7.083   7.005  -3.499  0.00  0.00    +0.062 A 
ATOM     30 CL   UNL     1       6.924   6.302  -5.078  0.00  0.00    -0.082 Cl
BRANCH  26  31
ATOM     31  N   UNL     1       7.485   8.734   0.362  0.00  0.00    +0.056 N 
ATOM     32  O   UNL     1       7.656   8.028   1.329  0.00  0.00    -0.126 OA
ATOM     33  O   UNL     1       7.429   9.935   0.494  0.00  0.00    -0.126 OA
ENDBRANCH  26  31
ENDBRANCH  22  24
ENDBRANCH  19  20
ENDBRANCH   6  19
TORSDOF 6
