REMARK  Name = ZINC04288639
REMARK  7 active torsions:
REMARK  status: ('A' for Active; 'I' for Inactive)
REMARK    1  A    between atoms: C_4  and  C_7
REMARK    2  A    between atoms: C_7  and  N_53
REMARK    3  A    between atoms: C_12  and  S_19
REMARK    4  A    between atoms: S_19  and  C_20
REMARK    5  A    between atoms: N_25  and  C_26
REMARK    6  A    between atoms: C_26  and  N_28
REMARK    7  A    between atoms: N_28  and  C_29
REMARK                            x       y       z     vdW  Elec       q    Type
REMARK                         _______ _______ _______ _____ _____    ______ ____
ROOT
ATOM      1  C   UNL     1      -7.949   0.940  -0.431  0.00  0.00    +0.160 A 
ATOM      2  N   UNL     1      -7.707   2.114  -0.984  0.00  0.00    -0.133 NA
ATOM      3  N   UNL     1      -8.484   2.548  -2.034  0.00  0.00    -0.125 NA
ATOM      4  C   UNL     1      -9.472   1.795  -2.475  0.00  0.00    +0.188 A 
ATOM      5  S   UNL     1      -9.345   0.378  -1.394  0.00  0.00    -0.024 S 
ATOM      6  N   UNL     1     -10.374   2.039  -3.507  0.00  0.00    -0.274 N 
ATOM      7  H   UNL     1     -11.056   1.383  -3.720  0.00  0.00    +0.156 HD
ENDROOT
BRANCH   6   8
ATOM      8  C   UNL     1     -10.298   3.186  -4.211  0.00  0.00    +0.140 C 
ATOM      9  S   UNL     1      -9.093   4.342  -3.836  0.00  0.00    -0.018 S 
BRANCH   8  10
ATOM     10  N   UNL     1     -11.171   3.422  -5.210  0.00  0.00    -0.295 N 
ATOM     11  H   UNL     1     -11.897   2.800  -5.377  0.00  0.00    +0.154 HD
BRANCH  10  12
ATOM     12  C   UNL     1     -11.031   4.564  -6.007  0.00  0.00    +0.051 A 
ATOM     13  C   UNL     1      -9.781   4.923  -6.494  0.00  0.00    +0.026 A 
ATOM     14  C   UNL     1      -9.646   6.051  -7.280  0.00  0.00    +0.022 A 
ATOM     15  C   UNL     1     -10.754   6.823  -7.582  0.00  0.00    +0.042 A 
ATOM     16  C   UNL     1     -12.001   6.468  -7.099  0.00  0.00    +0.041 A 
ATOM     17  C   UNL     1     -12.143   5.338  -6.316  0.00  0.00    +0.063 A 
ATOM     18 CL   UNL     1     -13.709   4.889  -5.715  0.00  0.00    -0.082 Cl
ATOM     19 CL   UNL     1     -10.579   8.239  -8.572  0.00  0.00    -0.083 Cl
ENDBRANCH  10  12
ENDBRANCH   8  10
ENDBRANCH   6   8
BRANCH   1  20
ATOM     20  S   UNL     1      -7.121   0.143   0.905  0.00  0.00    -0.095 S 
BRANCH  20  24
ATOM     21  C   UNL     1      -4.286   2.881   3.205  0.00  0.00    -0.073 C 
ATOM     22  C   UNL     1      -5.797   2.590   3.463  0.00  0.00    -0.015 C 
ATOM     23  C   UNL     1      -6.430   2.591   2.037  0.00  0.00    +0.015 C 
ATOM     24  C   UNL     1      -5.815   1.312   1.371  0.00  0.00    +0.041 C 
ATOM     25  C   UNL     1      -4.900   0.695   2.473  0.00  0.00    -0.041 C 
ATOM     26  C   UNL     1      -5.716   1.050   3.764  0.00  0.00    +0.046 C 
ATOM     27 BR   UNL     1      -7.490   0.202   3.778  0.00  0.00    -0.089 Br
ATOM     28  N   UNL     1      -3.770   1.643   2.609  0.00  0.00    +0.386 N 
ATOM     29  H   UNL     1      -3.052   1.238   3.222  0.00  0.00    -0.081 HD
BRANCH  28  30
ATOM     30  C   UNL     1      -3.167   1.927   1.268  0.00  0.00    -0.043 C 
BRANCH  30  34
ATOM     31  C   UNL     1       0.660   3.759   1.760  0.00  0.00    +0.000 A 
ATOM     32  C   UNL     1       0.558   2.382   1.679  0.00  0.00    +0.000 A 
ATOM     33  C   UNL     1      -0.681   1.790   1.523  0.00  0.00    +0.002 A 
ATOM     34  C   UNL     1      -1.817   2.573   1.444  0.00  0.00    -0.064 A 
ATOM     35  C   UNL     1      -1.716   3.949   1.531  0.00  0.00    +0.002 A 
ATOM     36  C   UNL     1      -0.477   4.542   1.687  0.00  0.00    +0.000 A 
ENDBRANCH  30  34
ENDBRANCH  28  30
ENDBRANCH  20  24
ENDBRANCH   1  20
TORSDOF 7
