REMARK  Name = ZINC03521980
REMARK  12 active torsions:
REMARK  status: ('A' for Active; 'I' for Inactive)
REMARK    1  A    between atoms: C_1  and  C_2
REMARK    2  A    between atoms: C_2  and  C_4
REMARK    3  A    between atoms: C_2  and  S_17
REMARK    4  A    between atoms: N_6  and  C_7
REMARK    5  A    between atoms: C_10  and  S_13
REMARK    6  A    between atoms: S_13  and  N_16
REMARK    7  A    between atoms: S_17  and  C_18
REMARK    8  A    between atoms: C_21  and  C_27
REMARK    9  A    between atoms: N_22  and  C_23
REMARK   10  A    between atoms: C_23  and  C_24
REMARK   11  A    between atoms: C_24  and  C_25
REMARK   12  A    between atoms: C_24  and  C_26
REMARK                            x       y       z     vdW  Elec       q    Type
REMARK                         _______ _______ _______ _____ _____    ______ ____
ROOT
ATOM      1  C   UNL     1      -0.244   0.878   0.483  0.00  0.00    +0.029 C 
ATOM      2  C   UNL     1       0.056  -0.591   0.175  0.00  0.00    +0.137 C 
ENDROOT
BRANCH   2   3
ATOM      3  C   UNL     1      -1.237  -1.360   0.090  0.00  0.00    +0.230 C 
ATOM      4  O   UNL     1      -1.656  -1.951   1.063  0.00  0.00    -0.274 OA
ATOM      5  N   UNL     1      -1.927  -1.392  -1.067  0.00  0.00    -0.285 N 
ATOM      6  H   UNL     1      -1.628  -0.866  -1.825  0.00  0.00    +0.155 HD
BRANCH   5   7
ATOM      7  C   UNL     1      -3.075  -2.186  -1.175  0.00  0.00    +0.034 A 
ATOM      8  C   UNL     1      -3.369  -2.823  -2.373  0.00  0.00    +0.025 A 
ATOM      9  C   UNL     1      -4.503  -3.605  -2.477  0.00  0.00    +0.030 A 
ATOM     10  C   UNL     1      -5.344  -3.754  -1.389  0.00  0.00    +0.105 A 
ATOM     11  C   UNL     1      -5.053  -3.120  -0.195  0.00  0.00    +0.030 A 
ATOM     12  C   UNL     1      -3.918  -2.341  -0.083  0.00  0.00    +0.025 A 
BRANCH  10  13
ATOM     13  S   UNL     1      -6.789  -4.753  -1.525  0.00  0.00    +0.056 S 
ATOM     14  O   UNL     1      -7.697  -4.291  -0.534  0.00  0.00    -0.153 OA
ATOM     15  O   UNL     1      -7.125  -4.795  -2.905  0.00  0.00    -0.153 OA
BRANCH  13  16
ATOM     16  N   UNL     1      -6.362  -6.294  -1.095  0.00  0.00    -0.204 NA
ATOM     17  H   UNL     1      -7.016  -6.882  -0.687  0.00  0.00    +0.144 HD
ATOM     18  H   UNL     1      -5.457  -6.608  -1.252  0.00  0.00    +0.144 HD
ENDBRANCH  13  16
ENDBRANCH  10  13
ENDBRANCH   5   7
ENDBRANCH   2   3
BRANCH   2  19
ATOM     19  S   UNL     1       1.089  -1.287   1.494  0.00  0.00    -0.074 S 
BRANCH  19  20
ATOM     20  C   UNL     1       2.600  -0.390   1.370  0.00  0.00    +0.193 A 
ATOM     21  N   UNL     1       2.873   0.563   0.507  0.00  0.00    -0.122 NA
ATOM     22  N   UNL     1       4.066   1.001   0.696  0.00  0.00    -0.128 NA
ATOM     23  C   UNL     1       4.629   0.355   1.690  0.00  0.00    +0.168 A 
ATOM     24  N   UNL     1       3.706  -0.552   2.156  0.00  0.00    -0.302 N 
BRANCH  23  25
ATOM     25  C   UNL     1       5.995   0.566   2.214  0.00  0.00    +0.054 A 
ATOM     26  C   UNL     1       6.406  -0.081   3.381  0.00  0.00    +0.014 A 
ATOM     27  C   UNL     1       7.683   0.120   3.864  0.00  0.00    +0.001 A 
ATOM     28  C   UNL     1       8.556   0.961   3.196  0.00  0.00    +0.003 A 
ATOM     29  C   UNL     1       8.156   1.606   2.040  0.00  0.00    +0.039 A 
ATOM     30  C   UNL     1       6.883   1.409   1.540  0.00  0.00    +0.134 A 
ATOM     31  F   UNL     1       6.495   2.035   0.408  0.00  0.00    -0.205 F 
ENDBRANCH  23  25
BRANCH  24  32
ATOM     32  C   UNL     1       3.874  -1.497   3.263  0.00  0.00    +0.129 C 
BRANCH  32  33
ATOM     33  C   UNL     1       3.591  -0.786   4.588  0.00  0.00    +0.003 C 
ATOM     34  C   UNL     1       2.132  -0.327   4.620  0.00  0.00    +0.009 C 
ATOM     35  C   UNL     1       3.848  -1.750   5.749  0.00  0.00    +0.009 C 
ENDBRANCH  32  33
ENDBRANCH  24  32
ENDBRANCH  19  20
ENDBRANCH   2  19
TORSDOF 9
