REMARK  Name = ZINC20805394
REMARK  14 active torsions:
REMARK  status: ('A' for Active; 'I' for Inactive)
REMARK    1  A    between atoms: C_1  and  C_2
REMARK    2  A    between atoms: C_3  and  C_11
REMARK    3  A    between atoms: C_4  and  C_10
REMARK    4  A    between atoms: N_5  and  C_7
REMARK    5  A    between atoms: C_7  and  C_8
REMARK    6  A    between atoms: C_7  and  C_9
REMARK    7  A    between atoms: N_12  and  N_13
REMARK    8  A    between atoms: C_17  and  S_20
REMARK    9  A    between atoms: N_18  and  N_19
REMARK   10  A    between atoms: S_20  and  C_21
REMARK   11  A    between atoms: C_21  and  C_22
REMARK   12  A    between atoms: N_24  and  C_25
REMARK   13  A    between atoms: C_30  and  O_31
REMARK   14  A    between atoms: O_31  and  C_32
REMARK                            x       y       z     vdW  Elec       q    Type
REMARK                         _______ _______ _______ _____ _____    ______ ____
ROOT
ATOM      1  N   UNL     1       7.120  11.259  -0.771  0.00  0.00    -0.204 N 
ATOM      2  C   UNL     1       6.458  10.046  -0.651  0.00  0.00    +0.254 A 
ATOM      3  N   UNL     1       7.021   8.863  -0.596  0.00  0.00    -0.109 NA
ATOM      4  N   UNL     1       6.006   7.906  -0.470  0.00  0.00    -0.119 NA
ATOM      5  C   UNL     1       4.855   8.535  -0.460  0.00  0.00    +0.210 A 
ATOM      6  N   UNL     1       5.104   9.874  -0.568  0.00  0.00    -0.211 N 
ATOM      7  H   UNL     1       6.547  12.197  -0.808  0.00  0.00    +0.177 HD
ENDROOT
BRANCH   6   8
ATOM      8  N   UNL     1       4.166  10.867  -0.590  0.00  0.00    -0.294 N 
ATOM      9  H   UNL     1       3.098  10.615  -0.517  0.00  0.00    +0.163 HD
ATOM     10  H   UNL     1       4.479  11.917  -0.681  0.00  0.00    +0.163 HD
ENDBRANCH   6   8
BRANCH   1  12
ATOM     11  C   UNL     1       9.138  12.425  -0.959  0.00  0.00    +0.141 C 
ATOM     12  N   UNL     1       8.519  11.290  -0.847  0.00  0.00    -0.187 NA
BRANCH  11  15
ATOM     13  C   UNL     1      11.055   9.900  -0.880  0.00  0.00    +0.068 C 
ATOM     14  C   UNL     1      11.476  11.341  -1.005  0.00  0.00    +0.069 A 
ATOM     15  C   UNL     1      10.612  12.457  -1.038  0.00  0.00    +0.038 A 
ATOM     16  C   UNL     1      11.399  13.581  -1.164  0.00  0.00    +0.045 A 
ATOM     17  N   UNL     1      12.683  13.171  -1.198  0.00  0.00    -0.265 N 
ATOM     18  N   UNL     1      12.704  11.775  -1.100  0.00  0.00    -0.175 NA
ATOM     19  C   UNL     1      10.914  15.005  -1.246  0.00  0.00    +0.066 C 
BRANCH  17  20
ATOM     20  C   UNL     1      13.857  14.040  -1.320  0.00  0.00    +0.101 C 
ATOM     21  C   UNL     1      14.761  13.851  -0.100  0.00  0.00    +0.032 C 
ATOM     22  C   UNL     1      14.630  13.676  -2.589  0.00  0.00    +0.032 C 
ENDBRANCH  17  20
ENDBRANCH  11  15
ENDBRANCH   1  12
BRANCH   5  23
ATOM     23  S   UNL     1       3.266   7.785  -0.324  0.00  0.00    -0.075 S 
BRANCH  23  24
ATOM     24  C   UNL     1       3.626   6.011  -0.216  0.00  0.00    +0.173 C 
BRANCH  24  25
ATOM     25  C   UNL     1       2.335   5.243  -0.094  0.00  0.00    +0.228 C 
ATOM     26  O   UNL     1       1.277   5.835  -0.081  0.00  0.00    -0.275 OA
ATOM     27  N   UNL     1       2.357   3.899   0.000  0.00  0.00    -0.282 N 
ATOM     28  H   UNL     1       3.318   3.368   0.079  0.00  0.00    +0.155 HD
BRANCH  27  29
ATOM     29  C   UNL     1       1.156   3.176  -0.003  0.00  0.00    +0.077 A 
ATOM     30  C   UNL     1       0.023   3.714  -0.596  0.00  0.00    +0.047 A 
ATOM     31  C   UNL     1      -1.161   2.999  -0.598  0.00  0.00    +0.043 A 
ATOM     32  C   UNL     1      -1.216   1.745  -0.015  0.00  0.00    +0.024 A 
ATOM     33  C   UNL     1      -0.092   1.207   0.583  0.00  0.00    +0.049 A 
ATOM     34  C   UNL     1       1.098   1.917   0.589  0.00  0.00    +0.141 A 
ATOM     35 CL   UNL     1      -2.578   3.673  -1.341  0.00  0.00    -0.083 Cl
BRANCH  34  36
ATOM     36  O   UNL     1       2.206   1.385   1.171  0.00  0.00    -0.493 OA
ATOM     37  C   UNL     1       2.072   0.089   1.758  0.00  0.00    +0.277 C 
ENDBRANCH  34  36
ENDBRANCH  27  29
ENDBRANCH  24  25
ENDBRANCH  23  24
ENDBRANCH   5  23
TORSDOF 9
