REMARK  Name = ZINC48524495
REMARK  2 active torsions:
REMARK  status: ('A' for Active; 'I' for Inactive)
REMARK    1  A    between atoms: C_1  and  C_2
REMARK    2  A    between atoms: C_5  and  C_8
REMARK                            x       y       z     vdW  Elec       q    Type
REMARK                         _______ _______ _______ _____ _____    ______ ____
ROOT
ATOM      1  C   UNL     1       0.058  -4.251  -0.021  0.00  0.00    +0.139 A 
ATOM      2  N   UNL     1       0.069  -5.042   1.097  0.00  0.00    -0.338 N 
ATOM      3  H   UNL     1       0.065  -4.737   2.017  0.00  0.00    +0.167 HD
ATOM      4  C   UNL     1       0.085  -6.361   0.666  0.00  0.00    +0.069 A 
ATOM      5  C   UNL     1       0.101  -7.559   1.335  0.00  0.00    +0.059 A 
ATOM      6  C   UNL     1       0.116  -8.765   0.610  0.00  0.00    +0.113 A 
ATOM      7  C   UNL     1       0.115  -8.718  -0.858  0.00  0.00    +0.094 A 
ATOM      8  C   UNL     1       0.099  -7.473  -1.504  0.00  0.00    +0.059 A 
ATOM      9  C   UNL     1       0.084  -6.308  -0.751  0.00  0.00    +0.092 A 
ATOM     10  N   UNL     1       0.062  -4.996  -1.099  0.00  0.00    -0.228 NA
ATOM     11  N   UNL     1       0.129  -9.850  -1.563  0.00  0.00    -0.243 NA
ATOM     12  C   UNL     1       0.144 -11.019  -0.930  0.00  0.00    +0.091 A 
ATOM     13  C   UNL     1       0.158 -12.235  -1.646  0.00  0.00    +0.030 A 
ATOM     14  C   UNL     1       0.172 -13.412  -0.969  0.00  0.00    +0.002 A 
ATOM     15  C   UNL     1       0.174 -13.455   0.426  0.00  0.00    +0.002 A 
ATOM     16  C   UNL     1       0.160 -12.323   1.175  0.00  0.00    +0.031 A 
ATOM     17  C   UNL     1       0.145 -11.065   0.536  0.00  0.00    +0.111 A 
ATOM     18  N   UNL     1       0.131  -9.938   1.242  0.00  0.00    -0.129 N 
ATOM     19  O   UNL     1       0.132  -9.984   2.657  0.00  0.00    -0.163 OA
ENDROOT
BRANCH   1  24
ATOM     20  C   UNL     1      -0.018   1.503   0.010  0.00  0.00    +0.044 C 
ATOM     21  C   UNL     1       0.002  -0.004   0.002  0.00  0.00    -0.050 A 
ATOM     22  C   UNL     1       0.006  -0.686  -1.202  0.00  0.00    +0.004 A 
ATOM     23  C   UNL     1       0.024  -2.066  -1.216  0.00  0.00    +0.012 A 
ATOM     24  C   UNL     1       0.039  -2.773  -0.013  0.00  0.00    +0.017 A 
ATOM     25  C   UNL     1       0.036  -2.079   1.198  0.00  0.00    +0.012 A 
ATOM     26  C   UNL     1       0.023  -0.699   1.198  0.00  0.00    +0.004 A 
ENDBRANCH   1  24
TORSDOF 1
