REMARK  Name = ZINC39534197
REMARK  9 active torsions:
REMARK  status: ('A' for Active; 'I' for Inactive)
REMARK    1  A    between atoms: C_4  and  O_7
REMARK    2  A    between atoms: O_7  and  S_8
REMARK    3  A    between atoms: S_8  and  C_11
REMARK    4  A    between atoms: N_14  and  C_18
REMARK    5  A    between atoms: C_18  and  C_20
REMARK    6  A    between atoms: C_18  and  C_23
REMARK    7  A    between atoms: C_20  and  N_21
REMARK    8  A    between atoms: C_26  and  C_29
REMARK    9  A    between atoms: C_34  and  O_35
REMARK                            x       y       z     vdW  Elec       q    Type
REMARK                         _______ _______ _______ _____ _____    ______ ____
ROOT
ATOM      1  C   UNL     1       3.174  -4.213   5.213  0.00  0.00    +0.102 C 
ENDROOT
BRANCH   1   4
ATOM      2  C   UNL     1       0.488  -1.984   3.796  0.00  0.00    +0.130 C 
ATOM      3  C   UNL     1       1.395  -2.608   4.859  0.00  0.00    +0.095 C 
ATOM      4  N   UNL     1       2.323  -3.549   4.216  0.00  0.00    -0.296 NA
ATOM      5  C   UNL     1       3.136  -2.867   3.199  0.00  0.00    +0.066 C 
ATOM      6  C   UNL     1       2.215  -2.241   2.149  0.00  0.00    -0.064 C 
ATOM      7  N   UNL     1       1.310  -1.284   2.800  0.00  0.00    +0.398 N 
ATOM      8  H   UNL     1       0.712  -0.862   2.106  0.00  0.00    -0.083 HD
ATOM      9  H   UNL     1       1.853  -0.566   3.257  0.00  0.00    -0.083 HD
BRANCH   2  10
ATOM     10  S   UNL     1      -0.643  -0.804   4.583  0.00  0.00    +0.109 S 
ATOM     11  O   UNL     1       0.081   0.315   5.073  0.00  0.00    -0.138 OA
ATOM     12  O   UNL     1      -1.566  -1.493   5.417  0.00  0.00    -0.138 OA
BRANCH  10  13
ATOM     13  O   UNL     1      -1.488  -0.252   3.443  0.00  0.00    -0.347 OA
BRANCH  13  17
ATOM     14  C   UNL     1      -4.360  -2.870   2.059  0.00  0.00    +0.000 A 
ATOM     15  C   UNL     1      -4.662  -1.992   3.084  0.00  0.00    +0.004 A 
ATOM     16  C   UNL     1      -3.702  -1.115   3.549  0.00  0.00    +0.048 A 
ATOM     17  C   UNL     1      -2.434  -1.115   2.987  0.00  0.00    +0.156 A 
ATOM     18  C   UNL     1      -2.133  -1.996   1.960  0.00  0.00    +0.048 A 
ATOM     19  C   UNL     1      -3.097  -2.872   1.498  0.00  0.00    +0.004 A 
ENDBRANCH  13  17
ENDBRANCH  10  13
ENDBRANCH   2  10
ENDBRANCH   1   4
BRANCH   1  20
ATOM     20  C   UNL     1       2.396  -5.316   5.883  0.00  0.00    -0.029 A 
ATOM     21  C   UNL     1       1.030  -5.412   5.689  0.00  0.00    +0.006 A 
ATOM     22  C   UNL     1       0.313  -6.420   6.301  0.00  0.00    +0.009 A 
ATOM     23  C   UNL     1       0.968  -7.343   7.114  0.00  0.00    -0.014 A 
ATOM     24  C   UNL     1       2.345  -7.242   7.305  0.00  0.00    +0.009 A 
ATOM     25  C   UNL     1       3.053  -6.233   6.684  0.00  0.00    +0.006 A 
BRANCH  23  26
ATOM     26  C   UNL     1       0.202  -8.428   7.774  0.00  0.00    +0.024 A 
ATOM     27  C   UNL     1      -0.955  -8.132   8.490  0.00  0.00    +0.012 A 
ATOM     28  C   UNL     1      -1.664  -9.146   9.103  0.00  0.00    +0.001 A 
ATOM     29  C   UNL     1      -1.229 -10.456   9.009  0.00  0.00    +0.004 A 
ATOM     30  C   UNL     1      -0.082 -10.761   8.301  0.00  0.00    +0.046 A 
ATOM     31  C   UNL     1       0.636  -9.754   7.676  0.00  0.00    +0.125 A 
BRANCH  31  32
ATOM     32  O   UNL     1       1.761 -10.052   6.975  0.00  0.00    -0.506 OA
ATOM     33  H   UNL     1       2.570 -10.035   7.504  0.00  0.00    +0.292 HD
ENDBRANCH  31  32
ENDBRANCH  23  26
ENDBRANCH   1  20
BRANCH   1  34
ATOM     34  C   UNL     1       3.620  -3.193   6.262  0.00  0.00    +0.122 C 
BRANCH  34  35
ATOM     35  N   UNL     1       4.343  -2.097   5.604  0.00  0.00    -0.231 NA
ATOM     36 CL   UNL     1       4.861  -0.932   6.744  0.00  0.00    -0.024 Cl
ATOM     37  H   UNL     1       5.122  -2.448   5.067  0.00  0.00    +0.141 HD
ENDBRANCH  34  35
ENDBRANCH   1  34
TORSDOF 9
