REMARK  Name = ZINC16104515
REMARK  6 active torsions:
REMARK  status: ('A' for Active; 'I' for Inactive)
REMARK    1  A    between atoms: C_6  and  N_7
REMARK    2  A    between atoms: C_8  and  C_10
REMARK    3  A    between atoms: C_10  and  C_11
REMARK    4  A    between atoms: C_11  and  S_12
REMARK    5  A    between atoms: S_12  and  C_13
REMARK    6  A    between atoms: C_13  and  C_14
REMARK                            x       y       z     vdW  Elec       q    Type
REMARK                         _______ _______ _______ _____ _____    ______ ____
ROOT
ATOM      1  C   UNL     1       4.709   7.130  -0.011  0.00  0.00    +0.079 C 
ENDROOT
BRANCH   1   2
ATOM      2  C   UNL     1       3.931   8.447  -0.001  0.00  0.00    +0.107 C 
BRANCH   2   4
ATOM      3  N   UNL     1       4.437  10.868   0.012  0.00  0.00    -0.285 N 
ATOM      4  C   UNL     1       4.899   9.602   0.003  0.00  0.00    +0.218 C 
ATOM      5  O   UNL     1       6.093   9.392  -0.001  0.00  0.00    -0.275 OA
ATOM      6  H   UNL     1       3.484  11.037  -0.052  0.00  0.00    +0.155 HD
BRANCH   3  12
ATOM      7  C   UNL     1       6.581  11.862  -0.491  0.00  0.00    +0.027 A 
ATOM      8  C   UNL     1       7.466  12.918  -0.391  0.00  0.00    +0.051 A 
ATOM      9  C   UNL     1       7.112  14.058   0.312  0.00  0.00    +0.173 A 
ATOM     10  C   UNL     1       5.861  14.140   0.920  0.00  0.00    +0.174 A 
ATOM     11  C   UNL     1       4.973  13.083   0.815  0.00  0.00    +0.073 A 
ATOM     12  C   UNL     1       5.334  11.940   0.114  0.00  0.00    +0.037 A 
ATOM     13  O   UNL     1       5.756  15.350   1.542  0.00  0.00    -0.395 OA
ATOM     14  C   UNL     1       6.791  16.169   0.967  0.00  0.00    +0.589 C 
ATOM     15  O   UNL     1       7.791  15.218   0.555  0.00  0.00    -0.395 OA
ATOM     16  F   UNL     1       6.302  16.877  -0.136  0.00  0.00    -0.125 F 
ATOM     17  F   UNL     1       7.310  17.049   1.923  0.00  0.00    -0.125 F 
ENDBRANCH   3  12
ENDBRANCH   2   4
ENDBRANCH   1   2
BRANCH   1  18
ATOM     18  S   UNL     1       3.543   5.739  -0.017  0.00  0.00    -0.153 S 
BRANCH  18  19
ATOM     19  C   UNL     1       4.610   4.272  -0.029  0.00  0.00    +0.143 C 
BRANCH  19  20
ATOM     20  C   UNL     1       3.757   3.030  -0.034  0.00  0.00    +0.121 A 
ATOM     21  N   UNL     1       4.372   1.823  -0.043  0.00  0.00    -0.310 N 
ATOM     22  H   UNL     1       5.342   1.799  -0.045  0.00  0.00    +0.170 HD
ATOM     23  C   UNL     1       3.697   0.650  -0.048  0.00  0.00    +0.260 A 
ATOM     24  O   UNL     1       4.268  -0.427  -0.056  0.00  0.00    -0.267 OA
ATOM     25  C   UNL     1       2.265   0.755  -0.044  0.00  0.00    +0.075 A 
ATOM     26  C   UNL     1       1.312  -0.340  -0.049  0.00  0.00    -0.023 A 
ATOM     27  C   UNL     1       0.001  -0.003  -0.045  0.00  0.00    -0.004 A 
ATOM     28  S   UNL     1      -0.023   1.772  -0.033  0.00  0.00    -0.073 S 
ATOM     29  C   UNL     1       1.718   2.058  -0.035  0.00  0.00    +0.116 A 
ATOM     30  N   UNL     1       2.449   3.168  -0.029  0.00  0.00    -0.226 NA
ATOM     31  C   UNL     1      -1.174  -0.932  -0.049  0.00  0.00    +0.043 C 
ATOM     32  C   UNL     1      -0.684  -2.335  -0.433  0.00  0.00    +0.005 C 
ATOM     33  C   UNL     1       0.557  -2.665   0.401  0.00  0.00    +0.005 C 
ATOM     34  C   UNL     1       1.735  -1.806  -0.059  0.00  0.00    +0.037 C 
ENDBRANCH  19  20
ENDBRANCH  18  19
ENDBRANCH   1  18
TORSDOF 6
