REMARK  Name = ZINC20134352
REMARK  8 active torsions:
REMARK  status: ('A' for Active; 'I' for Inactive)
REMARK    1  A    between atoms: C_1  and  C_2
REMARK    2  A    between atoms: C_2  and  C_3
REMARK    3  A    between atoms: C_3  and  C_4
REMARK    4  A    between atoms: C_4  and  S_5
REMARK    5  A    between atoms: S_5  and  C_6
REMARK    6  A    between atoms: C_17  and  C_19
REMARK    7  A    between atoms: C_29  and  C_31
REMARK    8  A    between atoms: C_29  and  C_32
REMARK                            x       y       z     vdW  Elec       q    Type
REMARK                         _______ _______ _______ _____ _____    ______ ____
ROOT
ATOM      1  C   UNL     1       2.599   6.336  -3.454  0.00  0.00    +0.171 A 
ATOM      2  N   UNL     1       2.852   5.003  -3.568  0.00  0.00    -0.302 N 
ATOM      3  H   UNL     1       3.089   4.570  -4.551  0.00  0.00    +0.171 HD
ATOM      4  C   UNL     1       2.812   4.209  -2.476  0.00  0.00    +0.258 A 
ATOM      5  O   UNL     1       3.036   3.013  -2.569  0.00  0.00    -0.267 OA
ATOM      6  C   UNL     1       2.508   4.785  -1.236  0.00  0.00    +0.069 A 
ATOM      7  C   UNL     1       2.265   6.145  -1.174  0.00  0.00    +0.135 A 
ATOM      8  N   UNL     1       2.315   6.883  -2.289  0.00  0.00    -0.208 NA
ATOM      9  N   UNL     1       1.971   6.732   0.041  0.00  0.00    -0.302 N 
ATOM     10  C   UNL     1       2.295   6.106   1.213  0.00  0.00    +0.017 C 
ATOM     11  C   UNL     1       2.533   4.777   1.248  0.00  0.00    +0.024 C 
ATOM     12  C   UNL     1       2.451   3.936  -0.001  0.00  0.00    +0.092 C 
ATOM     13  C   UNL     1       2.863   4.132   2.453  0.00  0.00    +0.162 C 
ATOM     14  O   UNL     1       3.090   2.938   2.446  0.00  0.00    -0.292 OA
ATOM     15  C   UNL     1       2.941   4.890   3.749  0.00  0.00    +0.086 C 
ATOM     16  C   UNL     1       1.995   6.094   3.680  0.00  0.00    -0.023 C 
ATOM     17  C   UNL     1       2.382   6.942   2.467  0.00  0.00    +0.058 C 
ATOM     18  C   UNL     1       0.552   5.607   3.529  0.00  0.00    +0.011 C 
ATOM     19  C   UNL     1       2.127   6.927   4.956  0.00  0.00    +0.011 C 
ATOM     20  H   UNL     1       1.473   7.712   0.072  0.00  0.00    +0.153 HD
ENDROOT
BRANCH  12  21
ATOM     21  C   UNL     1       1.156   3.166   0.008  0.00  0.00    -0.035 A 
ATOM     22  C   UNL     1       1.175   1.783   0.000  0.00  0.00    +0.005 A 
ATOM     23  C   UNL     1      -0.013   1.076   0.008  0.00  0.00    +0.015 A 
ATOM     24  C   UNL     1      -1.220   1.751   0.017  0.00  0.00    +0.018 A 
ATOM     25  C   UNL     1      -1.238   3.134   0.031  0.00  0.00    +0.015 A 
ATOM     26  C   UNL     1      -0.050   3.841   0.023  0.00  0.00    +0.005 A 
ATOM     27 BR   UNL     1      -2.845   0.784   0.020  0.00  0.00    -0.050 Br
ENDBRANCH  12  21
BRANCH   1  28
ATOM     28  S   UNL     1       2.652   7.351  -4.893  0.00  0.00    -0.088 S 
BRANCH  28  29
ATOM     29  C   UNL     1       2.251   8.957  -4.160  0.00  0.00    +0.077 C 
BRANCH  29  30
ATOM     30  C   UNL     1       2.239  10.027  -5.253  0.00  0.00    +0.011 C 
BRANCH  30  32
ATOM     31  C   UNL     1       1.887  12.455  -5.727  0.00  0.00    +0.004 C 
ATOM     32  C   UNL     1       1.899  11.384  -4.634  0.00  0.00    -0.003 C 
ENDBRANCH  30  32
ENDBRANCH  29  30
ENDBRANCH  28  29
ENDBRANCH   1  28
TORSDOF 5
