REMARK  Name = ZINC20411861
REMARK  10 active torsions:
REMARK  status: ('A' for Active; 'I' for Inactive)
REMARK    1  A    between atoms: C_1  and  C_2
REMARK    2  A    between atoms: C_5  and  C_9
REMARK    3  A    between atoms: C_7  and  C_8
REMARK    4  A    between atoms: N_11  and  C_12
REMARK    5  A    between atoms: C_12  and  N_14
REMARK    6  A    between atoms: C_20  and  C_24
REMARK    7  A    between atoms: C_24  and  O_26
REMARK    8  A    between atoms: O_26  and  C_27
REMARK    9  A    between atoms: C_27  and  C_28
REMARK   10  A    between atoms: C_27  and  C_29
REMARK                            x       y       z     vdW  Elec       q    Type
REMARK                         _______ _______ _______ _____ _____    ______ ____
ROOT
ATOM      1  N   UNL     1      -2.613  -8.141   1.566  0.00  0.00    -0.169 NA
ATOM      2  C   UNL     1      -2.322  -6.801   1.391  0.00  0.00    +0.163 A 
ATOM      3  N   UNL     1      -1.294  -6.252   0.783  0.00  0.00    -0.335 N 
ATOM      4  C   UNL     1      -1.133  -4.924   0.685  0.00  0.00    +0.055 A 
ATOM      5  C   UNL     1      -0.076  -4.218   0.058  0.00  0.00    +0.027 A 
ATOM      6  C   UNL     1      -0.053  -2.863   0.041  0.00  0.00    +0.017 A 
ATOM      7  C   UNL     1      -1.070  -2.106   0.640  0.00  0.00    +0.060 A 
ATOM      8  C   UNL     1      -2.127  -2.770   1.272  0.00  0.00    +0.032 A 
ATOM      9  C   UNL     1      -2.149  -4.137   1.282  0.00  0.00    +0.039 A 
ATOM     10  S   UNL     1      -3.248  -5.372   1.934  0.00  0.00    -0.052 S 
ATOM     11  H   UNL     1      -0.520  -6.888   0.328  0.00  0.00    +0.168 HD
ENDROOT
BRANCH   1  12
ATOM     12  C   UNL     1      -1.780  -9.081   1.077  0.00  0.00    +0.163 C 
ATOM     13  S   UNL     1      -0.362  -8.615   0.239  0.00  0.00    -0.016 S 
BRANCH  12  16
ATOM     14  C   UNL     1      -1.231 -11.327   0.758  0.00  0.00    +0.250 C 
ATOM     15  O   UNL     1      -0.224 -10.997   0.163  0.00  0.00    -0.270 OA
ATOM     16  N   UNL     1      -2.064 -10.387   1.247  0.00  0.00    -0.262 N 
ATOM     17  H   UNL     1      -2.975 -10.687   1.785  0.00  0.00    +0.157 HD
BRANCH  14  22
ATOM     18  C   UNL     1      -2.443 -16.905   1.484  0.00  0.00    +0.044 C 
ATOM     19  C   UNL     1      -2.125 -15.444   1.294  0.00  0.00    -0.047 A 
ATOM     20  C   UNL     1      -2.983 -14.482   1.798  0.00  0.00    +0.004 A 
ATOM     21  C   UNL     1      -2.695 -13.143   1.632  0.00  0.00    +0.013 A 
ATOM     22  C   UNL     1      -1.542 -12.760   0.944  0.00  0.00    +0.037 A 
ATOM     23  C   UNL     1      -0.681 -13.736   0.439  0.00  0.00    +0.016 A 
ATOM     24  C   UNL     1      -0.978 -15.072   0.617  0.00  0.00    -0.047 A 
ATOM     25  C   UNL     1      -0.050 -16.127   0.072  0.00  0.00    +0.044 C 
ENDBRANCH  14  22
ENDBRANCH  12  16
ENDBRANCH   1  12
BRANCH   7  26
ATOM     26  C   UNL     1      -1.024  -0.633   0.609  0.00  0.00    +0.339 C 
ATOM     27  O   UNL     1      -1.910   0.014   1.130  0.00  0.00    -0.245 OA
BRANCH  26  28
ATOM     28  O   UNL     1       0.002  -0.004   0.002  0.00  0.00    -0.458 OA
BRANCH  28  29
ATOM     29  C   UNL     1      -0.018   1.448   0.010  0.00  0.00    +0.171 C 
ATOM     30  C   UNL     1       1.418   1.977  -0.001  0.00  0.00    +0.052 C 
ATOM     31  C   UNL     1      -0.758   1.955  -1.230  0.00  0.00    +0.052 C 
ENDBRANCH  28  29
ENDBRANCH  26  28
ENDBRANCH   7  26
TORSDOF 6
