REMARK  Name = ZINC13519127
REMARK  14 active torsions:
REMARK  status: ('A' for Active; 'I' for Inactive)
REMARK    1  A    between atoms: C_3  and  O_10
REMARK    2  A    between atoms: C_6  and  N_7
REMARK    3  A    between atoms: O_10  and  C_11
REMARK    4  A    between atoms: C_13  and  O_42
REMARK    5  A    between atoms: C_15  and  O_25
REMARK    6  A    between atoms: C_17  and  O_24
REMARK    7  A    between atoms: C_19  and  C_22
REMARK    8  A    between atoms: C_22  and  O_23
REMARK    9  A    between atoms: O_25  and  C_26
REMARK   10  A    between atoms: C_28  and  O_41
REMARK   11  A    between atoms: C_30  and  O_40
REMARK   12  A    between atoms: C_32  and  O_39
REMARK   13  A    between atoms: C_34  and  C_37
REMARK   14  A    between atoms: C_37  and  O_38
REMARK                            x       y       z     vdW  Elec       q    Type
REMARK                         _______ _______ _______ _____ _____    ______ ____
ROOT
ATOM      1  C   UNL     1       4.065   1.149   4.553  0.00  0.00    +0.339 C 
ATOM      2  C   UNL     1       4.542   1.327   3.109  0.00  0.00    +0.214 C 
ATOM      3  C   UNL     1       4.349   0.010   2.350  0.00  0.00    +0.187 C 
ATOM      4  C   UNL     1       5.106  -1.103   3.080  0.00  0.00    +0.177 C 
ATOM      5  C   UNL     1       4.606  -1.187   4.525  0.00  0.00    +0.179 C 
ATOM      6  O   UNL     1       4.787   0.078   5.164  0.00  0.00    -0.331 OA
ENDROOT
BRANCH   4   7
ATOM      7  O   UNL     1       6.505  -0.813   3.075  0.00  0.00    -0.386 OA
ATOM      8  H   UNL     1       7.047  -1.478   3.522  0.00  0.00    +0.210 HD
ENDBRANCH   4   7
BRANCH   2   9
ATOM      9  O   UNL     1       3.783   2.359   2.477  0.00  0.00    -0.383 OA
ATOM     10  H   UNL     1       3.858   3.222   2.906  0.00  0.00    +0.210 HD
ENDBRANCH   2   9
BRANCH   1  11
ATOM     11  O   UNL     1       4.294   2.356   5.282  0.00  0.00    -0.461 OA
BRANCH  11  14
ATOM     12  C   UNL     1       3.543   3.591   8.622  0.00  0.00    +0.036 A 
ATOM     13  C   UNL     1       4.017   3.545   7.325  0.00  0.00    +0.048 A 
ATOM     14  C   UNL     1       3.829   2.404   6.559  0.00  0.00    +0.124 A 
ATOM     15  C   UNL     1       3.161   1.313   7.096  0.00  0.00    +0.048 A 
ATOM     16  C   UNL     1       2.694   1.361   8.395  0.00  0.00    +0.036 A 
ATOM     17  C   UNL     1       2.882   2.500   9.156  0.00  0.00    +0.126 A 
BRANCH  17  18
ATOM     18  N   UNL     1       2.376   2.551  10.546  0.00  0.00    +0.056 N 
ATOM     19  O   UNL     1       2.542   3.554  11.218  0.00  0.00    -0.126 OA
ATOM     20  O   UNL     1       1.794   1.591  11.018  0.00  0.00    -0.126 OA
ENDBRANCH  17  18
ENDBRANCH  11  14
ENDBRANCH   1  11
BRANCH   5  21
ATOM     21  C   UNL     1       5.400  -2.257   5.278  0.00  0.00    +0.190 C 
BRANCH  21  22
ATOM     22  O   UNL     1       4.858  -2.416   6.591  0.00  0.00    -0.392 OA
ATOM     23  H   UNL     1       5.313  -3.080   7.127  0.00  0.00    +0.210 HD
ENDBRANCH  21  22
ENDBRANCH   5  21
BRANCH   3  24
ATOM     24  O   UNL     1       2.958  -0.312   2.299  0.00  0.00    -0.340 OA
BRANCH  24  25
ATOM     25  C   UNL     1       2.587  -1.107   1.171  0.00  0.00    +0.282 C 
ATOM     26  C   UNL     1       1.154  -1.615   1.353  0.00  0.00    +0.201 C 
ATOM     27  C   UNL     1       0.743  -2.416   0.114  0.00  0.00    +0.179 C 
ATOM     28  C   UNL     1       0.893  -1.530  -1.127  0.00  0.00    +0.177 C 
ATOM     29  C   UNL     1       2.336  -1.026  -1.213  0.00  0.00    +0.178 C 
ATOM     30  O   UNL     1       2.664  -0.316  -0.017  0.00  0.00    -0.341 OA
BRANCH  28  31
ATOM     31  O   UNL     1       0.581  -2.289  -2.296  0.00  0.00    -0.386 OA
ATOM     32  H   UNL     1      -0.318  -2.644  -2.307  0.00  0.00    +0.210 HD
ENDBRANCH  28  31
BRANCH  27  33
ATOM     33  O   UNL     1      -0.618  -2.833   0.242  0.00  0.00    -0.386 OA
ATOM     34  H   UNL     1      -0.786  -3.398   1.008  0.00  0.00    +0.210 HD
ENDBRANCH  27  33
BRANCH  26  35
ATOM     35  O   UNL     1       0.271  -0.503   1.517  0.00  0.00    -0.384 OA
ATOM     36  H   UNL     1       0.473   0.050   2.285  0.00  0.00    +0.210 HD
ENDBRANCH  26  35
BRANCH  29  37
ATOM     37  C   UNL     1       2.479  -0.092  -2.416  0.00  0.00    +0.190 C 
BRANCH  37  38
ATOM     38  O   UNL     1       3.849   0.286  -2.565  0.00  0.00    -0.392 OA
ATOM     39  H   UNL     1       4.014   0.880  -3.311  0.00  0.00    +0.210 HD
ENDBRANCH  37  38
ENDBRANCH  29  37
ENDBRANCH  24  25
ENDBRANCH   3  24
TORSDOF 14
