REMARK  Name = ZINC35747375
REMARK  15 active torsions:
REMARK  status: ('A' for Active; 'I' for Inactive)
REMARK    1  A    between atoms: C_1  and  C_2
REMARK    2  A    between atoms: C_2  and  C_3
REMARK    3  A    between atoms: C_2  and  C_4
REMARK    4  A    between atoms: C_4  and  N_5
REMARK    5  A    between atoms: N_5  and  C_6
REMARK    6  A    between atoms: N_5  and  C_25
REMARK    7  A    between atoms: C_6  and  C_7
REMARK    8  A    between atoms: C_13  and  C_18
REMARK    9  A    between atoms: C_25  and  C_26
REMARK   10  A    between atoms: C_26  and  C_28
REMARK   11  A    between atoms: C_26  and  O_38
REMARK   12  A    between atoms: C_28  and  O_29
REMARK   13  A    between atoms: O_29  and  C_30
REMARK   14  A    between atoms: C_33  and  O_36
REMARK   15  A    between atoms: O_36  and  C_37
REMARK                            x       y       z     vdW  Elec       q    Type
REMARK                         _______ _______ _______ _____ _____    ______ ____
ROOT
ATOM      1  N   UNL     1      -2.391  -0.165  -1.348  0.00  0.00    +0.386 N 
ATOM      2  H   UNL     1      -2.647   0.720  -1.759  0.00  0.00    -0.081 HD
ENDROOT
BRANCH   1   3
ATOM      3  C   UNL     1      -1.351   0.050  -0.332  0.00  0.00    -0.075 C 
BRANCH   3   5
ATOM      4  C   UNL     1      -0.554   2.099  -1.519  0.00  0.00    +0.005 C 
ATOM      5  C   UNL     1      -0.141   0.729  -0.977  0.00  0.00    -0.034 C 
ATOM      6  C   UNL     1       0.961   0.906   0.069  0.00  0.00    +0.005 C 
ENDBRANCH   3   5
ENDBRANCH   1   3
BRANCH   1   7
ATOM      7  C   UNL     1      -1.877  -1.060  -2.393  0.00  0.00    -0.003 C 
BRANCH   7   8
ATOM      8  C   UNL     1      -2.859  -1.116  -3.534  0.00  0.00    +0.094 A 
ATOM      9  N   UNL     1      -2.648  -1.986  -4.555  0.00  0.00    -0.312 N 
ATOM     10  H   UNL     1      -1.866  -2.560  -4.536  0.00  0.00    +0.170 HD
ATOM     11  C   UNL     1      -3.502  -2.068  -5.592  0.00  0.00    +0.260 A 
ATOM     12  O   UNL     1      -3.298  -2.856  -6.500  0.00  0.00    -0.267 OA
ATOM     13  C   UNL     1      -4.653  -1.218  -5.612  0.00  0.00    +0.080 A 
ATOM     14  C   UNL     1      -5.711  -1.120  -6.611  0.00  0.00    +0.006 A 
ATOM     15  C   UNL     1      -6.713  -0.230  -6.413  0.00  0.00    +0.056 A 
ATOM     16  S   UNL     1      -6.287   0.534  -4.860  0.00  0.00    -0.076 S 
ATOM     17  C   UNL     1      -4.788  -0.351  -4.515  0.00  0.00    +0.116 A 
ATOM     18  N   UNL     1      -3.903  -0.331  -3.522  0.00  0.00    -0.229 NA
BRANCH  14  19
ATOM     19  C   UNL     1      -5.690  -1.978  -7.819  0.00  0.00    +0.019 A 
ATOM     20  C   UNL     1      -5.535  -1.407  -9.081  0.00  0.00    +0.011 A 
ATOM     21  C   UNL     1      -5.516  -2.210 -10.203  0.00  0.00    +0.001 A 
ATOM     22  C   UNL     1      -5.650  -3.582 -10.078  0.00  0.00    +0.003 A 
ATOM     23  C   UNL     1      -5.804  -4.157  -8.830  0.00  0.00    +0.039 A 
ATOM     24  C   UNL     1      -5.819  -3.363  -7.698  0.00  0.00    +0.131 A 
ATOM     25  F   UNL     1      -5.964  -3.925  -6.478  0.00  0.00    -0.205 F 
ENDBRANCH  14  19
ENDBRANCH   7   8
ENDBRANCH   1   7
BRANCH   1  26
ATOM     26  C   UNL     1      -3.571  -0.773  -0.720  0.00  0.00    -0.043 C 
BRANCH  26  27
ATOM     27  C   UNL     1      -4.221   0.236   0.229  0.00  0.00    +0.135 C 
BRANCH  27  28
ATOM     28  O   UNL     1      -3.372   0.442   1.360  0.00  0.00    -0.390 OA
ATOM     29  H   UNL     1      -3.198  -0.360   1.872  0.00  0.00    +0.210 HD
ENDBRANCH  27  28
BRANCH  27  30
ATOM     30  C   UNL     1      -5.574  -0.303   0.698  0.00  0.00    +0.258 C 
BRANCH  30  31
ATOM     31  O   UNL     1      -6.232   0.688   1.490  0.00  0.00    -0.489 OA
BRANCH  31  32
ATOM     32  C   UNL     1      -7.456   0.366   1.989  0.00  0.00    +0.121 A 
ATOM     33  C   UNL     1      -8.007  -0.879   1.726  0.00  0.00    +0.049 A 
ATOM     34  C   UNL     1      -9.249  -1.206   2.232  0.00  0.00    +0.049 A 
ATOM     35  C   UNL     1      -9.946  -0.289   3.005  0.00  0.00    +0.120 A 
ATOM     36  C   UNL     1      -9.395   0.956   3.269  0.00  0.00    +0.049 A 
ATOM     37  C   UNL     1      -8.150   1.281   2.766  0.00  0.00    +0.049 A 
BRANCH  35  38
ATOM     38  O   UNL     1     -11.170  -0.611   3.503  0.00  0.00    -0.495 OA
ATOM     39  C   UNL     1     -11.831   0.382   4.290  0.00  0.00    +0.277 C 
ENDBRANCH  35  38
ENDBRANCH  31  32
ENDBRANCH  30  31
ENDBRANCH  27  30
ENDBRANCH  26  27
ENDBRANCH   1  26
TORSDOF 12
