REMARK  Name = ZINC39506513
REMARK  4 active torsions:
REMARK  status: ('A' for Active; 'I' for Inactive)
REMARK    1  A    between atoms: C_4  and  O_26
REMARK    2  A    between atoms: C_5  and  C_7
REMARK    3  A    between atoms: C_14  and  C_19
REMARK    4  A    between atoms: C_24  and  O_25
REMARK                            x       y       z     vdW  Elec       q    Type
REMARK                         _______ _______ _______ _____ _____    ______ ____
ROOT
ATOM      1  C   UNL     1       1.227  -2.187  -0.022  0.00  0.00    +0.024 C 
ATOM      2  C   UNL     1       0.451  -2.746   1.197  0.00  0.00    +0.010 C 
ATOM      3  C   UNL     1       0.046  -4.166   0.725  0.00  0.00    +0.024 C 
ATOM      4  C   UNL     1      -0.287  -3.983  -0.765  0.00  0.00    +0.034 C 
ATOM      5  C   UNL     1       0.459  -2.730  -1.246  0.00  0.00    +0.031 C 
ATOM      6  C   UNL     1      -1.803  -3.808  -0.950  0.00  0.00    +0.032 C 
ATOM      7  C   UNL     1      -2.080  -4.574  -2.272  0.00  0.00    +0.039 C 
ATOM      8  C   UNL     1      -1.073  -5.748  -2.173  0.00  0.00    +0.106 C 
ATOM      9  N   UNL     1       0.128  -5.162  -1.536  0.00  0.00    -0.235 NA
ATOM     10 BR   UNL     1       0.972  -6.400  -0.451  0.00  0.00    +0.013 Br
ENDROOT
BRANCH   1  15
ATOM     11  C   UNL     1      -0.017   1.378   0.010  0.00  0.00    +0.001 A 
ATOM     12  C   UNL     1       1.170   2.088   0.002  0.00  0.00    +0.004 A 
ATOM     13  C   UNL     1       2.377   1.417  -0.013  0.00  0.00    +0.046 A 
ATOM     14  C   UNL     1       2.399   0.030  -0.021  0.00  0.00    +0.120 A 
ATOM     15  C   UNL     1       1.207  -0.680  -0.013  0.00  0.00    -0.003 A 
ATOM     16  C   UNL     1       0.002  -0.004   0.002  0.00  0.00    +0.007 A 
BRANCH  14  17
ATOM     17  O   UNL     1       3.586  -0.632  -0.037  0.00  0.00    -0.506 OA
ATOM     18  H   UNL     1       3.938  -0.829   0.842  0.00  0.00    +0.292 HD
ENDBRANCH  14  17
ENDBRANCH   1  15
BRANCH   7  19
ATOM     19  C   UNL     1      -3.499  -5.082  -2.314  0.00  0.00    -0.002 A 
ATOM     20  C   UNL     1      -3.950  -5.955  -1.343  0.00  0.00    +0.007 A 
ATOM     21  C   UNL     1      -5.251  -6.422  -1.382  0.00  0.00    +0.001 A 
ATOM     22  C   UNL     1      -6.104  -6.015  -2.392  0.00  0.00    +0.004 A 
ATOM     23  C   UNL     1      -5.658  -5.142  -3.365  0.00  0.00    +0.046 A 
ATOM     24  C   UNL     1      -4.354  -4.668  -3.325  0.00  0.00    +0.120 A 
BRANCH  24  25
ATOM     25  O   UNL     1      -3.915  -3.805  -4.278  0.00  0.00    -0.506 OA
ATOM     26  H   UNL     1      -3.528  -4.237  -5.052  0.00  0.00    +0.292 HD
ENDBRANCH  24  25
ENDBRANCH   7  19
TORSDOF 4
