REMARK  Name = ZINC16255435
REMARK  8 active torsions:
REMARK  status: ('A' for Active; 'I' for Inactive)
REMARK    1  A    between atoms: C_1  and  C_2
REMARK    2  A    between atoms: C_4  and  N_11
REMARK    3  A    between atoms: C_5  and  O_9
REMARK    4  A    between atoms: O_9  and  C_10
REMARK    5  A    between atoms: C_12  and  C_14
REMARK    6  A    between atoms: C_14  and  N_15
REMARK    7  A    between atoms: C_18  and  C_22
REMARK    8  A    between atoms: C_18  and  C_23
REMARK                            x       y       z     vdW  Elec       q    Type
REMARK                         _______ _______ _______ _____ _____    ______ ____
ROOT
ATOM      1  N   UNL     1       3.187   5.775   1.800  0.00  0.00    -0.215 N 
ATOM      2  C   UNL     1       2.296   5.892   0.796  0.00  0.00    +0.251 C 
ATOM      3  O   UNL     1       1.549   6.823   0.585  0.00  0.00    -0.272 OA
ATOM      4  C   UNL     1       2.423   4.618  -0.015  0.00  0.00    +0.135 C 
ATOM      5  N   UNL     1       3.469   3.860   0.693  0.00  0.00    -0.281 N 
ATOM      6  C   UNL     1       3.853   4.616   1.737  0.00  0.00    +0.310 C 
ATOM      7  O   UNL     1       4.708   4.283   2.534  0.00  0.00    -0.252 OA
ATOM      8  C   UNL     1       2.860   4.929  -1.448  0.00  0.00    +0.047 C 
ATOM      9  H   UNL     1       3.814   2.986   0.452  0.00  0.00    +0.152 HD
ENDROOT
BRANCH   4  10
ATOM     10  C   UNL     1       1.123   3.856  -0.013  0.00  0.00    -0.014 A 
ATOM     11  C   UNL     1      -0.079   4.540  -0.000  0.00  0.00    +0.008 A 
ATOM     12  C   UNL     1      -1.272   3.843   0.002  0.00  0.00    +0.022 A 
ATOM     13  C   UNL     1      -1.265   2.459  -0.014  0.00  0.00    +0.059 A 
ATOM     14  C   UNL     1      -0.062   1.774  -0.021  0.00  0.00    +0.060 A 
ATOM     15  C   UNL     1       1.132   2.474  -0.023  0.00  0.00    +0.027 A 
ATOM     16 CL   UNL     1      -0.051   0.038  -0.034  0.00  0.00    -0.082 Cl
ATOM     17 CL   UNL     1      -2.763   1.583  -0.019  0.00  0.00    -0.082 Cl
ENDBRANCH   4  10
BRANCH   1  18
ATOM     18  C   UNL     1       3.402   6.791   2.833  0.00  0.00    +0.214 C 
BRANCH  18  20
ATOM     19  N   UNL     1       4.834   8.780   3.171  0.00  0.00    -0.281 N 
ATOM     20  C   UNL     1       4.468   7.754   2.377  0.00  0.00    +0.235 C 
ATOM     21  O   UNL     1       4.997   7.605   1.296  0.00  0.00    -0.274 OA
ATOM     22  H   UNL     1       4.367   8.937   4.006  0.00  0.00    +0.155 HD
BRANCH  19  26
ATOM     23  C   UNL     1       7.350  11.068  -0.381  0.00  0.00    +0.045 C 
ATOM     24  C   UNL     1       7.133  10.745   1.075  0.00  0.00    -0.030 A 
ATOM     25  C   UNL     1       6.091   9.917   1.450  0.00  0.00    +0.031 A 
ATOM     26  C   UNL     1       5.890   9.619   2.789  0.00  0.00    +0.076 A 
ATOM     27  C   UNL     1       6.735  10.161   3.755  0.00  0.00    +0.143 A 
ATOM     28  C   UNL     1       7.779  10.987   3.372  0.00  0.00    +0.067 A 
ATOM     29  C   UNL     1       7.975  11.279   2.033  0.00  0.00    +0.047 A 
ATOM     30 CL   UNL     1       9.280  12.320   1.556  0.00  0.00    -0.083 Cl
BRANCH  27  31
ATOM     31  O   UNL     1       6.538   9.877   5.070  0.00  0.00    -0.493 OA
ATOM     32  C   UNL     1       7.444  10.468   6.004  0.00  0.00    +0.277 C 
ENDBRANCH  27  31
ENDBRANCH  19  26
ENDBRANCH  18  20
ENDBRANCH   1  18
TORSDOF 5
