REMARK  Name = ZINC20192605
REMARK  12 active torsions:
REMARK  status: ('A' for Active; 'I' for Inactive)
REMARK    1  A    between atoms: C_1  and  C_2
REMARK    2  A    between atoms: C_2  and  C_3
REMARK    3  A    between atoms: C_6  and  N_9
REMARK    4  A    between atoms: C_10  and  C_12
REMARK    5  A    between atoms: C_16  and  N_17
REMARK    6  A    between atoms: C_18  and  C_20
REMARK    7  A    between atoms: N_23  and  C_25
REMARK    8  A    between atoms: C_25  and  C_26
REMARK    9  A    between atoms: C_28  and  C_32
REMARK   10  A    between atoms: C_32  and  C_33
REMARK   11  A    between atoms: C_32  and  C_34
REMARK   12  A    between atoms: C_32  and  C_35
REMARK                            x       y       z     vdW  Elec       q    Type
REMARK                         _______ _______ _______ _____ _____    ______ ____
ROOT
ATOM      1  C   UNL     1       1.517  -0.261  -0.026  0.00  0.00    +0.069 A 
ATOM      2  C   UNL     1       2.433   0.854   0.145  0.00  0.00    -0.023 A 
ATOM      3  C   UNL     1       1.862   2.077   0.121  0.00  0.00    -0.004 A 
ATOM      4  S   UNL     1       0.136   1.766  -0.124  0.00  0.00    -0.077 S 
ATOM      5  C   UNL     1       0.171   0.035  -0.194  0.00  0.00    +0.085 A 
ATOM      6  C   UNL     1       2.550   3.399   0.271  0.00  0.00    +0.046 C 
ATOM      7  C   UNL     1       3.958   3.150   0.831  0.00  0.00    -0.000 C 
ATOM      8  C   UNL     1       4.618   2.026   0.027  0.00  0.00    +0.009 C 
ATOM      9  C   UNL     1       3.936   0.693   0.339  0.00  0.00    +0.037 C 
ENDROOT
BRANCH   1  11
ATOM     10  N   UNL     1       2.060  -2.333   1.138  0.00  0.00    -0.281 N 
ATOM     11  C   UNL     1       1.996  -1.647  -0.021  0.00  0.00    +0.251 C 
ATOM     12  O   UNL     1       2.335  -2.177  -1.062  0.00  0.00    -0.270 OA
ATOM     13  H   UNL     1       1.837  -1.828   2.089  0.00  0.00    +0.155 HD
BRANCH  10  17
ATOM     14  C   UNL     1       3.105  -6.365   1.114  0.00  0.00    -0.048 A 
ATOM     15  C   UNL     1       2.387  -5.832   0.059  0.00  0.00    +0.005 A 
ATOM     16  C   UNL     1       2.039  -4.496   0.064  0.00  0.00    +0.023 A 
ATOM     17  C   UNL     1       2.411  -3.687   1.130  0.00  0.00    +0.034 A 
ATOM     18  C   UNL     1       3.137  -4.223   2.185  0.00  0.00    +0.023 A 
ATOM     19  C   UNL     1       3.477  -5.562   2.177  0.00  0.00    +0.005 A 
BRANCH  14  21
ATOM     20  C   UNL     1       4.843  -7.994   0.426  0.00  0.00    +0.009 C 
ATOM     21  C   UNL     1       3.483  -7.824   1.105  0.00  0.00    +0.032 C 
ENDBRANCH  14  21
ENDBRANCH  10  17
ENDBRANCH   1  11
BRANCH   5  22
ATOM     22  N   UNL     1      -0.887  -0.841  -0.373  0.00  0.00    -0.274 N 
ATOM     23  C   UNL     1      -2.139  -0.364  -0.520  0.00  0.00    +0.269 C 
ATOM     24  O   UNL     1      -2.340   0.835  -0.496  0.00  0.00    -0.268 OA
ATOM     25  H   UNL     1      -0.706  -1.926  -0.396  0.00  0.00    +0.156 HD
BRANCH  23  26
ATOM     26  C   UNL     1      -3.267  -1.298  -0.712  0.00  0.00    +0.147 A 
ATOM     27  C   UNL     1      -4.629  -0.950  -0.879  0.00  0.00    +0.054 A 
ATOM     28  C   UNL     1      -5.287  -2.124  -1.018  0.00  0.00    +0.109 A 
ATOM     29  N   UNL     1      -4.368  -3.111  -0.938  0.00  0.00    -0.271 N 
ATOM     30  N   UNL     1      -3.196  -2.613  -0.765  0.00  0.00    -0.167 NA
BRANCH  29  31
ATOM     31  C   UNL     1      -4.664  -4.542  -1.039  0.00  0.00    +0.140 C 
ATOM     32  C   UNL     1      -3.808  -5.163  -2.144  0.00  0.00    +0.029 C 
ENDBRANCH  29  31
ENDBRANCH  23  26
ENDBRANCH   5  22
BRANCH   7  33
ATOM     33  C   UNL     1       4.792   4.427   0.708  0.00  0.00    -0.035 C 
ATOM     34  C   UNL     1       4.880   4.839  -0.762  0.00  0.00    +0.011 C 
ATOM     35  C   UNL     1       4.130   5.548   1.513  0.00  0.00    +0.011 C 
ATOM     36  C   UNL     1       6.199   4.171   1.252  0.00  0.00    +0.011 C 
ENDBRANCH   7  33
TORSDOF 7
