REMARK  Name = ZINC04545461
REMARK  4 active torsions:
REMARK  status: ('A' for Active; 'I' for Inactive)
REMARK    1  A    between atoms: C_1  and  C_2
REMARK    2  A    between atoms: C_2  and  C_3
REMARK    3  A    between atoms: C_12  and  O_22
REMARK    4  A    between atoms: C_14  and  C_17
REMARK                            x       y       z     vdW  Elec       q    Type
REMARK                         _______ _______ _______ _____ _____    ______ ____
ROOT
ATOM      1  C   UNL     1      -1.433  -0.534   0.013  0.00  0.00    -0.006 C 
ATOM      2  C   UNL     1      -1.418  -2.060  -0.115  0.00  0.00    +0.008 C 
ATOM      3  C   UNL     1      -2.839  -2.576  -0.353  0.00  0.00    +0.037 C 
ATOM      4  C   UNL     1      -3.752  -2.009   0.725  0.00  0.00    -0.023 A 
ATOM      5  C   UNL     1      -3.387  -0.929   1.453  0.00  0.00    -0.004 A 
ATOM      6  S   UNL     1      -4.744  -0.648   2.557  0.00  0.00    -0.078 S 
ATOM      7  C   UNL     1      -5.739  -1.889   2.089  0.00  0.00    +0.080 A 
ATOM      8  C   UNL     1      -5.055  -2.551   1.063  0.00  0.00    +0.068 A 
ATOM      9  C   UNL     1      -5.726  -3.717   0.433  0.00  0.00    +0.220 C 
ATOM     10  N   UNL     1      -6.781  -4.204   1.029  0.00  0.00    -0.222 NA
ATOM     11  C   UNL     1      -7.307  -3.723   2.300  0.00  0.00    +0.230 C 
ATOM     12  N   UNL     1      -6.979  -2.303   2.522  0.00  0.00    -0.313 N 
ATOM     13  C   UNL     1      -2.113  -0.150   1.336  0.00  0.00    +0.046 C 
ATOM     14  H   UNL     1      -7.601  -1.694   2.950  0.00  0.00    +0.149 HD
ENDROOT
BRANCH  11  15
ATOM     15  C   UNL     1      -6.718  -4.543   3.418  0.00  0.00    +0.032 A 
ATOM     16  C   UNL     1      -6.308  -5.835   3.405  0.00  0.00    +0.015 A 
ATOM     17  C   UNL     1      -5.792  -6.387   4.563  0.00  0.00    +0.008 A 
ATOM     18  C   UNL     1      -5.711  -5.620   5.677  0.00  0.00    +0.045 A 
ATOM     19  S   UNL     1      -6.370  -4.063   5.103  0.00  0.00    -0.098 S 
ENDBRANCH  11  15
BRANCH   1  21
ATOM     20  C   UNL     1      -0.019   1.526   0.010  0.00  0.00    +0.004 C 
ATOM     21  C   UNL     1       0.002  -0.004   0.002  0.00  0.00    +0.000 C 
ENDBRANCH   1  21
BRANCH   9  22
ATOM     22  O   UNL     1      -5.260  -4.257  -0.717  0.00  0.00    -0.492 OA
ATOM     23  H   UNL     1      -5.775  -5.011  -1.035  0.00  0.00    +0.294 HD
ENDBRANCH   9  22
TORSDOF 3
