REMARK  Name = ZINC02575628
REMARK  8 active torsions:
REMARK  status: ('A' for Active; 'I' for Inactive)
REMARK    1  A    between atoms: C_13  and  C_14
REMARK    2  A    between atoms: C_14  and  O_15
REMARK    3  A    between atoms: O_15  and  C_16
REMARK    4  A    between atoms: N_18  and  C_19
REMARK    5  A    between atoms: C_19  and  C_21
REMARK    6  A    between atoms: C_19  and  C_33
REMARK    7  A    between atoms: C_21  and  C_22
REMARK    8  A    between atoms: C_33  and  C_34
REMARK                            x       y       z     vdW  Elec       q    Type
REMARK                         _______ _______ _______ _____ _____    ______ ____
ROOT
ATOM      1  C   UNL     1      -2.532   6.236  -2.174  0.00  0.00    +0.401 C 
ATOM      2  O   UNL     1      -2.017   6.349  -3.268  0.00  0.00    -0.226 OA
ATOM      3  N   UNL     1      -3.828   6.562  -2.002  0.00  0.00    -0.277 N 
ATOM      4  H   UNL     1      -4.259   6.406  -1.147  0.00  0.00    +0.152 HD
ENDROOT
BRANCH   1   5
ATOM      5  O   UNL     1      -1.808   5.785  -1.132  0.00  0.00    -0.449 OA
BRANCH   5   6
ATOM      6  C   UNL     1      -0.418   5.453  -1.390  0.00  0.00    +0.246 C 
BRANCH   6  19
ATOM      7  C   UNL     1      -0.846   0.991   0.978  0.00  0.00    +0.001 A 
ATOM      8  C   UNL     1      -1.876   1.914   0.959  0.00  0.00    +0.000 A 
ATOM      9  C   UNL     1      -1.621   3.232   0.627  0.00  0.00    +0.005 A 
ATOM     10  C   UNL     1      -0.340   3.628   0.304  0.00  0.00    -0.029 A 
ATOM     11  C   UNL     1       0.703   2.706   0.315  0.00  0.00    -0.014 A 
ATOM     12  C   UNL     1       0.439   1.378   0.656  0.00  0.00    +0.009 A 
ATOM     13  C   UNL     1       1.966   3.384  -0.068  0.00  0.00    -0.014 A 
ATOM     14  C   UNL     1       3.267   2.897  -0.202  0.00  0.00    +0.009 A 
ATOM     15  C   UNL     1       4.286   3.748  -0.577  0.00  0.00    +0.001 A 
ATOM     16  C   UNL     1       4.024   5.083  -0.823  0.00  0.00    +0.000 A 
ATOM     17  C   UNL     1       2.736   5.573  -0.693  0.00  0.00    +0.005 A 
ATOM     18  C   UNL     1       1.712   4.730  -0.318  0.00  0.00    -0.029 A 
ATOM     19  C   UNL     1       0.237   4.963  -0.097  0.00  0.00    +0.088 C 
ENDBRANCH   6  19
ENDBRANCH   5   6
ENDBRANCH   1   5
BRANCH   3  20
ATOM     20  C   UNL     1      -4.587   7.153  -3.108  0.00  0.00    +0.091 C 
BRANCH  20  21
ATOM     21  C   UNL     1      -5.570   6.119  -3.661  0.00  0.00    +0.064 C 
BRANCH  21  22
ATOM     22  C   UNL     1      -4.804   4.974  -4.271  0.00  0.00    +0.031 A 
ATOM     23  C   UNL     1      -4.455   5.010  -5.610  0.00  0.00    +0.167 A 
ATOM     24  C   UNL     1      -3.745   3.960  -6.170  0.00  0.00    +0.197 A 
ATOM     25  C   UNL     1      -3.394   2.868  -5.393  0.00  0.00    +0.199 A 
ATOM     26  C   UNL     1      -3.749   2.830  -4.053  0.00  0.00    +0.197 A 
ATOM     27  C   UNL     1      -4.454   3.884  -3.494  0.00  0.00    +0.167 A 
ATOM     28  F   UNL     1      -4.800   3.847  -2.188  0.00  0.00    -0.202 F 
ATOM     29  F   UNL     1      -3.407   1.766  -3.294  0.00  0.00    -0.199 F 
ATOM     30  F   UNL     1      -2.706   1.842  -5.939  0.00  0.00    -0.199 F 
ATOM     31  F   UNL     1      -3.400   3.998  -7.476  0.00  0.00    -0.199 F 
ATOM     32  F   UNL     1      -4.801   6.072  -6.370  0.00  0.00    -0.202 F 
ENDBRANCH  21  22
ENDBRANCH  20  21
BRANCH  20  33
ATOM     33  C   UNL     1      -5.361   8.372  -2.601  0.00  0.00    +0.147 C 
BRANCH  33  34
ATOM     34  C   UNL     1      -4.389   9.445  -2.183  0.00  0.00    +0.358 C 
ATOM     35  O   UNL     1      -3.200   9.248  -2.263  0.00  0.00    -0.246 OA
ATOM     36  O   UNL     1      -4.845  10.620  -1.721  0.00  0.00    -0.246 OA
ENDBRANCH  33  34
ENDBRANCH  20  33
ENDBRANCH   3  20
TORSDOF 8
