REMARK  Name = ZINC39926842
REMARK  5 active torsions:
REMARK  status: ('A' for Active; 'I' for Inactive)
REMARK    1  A    between atoms: C_1  and  C_2
REMARK    2  A    between atoms: C_5  and  N_8
REMARK    3  A    between atoms: C_9  and  S_25
REMARK    4  A    between atoms: S_25  and  C_26
REMARK    5  A    between atoms: C_26  and  C_27
REMARK                            x       y       z     vdW  Elec       q    Type
REMARK                         _______ _______ _______ _____ _____    ______ ____
ROOT
ATOM      1  N   UNL     1       0.059  -4.170  -0.021  0.00  0.00    -0.246 N 
ATOM      2  C   UNL     1       0.180  -4.869   1.248  0.00  0.00    +0.210 C 
ATOM      3  N   UNL     1       0.594  -6.251   1.084  0.00  0.00    -0.277 NA
ATOM      4  C   UNL     1      -0.097  -6.987   0.038  0.00  0.00    +0.135 C 
ATOM      5  C   UNL     1       0.001  -6.280  -1.322  0.00  0.00    +0.130 C 
ATOM      6  C   UNL     1      -0.042  -4.803  -1.193  0.00  0.00    +0.231 C 
ATOM      7  O   UNL     1      -0.181  -4.138  -2.199  0.00  0.00    -0.274 OA
ATOM      8  C   UNL     1       1.228  -6.693  -2.091  0.00  0.00    -0.046 C 
ATOM      9  C   UNL     1       1.822  -7.826  -1.728  0.00  0.00    -0.013 C 
ATOM     10  S   UNL     1       0.876  -8.506  -0.347  0.00  0.00    -0.110 S 
ATOM     11  C   UNL     1       3.042  -8.445  -2.348  0.00  0.00    +0.042 C 
ATOM     12  C   UNL     1       3.304  -7.772  -3.702  0.00  0.00    +0.005 C 
ATOM     13  C   UNL     1       3.222  -6.254  -3.514  0.00  0.00    +0.005 C 
ATOM     14  C   UNL     1       1.773  -5.852  -3.242  0.00  0.00    +0.032 C 
ATOM     15  H   UNL     1       1.595  -6.318   0.972  0.00  0.00    +0.126 HD
ENDROOT
BRANCH   1  20
ATOM     16  C   UNL     1      -0.017   1.503   0.009  0.00  0.00    +0.044 C 
ATOM     17  C   UNL     1       0.003  -0.004   0.001  0.00  0.00    -0.050 A 
ATOM     18  C   UNL     1       1.045  -0.677  -0.610  0.00  0.00    +0.005 A 
ATOM     19  C   UNL     1       1.067  -2.058  -0.619  0.00  0.00    +0.024 A 
ATOM     20  C   UNL     1       0.040  -2.771  -0.013  0.00  0.00    +0.039 A 
ATOM     21  C   UNL     1      -1.005  -2.092   0.599  0.00  0.00    +0.024 A 
ATOM     22  C   UNL     1      -1.018  -0.711   0.609  0.00  0.00    +0.005 A 
ENDBRANCH   1  20
BRANCH   2  23
ATOM     23  S   UNL     1       1.403  -4.010   2.276  0.00  0.00    -0.115 S 
BRANCH  23  24
ATOM     24  C   UNL     1       2.928  -4.084   1.298  0.00  0.00    +0.146 C 
BRANCH  24  25
ATOM     25  C   UNL     1       4.040  -3.397   2.049  0.00  0.00    +0.118 A 
ATOM     26  N   UNL     1       4.845  -3.981   2.887  0.00  0.00    -0.232 NA
ATOM     27  C   UNL     1       5.725  -3.073   3.382  0.00  0.00    +0.089 A 
ATOM     28  C   UNL     1       6.781  -3.153   4.294  0.00  0.00    +0.030 A 
ATOM     29  C   UNL     1       7.504  -2.034   4.598  0.00  0.00    +0.002 A 
ATOM     30  C   UNL     1       7.201  -0.814   4.010  0.00  0.00    +0.002 A 
ATOM     31  C   UNL     1       6.163  -0.712   3.108  0.00  0.00    +0.028 A 
ATOM     32  C   UNL     1       5.418  -1.838   2.787  0.00  0.00    +0.066 A 
ATOM     33  N   UNL     1       4.351  -2.077   1.944  0.00  0.00    -0.341 N 
ATOM     34  H   UNL     1       3.905  -1.424   1.382  0.00  0.00    +0.167 HD
ENDBRANCH  24  25
ENDBRANCH  23  24
ENDBRANCH   2  23
TORSDOF 4
