REMARK  Name = ZINC40172094
REMARK  7 active torsions:
REMARK  status: ('A' for Active; 'I' for Inactive)
REMARK    1  A    between atoms: C_1  and  C_2
REMARK    2  A    between atoms: C_2  and  C_3
REMARK    3  A    between atoms: C_3  and  C_5
REMARK    4  A    between atoms: C_3  and  N_15
REMARK    5  A    between atoms: N_7  and  C_8
REMARK    6  A    between atoms: C_19  and  S_20
REMARK    7  A    between atoms: S_20  and  C_21
REMARK                            x       y       z     vdW  Elec       q    Type
REMARK                         _______ _______ _______ _____ _____    ______ ____
ROOT
ATOM      1  C   UNL     1       0.727  -0.518  -1.094  0.00  0.00    +0.178 C 
ENDROOT
BRANCH   1   2
ATOM      2  N   UNL     1       2.119  -0.136  -0.848  0.00  0.00    -0.279 N 
ATOM      3  C   UNL     1       2.871  -0.494   0.235  0.00  0.00    +0.216 A 
ATOM      4  N   UNL     1       4.060   0.039   0.098  0.00  0.00    -0.113 NA
ATOM      5  N   UNL     1       4.075   0.759  -1.104  0.00  0.00    -0.121 NA
ATOM      6  C   UNL     1       2.896   0.638  -1.664  0.00  0.00    +0.193 A 
ATOM      7  N   UNL     1       2.448  -1.285   1.296  0.00  0.00    -0.328 N 
ATOM      8  H   UNL     1       1.544  -1.636   1.310  0.00  0.00    +0.145 HD
ATOM      9  H   UNL     1       3.058  -1.486   2.024  0.00  0.00    +0.145 HD
BRANCH   6  10
ATOM     10  S   UNL     1       2.399   1.351  -3.197  0.00  0.00    -0.089 S 
ATOM     11  C   UNL     1       3.873   2.242  -3.764  0.00  0.00    +0.093 C 
ENDBRANCH   6  10
ENDBRANCH   1   2
BRANCH   1  12
ATOM     12  C   UNL     1       0.623  -2.021  -1.160  0.00  0.00    +0.240 C 
ATOM     13  O   UNL     1       1.614  -2.704  -1.015  0.00  0.00    -0.273 OA
ATOM     14  N   UNL     1      -0.572  -2.604  -1.380  0.00  0.00    -0.284 N 
ATOM     15  H   UNL     1      -1.376  -2.063  -1.419  0.00  0.00    +0.155 HD
BRANCH  14  16
ATOM     16  C   UNL     1      -0.652  -3.991  -1.551  0.00  0.00    +0.034 A 
ATOM     17  C   UNL     1      -1.773  -4.683  -1.109  0.00  0.00    +0.024 A 
ATOM     18  C   UNL     1      -1.849  -6.051  -1.280  0.00  0.00    +0.017 A 
ATOM     19  C   UNL     1      -0.812  -6.733  -1.890  0.00  0.00    +0.018 A 
ATOM     20  C   UNL     1       0.306  -6.046  -2.331  0.00  0.00    +0.017 A 
ATOM     21  C   UNL     1       0.385  -4.677  -2.168  0.00  0.00    +0.024 A 
ATOM     22 BR   UNL     1      -0.920  -8.607  -2.121  0.00  0.00    -0.050 Br
ENDBRANCH  14  16
ENDBRANCH   1  12
BRANCH   1  24
ATOM     23  C   UNL     1      -0.147   1.534   0.030  0.00  0.00    +0.006 C 
ATOM     24  C   UNL     1      -0.155   0.004   0.042  0.00  0.00    +0.031 C 
ENDBRANCH   1  24
TORSDOF 5
