REMARK  Name = ZINC38550161
REMARK  11 active torsions:
REMARK  status: ('A' for Active; 'I' for Inactive)
REMARK    1  A    between atoms: C_1  and  C_2
REMARK    2  A    between atoms: C_2  and  C_4
REMARK    3  A    between atoms: C_2  and  N_21
REMARK    4  A    between atoms: N_6  and  C_7
REMARK    5  A    between atoms: C_15  and  C_17
REMARK    6  A    between atoms: C_17  and  O_19
REMARK    7  A    between atoms: O_19  and  C_20
REMARK    8  A    between atoms: C_26  and  O_33
REMARK    9  A    between atoms: C_27  and  O_31
REMARK   10  A    between atoms: O_31  and  C_32
REMARK   11  A    between atoms: O_33  and  C_34
REMARK                            x       y       z     vdW  Elec       q    Type
REMARK                         _______ _______ _______ _____ _____    ______ ____
ROOT
ATOM      1  C   UNL     1      -0.197  -0.715   1.878  0.00  0.00    +0.203 C 
ATOM      2  O   UNL     1       0.718  -1.258   1.296  0.00  0.00    -0.277 OA
ATOM      3  N   UNL     1      -0.232  -0.714   3.225  0.00  0.00    -0.288 N 
ATOM      4  H   UNL     1      -0.988  -0.323   3.691  0.00  0.00    +0.155 HD
ENDROOT
BRANCH   3   5
ATOM      5  C   UNL     1       0.794  -1.263   3.934  0.00  0.00    +0.053 C 
ATOM      6  C   UNL     1       0.975  -1.227   5.306  0.00  0.00    +0.018 A 
ATOM      7  C   UNL     1       0.217  -0.654   6.355  0.00  0.00    +0.011 A 
ATOM      8  C   UNL     1       0.643  -0.776   7.636  0.00  0.00    +0.001 A 
ATOM      9  C   UNL     1       1.820  -1.458   7.955  0.00  0.00    +0.002 A 
ATOM     10  C   UNL     1       2.596  -2.031   7.003  0.00  0.00    +0.026 A 
ATOM     11  C   UNL     1       2.217  -1.946   5.638  0.00  0.00    +0.045 A 
ATOM     12  N   UNL     1       2.787  -2.410   4.544  0.00  0.00    -0.367 N 
ATOM     13  C   UNL     1       1.968  -2.043   3.385  0.00  0.00    +0.234 C 
ATOM     14  H   UNL     1       3.614  -2.916   4.512  0.00  0.00    +0.161 HD
BRANCH  13  15
ATOM     15  C   UNL     1       1.483  -3.281   2.676  0.00  0.00    +0.335 C 
ATOM     16  O   UNL     1       1.055  -4.214   3.313  0.00  0.00    -0.248 OA
BRANCH  15  17
ATOM     17  O   UNL     1       1.525  -3.347   1.336  0.00  0.00    -0.466 OA
ATOM     18  C   UNL     1       1.049  -4.550   0.730  0.00  0.00    +0.280 C 
ENDBRANCH  15  17
ENDBRANCH  13  15
ENDBRANCH   3   5
BRANCH   1  20
ATOM     19  C   UNL     1      -1.346   1.443   1.462  0.00  0.00    -0.004 C 
ATOM     20  C   UNL     1      -1.295  -0.042   1.095  0.00  0.00    +0.017 C 
BRANCH  20  21
ATOM     21  N   UNL     1      -1.027  -0.181  -0.343  0.00  0.00    +0.390 N 
ATOM     22  C   UNL     1       0.177   0.585  -0.696  0.00  0.00    -0.073 C 
ATOM     23  C   UNL     1       0.613   0.186  -2.106  0.00  0.00    +0.017 C 
ATOM     24  C   UNL     1      -0.560   0.281  -3.049  0.00  0.00    -0.044 A 
ATOM     25  C   UNL     1      -0.314   0.301  -4.413  0.00  0.00    +0.053 A 
ATOM     26  C   UNL     1      -1.364   0.385  -5.311  0.00  0.00    +0.162 A 
ATOM     27  C   UNL     1      -2.671   0.449  -4.839  0.00  0.00    +0.162 A 
ATOM     28  C   UNL     1      -2.911   0.430  -3.477  0.00  0.00    +0.051 A 
ATOM     29  C   UNL     1      -1.855   0.348  -2.580  0.00  0.00    -0.057 A 
ATOM     30  C   UNL     1      -2.165   0.340  -1.106  0.00  0.00    -0.042 C 
ATOM     31  H   UNL     1      -0.887  -1.155  -0.567  0.00  0.00    -0.080 HD
BRANCH  27  32
ATOM     32  O   UNL     1      -3.710   0.530  -5.713  0.00  0.00    -0.491 OA
ATOM     33  C   UNL     1      -5.024   0.593  -5.156  0.00  0.00    +0.277 C 
ENDBRANCH  27  32
BRANCH  26  34
ATOM     34  O   UNL     1      -1.118   0.405  -6.649  0.00  0.00    -0.491 OA
ATOM     35  C   UNL     1       0.249   0.337  -7.059  0.00  0.00    +0.277 C 
ENDBRANCH  26  34
ENDBRANCH  20  21
ENDBRANCH   1  20
TORSDOF 7
