REMARK  Name = ZINC23157105
REMARK  10 active torsions:
REMARK  status: ('A' for Active; 'I' for Inactive)
REMARK    1  A    between atoms: C_1  and  C_2
REMARK    2  A    between atoms: C_8  and  C_10
REMARK    3  A    between atoms: C_10  and  C_12
REMARK    4  A    between atoms: C_10  and  N_22
REMARK    5  A    between atoms: C_15  and  O_20
REMARK    6  A    between atoms: C_16  and  O_18
REMARK    7  A    between atoms: O_18  and  C_19
REMARK    8  A    between atoms: O_20  and  C_21
REMARK    9  A    between atoms: C_24  and  C_31
REMARK   10  A    between atoms: C_27  and  C_30
REMARK                            x       y       z     vdW  Elec       q    Type
REMARK                         _______ _______ _______ _____ _____    ______ ____
ROOT
ATOM      1  C   UNL     1       0.065  -4.280  -0.021  0.00  0.00    +0.006 C 
ENDROOT
BRANCH   1   9
ATOM      2  C   UNL     1       0.251  -7.061   6.897  0.00  0.00    +0.090 C 
ATOM      3  C   UNL     1       0.372  -6.468   5.517  0.00  0.00    +0.150 A 
ATOM      4  N   UNL     1       1.492  -5.989   4.979  0.00  0.00    -0.205 NA
ATOM      5  C   UNL     1       1.240  -5.555   3.774  0.00  0.00    +0.199 A 
ATOM      6  N   UNL     1      -0.077  -5.743   3.487  0.00  0.00    -0.170 N 
ATOM      7  N   UNL     1      -0.605  -6.344   4.659  0.00  0.00    -0.147 NA
ATOM      8  C   UNL     1      -0.514  -5.339   2.248  0.00  0.00    +0.282 A 
ATOM      9  C   UNL     1       0.333  -4.786   1.373  0.00  0.00    +0.050 A 
ATOM     10  S   UNL     1       1.867  -4.811   2.288  0.00  0.00    -0.050 S 
ATOM     11  O   UNL     1      -1.821  -5.504   1.909  0.00  0.00    -0.265 OA
ENDBRANCH   1   9
BRANCH   1  12
ATOM     12  N   UNL     1       1.125  -4.748  -0.924  0.00  0.00    +0.388 N 
ATOM     13  C   UNL     1       0.951  -4.192  -2.272  0.00  0.00    -0.074 C 
ATOM     14  C   UNL     1       2.148  -4.580  -3.144  0.00  0.00    -0.031 C 
ATOM     15  C   UNL     1       2.250  -6.107  -3.210  0.00  0.00    +0.003 C 
ATOM     16  C   UNL     1       2.382  -6.664  -1.790  0.00  0.00    -0.031 C 
ATOM     17  C   UNL     1       1.178  -6.215  -0.958  0.00  0.00    -0.074 C 
ATOM     18  C   UNL     1       3.669  -6.138  -1.152  0.00  0.00    +0.005 C 
ATOM     19  C   UNL     1       1.956  -4.020  -4.554  0.00  0.00    +0.005 C 
ATOM     20  H   UNL     1       2.088  -4.386  -0.534  0.00  0.00    -0.080 HD
ENDBRANCH   1  12
BRANCH   1  21
ATOM     21  C   UNL     1       0.041  -2.773  -0.013  0.00  0.00    -0.052 A 
ATOM     22  C   UNL     1       1.227  -2.064  -0.020  0.00  0.00    +0.006 A 
ATOM     23  C   UNL     1       1.210  -0.682  -0.019  0.00  0.00    +0.049 A 
ATOM     24  C   UNL     1       0.002  -0.004   0.002  0.00  0.00    +0.161 A 
ATOM     25  C   UNL     1      -1.192  -0.718   0.010  0.00  0.00    +0.162 A 
ATOM     26  C   UNL     1      -1.168  -2.103   0.002  0.00  0.00    +0.051 A 
BRANCH  25  27
ATOM     27  O   UNL     1      -2.381  -0.057   0.025  0.00  0.00    -0.491 OA
ATOM     28  C   UNL     1      -3.567  -0.854   0.032  0.00  0.00    +0.277 C 
ENDBRANCH  25  27
BRANCH  24  29
ATOM     29  O   UNL     1      -0.016   1.356   0.009  0.00  0.00    -0.491 OA
ATOM     30  C   UNL     1       1.248   2.022   0.001  0.00  0.00    +0.277 C 
ENDBRANCH  24  29
ENDBRANCH   1  21
TORSDOF 5
