REMARK  Name = ZINC00622907
REMARK  11 active torsions:
REMARK  status: ('A' for Active; 'I' for Inactive)
REMARK    1  A    between atoms: C_1  and  C_2
REMARK    2  A    between atoms: C_2  and  C_3
REMARK    3  A    between atoms: C_3  and  C_4
REMARK    4  A    between atoms: C_11  and  N_34
REMARK    5  A    between atoms: C_12  and  C_32
REMARK    6  A    between atoms: C_13  and  C_15
REMARK    7  A    between atoms: C_18  and  O_30
REMARK    8  A    between atoms: C_19  and  C_21
REMARK    9  A    between atoms: C_21  and  O_22
REMARK   10  A    between atoms: O_22  and  C_23
REMARK   11  A    between atoms: O_30  and  C_31
REMARK                            x       y       z     vdW  Elec       q    Type
REMARK                         _______ _______ _______ _____ _____    ______ ____
ROOT
ATOM      1  C   UNL     1      -3.224   7.637   0.389  0.00  0.00    +0.071 A 
ATOM      2  C   UNL     1      -1.872   7.716   0.694  0.00  0.00    +0.049 A 
ATOM      3  C   UNL     1      -1.262   8.464  -0.274  0.00  0.00    +0.222 A 
ATOM      4  N   UNL     1      -2.205   8.835  -1.155  0.00  0.00    -0.246 N 
ATOM      5  H   UNL     1      -2.060   9.390  -1.974  0.00  0.00    +0.192 HD
ATOM      6  N   UNL     1      -3.431   8.307  -0.720  0.00  0.00    -0.176 NA
ATOM      7  O   UNL     1       0.068   8.732  -0.263  0.00  0.00    -0.423 OA
ATOM      8  C   UNL     1       0.747   8.476   0.873  0.00  0.00    +0.200 C 
ATOM      9  C   UNL     1       0.255   7.739   1.895  0.00  0.00    +0.098 C 
ATOM     10  C   UNL     1      -1.120   7.122   1.857  0.00  0.00    +0.101 C 
ENDROOT
BRANCH  10  11
ATOM     11  C   UNL     1      -1.003   5.630   1.677  0.00  0.00    -0.034 A 
ATOM     12  C   UNL     1      -0.367   5.117   0.561  0.00  0.00    +0.008 A 
ATOM     13  C   UNL     1      -0.253   3.751   0.396  0.00  0.00    +0.046 A 
ATOM     14  C   UNL     1      -0.787   2.892   1.346  0.00  0.00    +0.126 A 
ATOM     15  C   UNL     1      -1.425   3.409   2.465  0.00  0.00    +0.032 A 
ATOM     16  C   UNL     1      -1.531   4.776   2.627  0.00  0.00    +0.015 A 
BRANCH  14  17
ATOM     17  O   UNL     1      -0.682   1.547   1.184  0.00  0.00    -0.495 OA
ATOM     18  C   UNL     1      -0.013   1.086   0.008  0.00  0.00    +0.277 C 
ENDBRANCH  14  17
BRANCH  15  19
ATOM     19  C   UNL     1      -2.000   2.479   3.502  0.00  0.00    +0.268 C 
BRANCH  19  20
ATOM     20  O   UNL     1      -2.599   3.245   4.548  0.00  0.00    -0.486 OA
BRANCH  20  21
ATOM     21  C   UNL     1      -3.169   2.554   5.571  0.00  0.00    +0.139 A 
ATOM     22  C   UNL     1      -3.156   1.167   5.564  0.00  0.00    +0.047 A 
ATOM     23  C   UNL     1      -3.731   0.466   6.607  0.00  0.00    +0.004 A 
ATOM     24  C   UNL     1      -4.329   1.146   7.652  0.00  0.00    +0.002 A 
ATOM     25  C   UNL     1      -4.348   2.528   7.660  0.00  0.00    +0.023 A 
ATOM     26  C   UNL     1      -3.769   3.234   6.621  0.00  0.00    +0.083 A 
ATOM     27 CL   UNL     1      -3.794   4.970   6.630  0.00  0.00    -0.080 Cl
ENDBRANCH  20  21
ENDBRANCH  19  20
ENDBRANCH  15  19
ENDBRANCH  10  11
BRANCH   8  28
ATOM     28  N   UNL     1       2.012   8.993   1.000  0.00  0.00    -0.328 N 
ATOM     29  H   UNL     1       2.393   9.525   0.284  0.00  0.00    +0.145 HD
ATOM     30  H   UNL     1       2.526   8.826   1.806  0.00  0.00    +0.145 HD
ENDBRANCH   8  28
BRANCH   9  31
ATOM     31  C   UNL     1       1.069   7.539   3.056  0.00  0.00    +0.101 C 
ATOM     32  N   UNL     1       1.714   7.380   3.978  0.00  0.00    -0.191 NA
ENDBRANCH   9  31
BRANCH   1  33
ATOM     33  C   UNL     1      -4.272   6.910   1.191  0.00  0.00    +0.057 C 
BRANCH  33  35
ATOM     34  C   UNL     1      -5.933   7.121   3.045  0.00  0.00    +0.004 C 
ATOM     35  C   UNL     1      -4.870   7.860   2.230  0.00  0.00    +0.003 C 
ENDBRANCH  33  35
ENDBRANCH   1  33
TORSDOF 9
