REMARK  Name = ZINC12180435
REMARK  5 active torsions:
REMARK  status: ('A' for Active; 'I' for Inactive)
REMARK    1  A    between atoms: C_6  and  N_7
REMARK    2  A    between atoms: C_8  and  C_10
REMARK    3  A    between atoms: C_10  and  S_11
REMARK    4  A    between atoms: S_11  and  C_12
REMARK    5  A    between atoms: C_18  and  C_20
REMARK                            x       y       z     vdW  Elec       q    Type
REMARK                         _______ _______ _______ _____ _____    ______ ____
ROOT
ATOM      1  C   UNL     1      -2.637   4.576   0.052  0.00  0.00    +0.160 A 
ATOM      2  N   UNL     1      -3.826   3.990   0.065  0.00  0.00    -0.133 NA
ATOM      3  N   UNL     1      -4.897   4.655   0.080  0.00  0.00    -0.125 NA
ATOM      4  C   UNL     1      -4.901   5.978   0.085  0.00  0.00    +0.189 A 
ATOM      5  S   UNL     1      -3.139   6.295   0.072  0.00  0.00    -0.024 S 
ATOM      6  N   UNL     1      -5.971   6.870   0.101  0.00  0.00    -0.263 N 
ATOM      7  C   UNL     1      -7.236   6.405   0.115  0.00  0.00    +0.225 C 
ATOM      8  O   UNL     1      -7.442   5.210   0.113  0.00  0.00    -0.275 OA
ATOM      9  H   UNL     1      -5.805   7.826   0.103  0.00  0.00    +0.157 HD
ENDROOT
BRANCH   7  10
ATOM     10  C   UNL     1      -8.393   7.370   0.133  0.00  0.00    +0.048 C 
ATOM     11  C   UNL     1      -8.338   8.256  -1.114  0.00  0.00    +0.019 C 
ATOM     12  C   UNL     1      -9.513   9.236  -1.096  0.00  0.00    -0.009 C 
ATOM     13  C   UNL     1     -10.828   8.454  -1.083  0.00  0.00    +0.007 C 
ATOM     14  C   UNL     1     -10.883   7.569   0.163  0.00  0.00    -0.009 C 
ATOM     15  C   UNL     1      -9.708   6.589   0.145  0.00  0.00    +0.019 C 
ATOM     16  C   UNL     1     -10.798   8.444   1.415  0.00  0.00    +0.007 C 
ATOM     17  C   UNL     1      -9.483   9.226   1.402  0.00  0.00    -0.009 C 
ATOM     18  C   UNL     1      -9.428  10.111   0.156  0.00  0.00    +0.007 C 
ATOM     19  C   UNL     1      -8.308   8.246   1.384  0.00  0.00    +0.019 C 
ENDBRANCH   7  10
BRANCH   1  20
ATOM     20  S   UNL     1      -1.025   3.867   0.030  0.00  0.00    -0.088 S 
BRANCH  20  21
ATOM     21  C   UNL     1      -1.332   2.079   0.026  0.00  0.00    +0.172 C 
BRANCH  21  23
ATOM     22  N   UNL     1       0.002  -0.004   0.002  0.00  0.00    -0.285 N 
ATOM     23  C   UNL     1      -0.016   1.344   0.008  0.00  0.00    +0.227 C 
ATOM     24  O   UNL     1       1.026   1.964  -0.008  0.00  0.00    -0.275 OA
ATOM     25  H   UNL     1      -0.827  -0.501   0.082  0.00  0.00    +0.155 HD
BRANCH  22  31
ATOM     26  C   UNL     1       1.276  -1.886  -0.818  0.00  0.00    +0.027 A 
ATOM     27  C   UNL     1       2.477  -2.559  -0.941  0.00  0.00    +0.051 A 
ATOM     28  C   UNL     1       3.624  -2.045  -0.361  0.00  0.00    +0.166 A 
ATOM     29  C   UNL     1       3.570  -0.845   0.345  0.00  0.00    +0.168 A 
ATOM     30  C   UNL     1       2.367  -0.169   0.465  0.00  0.00    +0.072 A 
ATOM     31  C   UNL     1       1.219  -0.688  -0.119  0.00  0.00    +0.037 A 
ATOM     32  O   UNL     1       4.819  -0.557   0.814  0.00  0.00    -0.453 OA
ATOM     33  C   UNL     1       5.553  -1.794   0.738  0.00  0.00    +0.466 C 
ATOM     34  O   UNL     1       4.909  -2.508  -0.334  0.00  0.00    -0.453 OA
ENDBRANCH  22  31
ENDBRANCH  21  23
ENDBRANCH  20  21
ENDBRANCH   1  20
TORSDOF 5
