REMARK  Name = ZINC02394066
REMARK  8 active torsions:
REMARK  status: ('A' for Active; 'I' for Inactive)
REMARK    1  A    between atoms: C_1  and  C_2
REMARK    2  A    between atoms: C_2  and  C_3
REMARK    3  A    between atoms: C_2  and  O_4
REMARK    4  A    between atoms: O_4  and  C_5
REMARK    5  A    between atoms: C_8  and  C_11
REMARK    6  A    between atoms: C_21  and  C_23
REMARK    7  A    between atoms: C_21  and  C_24
REMARK    8  A    between atoms: C_25  and  O_27
REMARK                            x       y       z     vdW  Elec       q    Type
REMARK                         _______ _______ _______ _____ _____    ______ ____
ROOT
ATOM      1  C   UNL     1      -2.307  -0.985   5.900  0.00  0.00    +0.224 C 
ATOM      2  N   UNL     1      -1.654  -1.971   6.779  0.00  0.00    -0.313 N 
ATOM      3  C   UNL     1      -1.941  -3.294   6.531  0.00  0.00    +0.080 A 
ATOM      4  C   UNL     1      -3.126  -3.689   5.898  0.00  0.00    +0.068 A 
ATOM      5  C   UNL     1      -3.281  -5.114   5.694  0.00  0.00    -0.018 A 
ATOM      6  C   UNL     1      -2.253  -5.866   6.156  0.00  0.00    +0.021 A 
ATOM      7  S   UNL     1      -1.113  -4.698   6.841  0.00  0.00    -0.075 S 
ATOM      8  C   UNL     1      -2.151  -7.356   6.082  0.00  0.00    +0.203 C 
ATOM      9  O   UNL     1      -3.447  -7.870   5.738  0.00  0.00    -0.368 OA
ATOM     10  C   UNL     1      -4.053  -7.205   4.626  0.00  0.00    +0.068 C 
ATOM     11  C   UNL     1      -4.473  -5.786   5.024  0.00  0.00    +0.071 C 
ATOM     12  C   UNL     1      -3.050  -7.133   3.472  0.00  0.00    +0.041 C 
ATOM     13  C   UNL     1      -5.285  -7.991   4.175  0.00  0.00    +0.041 C 
ATOM     14  C   UNL     1      -4.085  -2.620   5.516  0.00  0.00    +0.220 C 
ATOM     15  N   UNL     1      -3.667  -1.386   5.561  0.00  0.00    -0.223 NA
ATOM     16  H   UNL     1      -1.055  -1.702   7.494  0.00  0.00    +0.149 HD
ENDROOT
BRANCH   1  20
ATOM     17  C   UNL     1      -0.031  -0.600   2.303  0.00  0.00    +0.121 A 
ATOM     18  C   UNL     1      -1.400  -0.376   2.286  0.00  0.00    +0.046 A 
ATOM     19  C   UNL     1      -2.133  -0.502   3.450  0.00  0.00    +0.011 A 
ATOM     20  C   UNL     1      -1.504  -0.849   4.631  0.00  0.00    -0.005 A 
ATOM     21  C   UNL     1      -0.140  -1.072   4.651  0.00  0.00    +0.011 A 
ATOM     22  C   UNL     1       0.598  -0.954   3.489  0.00  0.00    +0.046 A 
BRANCH  17  23
ATOM     23  O   UNL     1       0.693  -0.477   1.160  0.00  0.00    -0.489 OA
BRANCH  23  25
ATOM     24  C   UNL     1      -0.292   1.273  -0.184  0.00  0.00    +0.051 C 
ATOM     25  C   UNL     1      -0.034  -0.229  -0.045  0.00  0.00    +0.167 C 
ATOM     26  C   UNL     1       0.781  -0.720  -1.243  0.00  0.00    +0.051 C 
ENDBRANCH  23  25
ENDBRANCH  17  23
ENDBRANCH   1  20
BRANCH  14  27
ATOM     27  O   UNL     1      -5.349  -2.917   5.133  0.00  0.00    -0.492 OA
ATOM     28  H   UNL     1      -5.884  -2.144   4.907  0.00  0.00    +0.294 HD
ENDBRANCH  14  27
TORSDOF 4
