REMARK  Name = ZINC31045111
REMARK  7 active torsions:
REMARK  status: ('A' for Active; 'I' for Inactive)
REMARK    1  A    between atoms: C_6  and  C_7
REMARK    2  A    between atoms: C_9  and  C_12
REMARK    3  A    between atoms: C_12  and  N_13
REMARK    4  A    between atoms: C_17  and  C_20
REMARK    5  A    between atoms: N_22  and  C_23
REMARK    6  A    between atoms: C_23  and  C_24
REMARK    7  A    between atoms: C_24  and  C_25
REMARK                            x       y       z     vdW  Elec       q    Type
REMARK                         _______ _______ _______ _____ _____    ______ ____
ROOT
ATOM      1  N   UNL     1      -1.601  -1.204  -1.374  0.00  0.00    +0.386 N 
ATOM      2  C   UNL     1      -0.437  -1.543  -2.202  0.00  0.00    -0.078 C 
ATOM      3  C   UNL     1      -0.873  -1.695  -3.661  0.00  0.00    -0.018 C 
ATOM      4  C   UNL     1      -1.931  -2.797  -3.760  0.00  0.00    +0.009 C 
ATOM      5  C   UNL     1      -3.112  -2.443  -2.852  0.00  0.00    +0.058 C 
ATOM      6  C   UNL     1      -2.611  -2.270  -1.416  0.00  0.00    -0.065 C 
ATOM      7  H   UNL     1      -2.056  -0.294  -1.792  0.00  0.00    -0.081 HD
ENDROOT
BRANCH   5   8
ATOM      8  C   UNL     1      -4.133  -3.550  -2.898  0.00  0.00    +0.214 C 
ATOM      9  O   UNL     1      -4.431  -4.143  -1.883  0.00  0.00    -0.276 OA
ATOM     10  N   UNL     1      -4.715  -3.881  -4.068  0.00  0.00    -0.315 N 
ATOM     11  H   UNL     1      -4.445  -3.344  -4.989  0.00  0.00    +0.149 HD
BRANCH  10  12
ATOM     12  C   UNL     1      -5.708  -4.958  -4.113  0.00  0.00    +0.108 C 
BRANCH  12  13
ATOM     13  C   UNL     1      -6.209  -5.130  -5.548  0.00  0.00    +0.049 C 
BRANCH  13  14
ATOM     14  C   UNL     1      -7.230  -6.237  -5.595  0.00  0.00    -0.072 C 
ATOM     15  C   UNL     1      -8.480  -5.914  -5.508  0.00  0.00    -0.028 C 
ATOM     16  C   UNL     1      -9.608  -6.903  -5.534  0.00  0.00    +0.027 C 
ATOM     17  C   UNL     1      -9.121  -8.246  -6.081  0.00  0.00    +0.004 C 
ATOM     18  C   UNL     1      -7.835  -8.634  -5.340  0.00  0.00    +0.005 C 
ATOM     19  C   UNL     1      -6.734  -7.647  -5.733  0.00  0.00    +0.030 C 
ENDBRANCH  13  14
ENDBRANCH  12  13
ENDBRANCH  10  12
ENDBRANCH   5   8
BRANCH   1  20
ATOM     20  C   UNL     1      -1.198  -0.915   0.009  0.00  0.00    +0.022 C 
BRANCH  20  23
ATOM     21  C   UNL     1       1.282   1.686  -0.001  0.00  0.00    +0.202 A 
ATOM     22  N   UNL     1      -0.016   1.306   0.009  0.00  0.00    -0.193 NA
ATOM     23  C   UNL     1       0.002  -0.004   0.002  0.00  0.00    +0.211 A 
ATOM     24  O   UNL     1       1.285  -0.380  -0.012  0.00  0.00    -0.340 OA
ATOM     25  N   UNL     1       2.004   0.596  -0.014  0.00  0.00    -0.056 NA
BRANCH  21  31
ATOM     26  C   UNL     1       0.898   4.150   0.008  0.00  0.00    +0.013 A 
ATOM     27  C   UNL     1       1.376   5.445   0.016  0.00  0.00    +0.021 A 
ATOM     28  C   UNL     1       2.740   5.681   0.004  0.00  0.00    +0.041 A 
ATOM     29  C   UNL     1       3.631   4.622  -0.010  0.00  0.00    +0.021 A 
ATOM     30  C   UNL     1       3.163   3.324  -0.011  0.00  0.00    +0.013 A 
ATOM     31  C   UNL     1       1.791   3.080   0.001  0.00  0.00    +0.023 A 
ATOM     32 CL   UNL     1       3.336   7.312   0.006  0.00  0.00    -0.084 Cl
ENDBRANCH  21  31
ENDBRANCH  20  23
ENDBRANCH   1  20
TORSDOF 7
