REMARK  Name = ZINC01456946
REMARK  11 active torsions:
REMARK  status: ('A' for Active; 'I' for Inactive)
REMARK    1  A    between atoms: C_1  and  C_2
REMARK    2  A    between atoms: C_3  and  C_30
REMARK    3  A    between atoms: C_4  and  C_23
REMARK    4  A    between atoms: C_10  and  C_15
REMARK    5  A    between atoms: C_20  and  O_21
REMARK    6  A    between atoms: O_21  and  C_22
REMARK    7  A    between atoms: C_26  and  O_29
REMARK    8  A    between atoms: C_30  and  O_32
REMARK    9  A    between atoms: O_32  and  C_33
REMARK   10  A    between atoms: C_33  and  C_34
REMARK   11  A    between atoms: C_33  and  C_35
REMARK                            x       y       z     vdW  Elec       q    Type
REMARK                         _______ _______ _______ _____ _____    ______ ____
ROOT
ATOM      1  C   UNL     1       2.361  -0.231   0.212  0.00  0.00    +0.061 C 
ATOM      2  C   UNL     1       2.365   1.271   0.094  0.00  0.00    +0.016 C 
ATOM      3  C   UNL     1       1.230   1.919  -0.221  0.00  0.00    +0.065 C 
ATOM      4  C   UNL     1       1.193   3.415  -0.334  0.00  0.00    +0.092 C 
ATOM      5  C   UNL     1       2.583   3.980  -0.492  0.00  0.00    +0.024 C 
ATOM      6  C   UNL     1       3.667   3.244  -0.165  0.00  0.00    +0.016 C 
ATOM      7  N   UNL     1       3.524   1.966   0.303  0.00  0.00    -0.321 N 
ATOM      8  C   UNL     1       5.059   3.807  -0.308  0.00  0.00    +0.060 C 
ATOM      9  C   UNL     1       5.093   4.806  -1.467  0.00  0.00    +0.035 C 
ATOM     10  C   UNL     1       4.071   5.912  -1.185  0.00  0.00    +0.088 C 
ATOM     11  C   UNL     1       2.716   5.288  -0.988  0.00  0.00    +0.162 C 
ATOM     12  O   UNL     1       1.720   5.926  -1.264  0.00  0.00    -0.292 OA
ATOM     13  H   UNL     1       4.354   1.498   0.851  0.00  0.00    +0.152 HD
ENDROOT
BRANCH   9  14
ATOM     14  C   UNL     1       6.471   5.406  -1.578  0.00  0.00    -0.002 A 
ATOM     15  C   UNL     1       7.011   6.099  -0.511  0.00  0.00    +0.007 A 
ATOM     16  C   UNL     1       8.277   6.646  -0.611  0.00  0.00    +0.001 A 
ATOM     17  C   UNL     1       9.002   6.510  -1.781  0.00  0.00    +0.004 A 
ATOM     18  C   UNL     1       8.464   5.823  -2.852  0.00  0.00    +0.046 A 
ATOM     19  C   UNL     1       7.196   5.269  -2.752  0.00  0.00    +0.124 A 
BRANCH  19  20
ATOM     20  O   UNL     1       6.665   4.592  -3.804  0.00  0.00    -0.495 OA
ATOM     21  C   UNL     1       7.468   4.489  -4.982  0.00  0.00    +0.277 C 
ENDBRANCH  19  20
ENDBRANCH   9  14
BRANCH   4  22
ATOM     22  C   UNL     1       0.563   3.990   0.908  0.00  0.00    -0.035 A 
ATOM     23  C   UNL     1       1.135   3.752   2.145  0.00  0.00    +0.008 A 
ATOM     24  C   UNL     1       0.562   4.283   3.284  0.00  0.00    +0.046 A 
ATOM     25  C   UNL     1      -0.594   5.045   3.189  0.00  0.00    +0.117 A 
ATOM     26  C   UNL     1      -1.168   5.277   1.947  0.00  0.00    +0.046 A 
ATOM     27  C   UNL     1      -0.588   4.749   0.810  0.00  0.00    +0.008 A 
BRANCH  25  28
ATOM     28  O   UNL     1      -1.162   5.563   4.309  0.00  0.00    -0.507 OA
ATOM     29  H   UNL     1      -2.078   6.167   4.232  0.00  0.00    +0.292 HD
ENDBRANCH  25  28
ENDBRANCH   4  22
BRANCH   3  30
ATOM     30  C   UNL     1       0.047   1.177  -0.444  0.00  0.00    +0.338 C 
ATOM     31  O   UNL     1       0.087  -0.039  -0.471  0.00  0.00    -0.245 OA
BRANCH  30  32
ATOM     32  O   UNL     1      -1.126   1.817  -0.632  0.00  0.00    -0.459 OA
BRANCH  32  33
ATOM     33  C   UNL     1      -2.280   1.005  -0.859  0.00  0.00    +0.171 C 
ATOM     34  C   UNL     1      -3.521   1.723  -0.324  0.00  0.00    +0.052 C 
ATOM     35  C   UNL     1      -2.442   0.756  -2.359  0.00  0.00    +0.052 C 
ENDBRANCH  32  33
ENDBRANCH  30  32
ENDBRANCH   3  30
TORSDOF 7
