REMARK  Name = ZINC58847999
REMARK  6 active torsions:
REMARK  status: ('A' for Active; 'I' for Inactive)
REMARK    1  A    between atoms: C_1  and  C_2
REMARK    2  A    between atoms: C_6  and  C_8
REMARK    3  A    between atoms: C_19  and  S_24
REMARK    4  A    between atoms: S_24  and  N_27
REMARK    5  A    between atoms: N_27  and  C_28
REMARK    6  A    between atoms: C_33  and  C_34
REMARK                            x       y       z     vdW  Elec       q    Type
REMARK                         _______ _______ _______ _____ _____    ______ ____
ROOT
ATOM      1  C   UNL     1      -0.026  -3.132   2.031  0.00  0.00    +0.105 C 
ATOM      2  C   UNL     1       1.397  -3.487   2.346  0.00  0.00    +0.029 C 
ATOM      3  C   UNL     1       2.143  -4.055   1.121  0.00  0.00    +0.033 C 
ATOM      4  C   UNL     1       3.198  -4.956   1.727  0.00  0.00    -0.030 C 
ATOM      5  C   UNL     1       2.907  -5.247   2.968  0.00  0.00    -0.023 C 
ATOM      6  C   UNL     1       1.598  -4.608   3.362  0.00  0.00    +0.049 C 
ATOM      7  C   UNL     1       0.529  -5.662   3.299  0.00  0.00    -0.018 A 
ATOM      8  C   UNL     1       0.756  -6.869   3.945  0.00  0.00    +0.034 A 
ATOM      9  C   UNL     1      -0.191  -7.872   3.907  0.00  0.00    +0.109 A 
ATOM     10  C   UNL     1      -1.377  -7.681   3.221  0.00  0.00    +0.030 A 
ATOM     11  C   UNL     1      -1.613  -6.483   2.579  0.00  0.00    +0.025 A 
ATOM     12  C   UNL     1      -0.661  -5.468   2.622  0.00  0.00    +0.031 A 
ATOM     13  N   UNL     1      -0.936  -4.258   2.014  0.00  0.00    -0.336 N 
ATOM     14  H   UNL     1      -1.772  -4.173   1.528  0.00  0.00    +0.147 HD
ENDROOT
BRANCH   1  20
ATOM     15  C   UNL     1      -0.151   1.026  -0.752  0.00  0.00    +0.044 C 
ATOM     16  C   UNL     1      -0.124  -0.478  -0.652  0.00  0.00    -0.050 A 
ATOM     17  C   UNL     1      -0.135  -1.247  -1.801  0.00  0.00    +0.003 A 
ATOM     18  C   UNL     1      -0.110  -2.626  -1.709  0.00  0.00    +0.001 A 
ATOM     19  C   UNL     1      -0.075  -3.236  -0.469  0.00  0.00    +0.005 A 
ATOM     20  C   UNL     1      -0.064  -2.467   0.679  0.00  0.00    -0.027 A 
ATOM     21  C   UNL     1      -0.084  -1.088   0.588  0.00  0.00    +0.008 A 
ENDBRANCH   1  20
BRANCH   9  22
ATOM     22  S   UNL     1       0.111  -9.399   4.733  0.00  0.00    +0.072 S 
ATOM     23  O   UNL     1      -0.697 -10.375   4.090  0.00  0.00    -0.150 OA
ATOM     24  O   UNL     1       1.522  -9.529   4.842  0.00  0.00    -0.150 OA
BRANCH  22  25
ATOM     25  N   UNL     1      -0.471  -9.245   6.275  0.00  0.00    -0.216 N 
ATOM     26  H   UNL     1       0.129  -9.338   7.032  0.00  0.00    +0.174 HD
BRANCH  25  27
ATOM     27  C   UNL     1      -1.826  -8.979   6.488  0.00  0.00    +0.051 A 
ATOM     28  C   UNL     1      -2.784  -9.532   5.646  0.00  0.00    +0.026 A 
ATOM     29  C   UNL     1      -4.122  -9.269   5.859  0.00  0.00    +0.022 A 
ATOM     30  C   UNL     1      -4.511  -8.455   6.909  0.00  0.00    +0.041 A 
ATOM     31  C   UNL     1      -3.560  -7.904   7.748  0.00  0.00    +0.025 A 
ATOM     32  C   UNL     1      -2.220  -8.168   7.544  0.00  0.00    -0.027 A 
ATOM     33  C   UNL     1      -1.184  -7.571   8.462  0.00  0.00    +0.046 C 
ATOM     34 CL   UNL     1      -6.195  -8.126   7.173  0.00  0.00    -0.084 Cl
ENDBRANCH  25  27
ENDBRANCH  22  25
ENDBRANCH   9  22
TORSDOF 4
