REMARK  Name = ZINC39360981
REMARK  8 active torsions:
REMARK  status: ('A' for Active; 'I' for Inactive)
REMARK    1  A    between atoms: C_1  and  C_2
REMARK    2  A    between atoms: C_2  and  O_3
REMARK    3  A    between atoms: O_3  and  C_4
REMARK    4  A    between atoms: C_4  and  C_6
REMARK    5  A    between atoms: C_8  and  N_16
REMARK    6  A    between atoms: C_17  and  C_19
REMARK    7  A    between atoms: C_24  and  C_25
REMARK    8  A    between atoms: C_25  and  C_27
REMARK                            x       y       z     vdW  Elec       q    Type
REMARK                         _______ _______ _______ _____ _____    ______ ____
ROOT
ATOM      1  N   UNL     1       3.783  -1.700  -2.586  0.00  0.00    -0.282 N 
ATOM      2  C   UNL     1       5.129  -1.686  -2.521  0.00  0.00    +0.249 C 
ATOM      3  O   UNL     1       5.766  -2.649  -2.899  0.00  0.00    -0.270 OA
ATOM      4  H   UNL     1       3.276  -0.914  -2.330  0.00  0.00    +0.155 HD
ENDROOT
BRANCH   1   6
ATOM      5  C   UNL     1       3.728  -3.986  -3.770  0.00  0.00    +0.234 C 
ATOM      6  C   UNL     1       3.135  -2.818  -3.013  0.00  0.00    +0.053 C 
ATOM      7  C   UNL     1       1.794  -3.124  -2.842  0.00  0.00    +0.018 A 
ATOM      8  C   UNL     1       0.729  -2.432  -2.218  0.00  0.00    +0.011 A 
ATOM      9  C   UNL     1      -0.510  -2.982  -2.200  0.00  0.00    +0.001 A 
ATOM     10  C   UNL     1      -0.769  -4.224  -2.787  0.00  0.00    +0.002 A 
ATOM     11  C   UNL     1       0.202  -4.942  -3.401  0.00  0.00    +0.026 A 
ATOM     12  C   UNL     1       1.525  -4.433  -3.461  0.00  0.00    +0.045 A 
ATOM     13  N   UNL     1       2.627  -4.928  -3.991  0.00  0.00    -0.367 N 
ATOM     14  H   UNL     1       2.698  -5.778  -4.452  0.00  0.00    +0.161 HD
BRANCH   5  15
ATOM     15  C   UNL     1       4.285  -3.518  -5.090  0.00  0.00    +0.336 C 
ATOM     16  O   UNL     1       3.695  -3.764  -6.115  0.00  0.00    -0.248 OA
BRANCH  15  17
ATOM     17  O   UNL     1       5.436  -2.830  -5.127  0.00  0.00    -0.463 OA
BRANCH  17  19
ATOM     18  C   UNL     1       7.179  -1.599  -6.262  0.00  0.00    +0.048 C 
ATOM     19  C   UNL     1       5.960  -2.510  -6.418  0.00  0.00    +0.229 C 
ENDBRANCH  17  19
ENDBRANCH  15  17
ENDBRANCH   5  15
ENDBRANCH   1   6
BRANCH   2  20
ATOM     20  C   UNL     1       5.830  -0.498  -1.990  0.00  0.00    +0.048 A 
ATOM     21  C   UNL     1       5.117   0.659  -1.684  0.00  0.00    +0.014 A 
ATOM     22  C   UNL     1       5.777   1.767  -1.188  0.00  0.00    +0.001 A 
ATOM     23  C   UNL     1       7.146   1.737  -0.991  0.00  0.00    +0.001 A 
ATOM     24  C   UNL     1       7.871   0.599  -1.288  0.00  0.00    +0.012 A 
ATOM     25  C   UNL     1       7.223  -0.530  -1.785  0.00  0.00    +0.034 A 
BRANCH  25  26
ATOM     26  C   UNL     1       7.993  -1.752  -2.099  0.00  0.00    +0.194 C 
ATOM     27  O   UNL     1       8.664  -1.804  -3.111  0.00  0.00    -0.287 OA
BRANCH  26  28
ATOM     28  C   UNL     1       7.948  -2.910  -1.183  0.00  0.00    +0.022 A 
ATOM     29  C   UNL     1       7.191  -2.847  -0.010  0.00  0.00    +0.012 A 
ATOM     30  C   UNL     1       7.153  -3.932   0.840  0.00  0.00    +0.001 A 
ATOM     31  C   UNL     1       7.862  -5.081   0.534  0.00  0.00    +0.000 A 
ATOM     32  C   UNL     1       8.613  -5.150  -0.626  0.00  0.00    +0.001 A 
ATOM     33  C   UNL     1       8.656  -4.074  -1.488  0.00  0.00    +0.012 A 
ENDBRANCH  26  28
ENDBRANCH  25  26
ENDBRANCH   2  20
TORSDOF 7
