REMARK  Name = ZINC44016072
REMARK  9 active torsions:
REMARK  status: ('A' for Active; 'I' for Inactive)
REMARK    1  A    between atoms: C_1  and  C_2
REMARK    2  A    between atoms: N_4  and  C_5
REMARK    3  A    between atoms: C_7  and  N_12
REMARK    4  A    between atoms: N_15  and  C_16
REMARK    5  A    between atoms: C_16  and  C_17
REMARK    6  A    between atoms: C_17  and  C_19
REMARK    7  A    between atoms: C_17  and  N_24
REMARK    8  A    between atoms: N_24  and  C_25
REMARK    9  A    between atoms: N_24  and  C_26
REMARK                            x       y       z     vdW  Elec       q    Type
REMARK                         _______ _______ _______ _____ _____    ______ ____
ROOT
ATOM      1  N   UNL     1       1.287  -4.845  -0.014  0.00  0.00    -0.269 N 
ATOM      2  C   UNL     1       1.236  -6.152  -0.337  0.00  0.00    +0.304 C 
ATOM      3  O   UNL     1       0.161  -6.698  -0.495  0.00  0.00    -0.253 OA
ATOM      4  N   UNL     1       2.377  -6.855  -0.485  0.00  0.00    -0.300 N 
ATOM      5  H   UNL     1       2.140  -4.426   0.181  0.00  0.00    +0.156 HD
ATOM      6  H   UNL     1       3.234  -6.419  -0.359  0.00  0.00    +0.150 HD
ENDROOT
BRANCH   1   9
ATOM      7  C   UNL     1      -1.165  -2.283   0.979  0.00  0.00    +0.071 A 
ATOM      8  C   UNL     1       0.004  -3.029   0.927  0.00  0.00    +0.049 A 
ATOM      9  C   UNL     1       0.108  -4.091   0.041  0.00  0.00    +0.037 A 
ATOM     10  C   UNL     1      -0.957  -4.405  -0.793  0.00  0.00    +0.026 A 
ATOM     11  C   UNL     1      -2.121  -3.662  -0.741  0.00  0.00    +0.042 A 
ATOM     12  C   UNL     1      -2.231  -2.606   0.146  0.00  0.00    +0.145 A 
ATOM     13  F   UNL     1      -3.371  -1.884   0.199  0.00  0.00    -0.204 F 
BRANCH   7  17
ATOM     14  C   UNL     1      -0.326   0.753   3.041  0.00  0.00    +0.109 C 
ATOM     15  C   UNL     1      -0.187  -0.474   2.177  0.00  0.00    +0.214 C 
ATOM     16  O   UNL     1       0.903  -0.798   1.755  0.00  0.00    -0.276 OA
ATOM     17  N   UNL     1      -1.274  -1.211   1.873  0.00  0.00    -0.283 N 
ATOM     18  H   UNL     1      -2.131  -0.999   2.274  0.00  0.00    +0.155 HD
ENDBRANCH   7  17
ENDBRANCH   1   9
BRANCH   4  19
ATOM     19  C   UNL     1       2.322  -8.276  -0.837  0.00  0.00    +0.095 C 
BRANCH  19  20
ATOM     20  C   UNL     1       3.735  -8.861  -0.819  0.00  0.00    -0.014 C 
BRANCH  20  21
ATOM     21  C   UNL     1       4.285  -8.802   0.583  0.00  0.00    -0.022 A 
ATOM     22  C   UNL     1       5.140  -7.902   1.128  0.00  0.00    +0.009 A 
ATOM     23  C   UNL     1       5.512  -8.047   2.451  0.00  0.00    +0.008 A 
ATOM     24  C   UNL     1       5.011  -9.085   3.165  0.00  0.00    +0.045 A 
ATOM     25  S   UNL     1       3.974  -9.896   1.960  0.00  0.00    -0.103 S 
ENDBRANCH  20  21
BRANCH  20  26
ATOM     26  N   UNL     1       3.693 -10.258  -1.270  0.00  0.00    +0.382 N 
ATOM     27  C   UNL     1       3.267 -10.306  -2.675  0.00  0.00    -0.096 C 
ATOM     28  C   UNL     1       5.029 -10.855  -1.142  0.00  0.00    -0.096 C 
ATOM     29  H   UNL     1       3.038 -10.775  -0.703  0.00  0.00    -0.082 HD
ENDBRANCH  20  26
ENDBRANCH  19  20
ENDBRANCH   4  19
TORSDOF 6
