REMARK  Name = ZINC33194827
REMARK  8 active torsions:
REMARK  status: ('A' for Active; 'I' for Inactive)
REMARK    1  A    between atoms: C_1  and  C_2
REMARK    2  A    between atoms: C_4  and  C_17
REMARK    3  A    between atoms: C_5  and  C_16
REMARK    4  A    between atoms: N_6  and  C_7
REMARK    5  A    between atoms: C_10  and  C_13
REMARK    6  A    between atoms: C_13  and  C_14
REMARK    7  A    between atoms: C_13  and  C_15
REMARK    8  A    between atoms: N_19  and  C_20
REMARK                            x       y       z     vdW  Elec       q    Type
REMARK                         _______ _______ _______ _____ _____    ______ ____
ROOT
ATOM      1  C   UNL     1       0.044  -3.384  -1.456  0.00  0.00    +0.250 C 
ATOM      2  O   UNL     1       0.054  -4.481  -0.929  0.00  0.00    -0.270 OA
ATOM      3  N   UNL     1       0.034  -3.282  -2.799  0.00  0.00    -0.280 N 
ATOM      4  H   UNL     1      -0.055  -2.412  -3.219  0.00  0.00    +0.155 HD
ENDROOT
BRANCH   3   5
ATOM      5  C   UNL     1       0.151  -4.432  -3.590  0.00  0.00    +0.056 A 
ATOM      6  C   UNL     1       0.775  -5.564  -3.080  0.00  0.00    +0.072 A 
ATOM      7  C   UNL     1       0.889  -6.698  -3.862  0.00  0.00    +0.144 A 
ATOM      8  C   UNL     1       0.379  -6.704  -5.160  0.00  0.00    +0.077 A 
ATOM      9  C   UNL     1      -0.243  -5.574  -5.666  0.00  0.00    +0.048 A 
ATOM     10  C   UNL     1      -0.361  -4.442  -4.881  0.00  0.00    +0.064 A 
ATOM     11 CL   UNL     1      -1.146  -3.028  -5.513  0.00  0.00    -0.082 Cl
ATOM     12  N   UNL     1       0.505  -7.863  -5.941  0.00  0.00    -0.280 N 
ATOM     13  C   UNL     1       0.821  -9.029  -5.337  0.00  0.00    +0.255 C 
ATOM     14  O   UNL     1       0.965 -10.037  -5.995  0.00  0.00    -0.272 OA
ATOM     15  C   UNL     1       0.994  -9.072  -3.840  0.00  0.00    +0.325 C 
ATOM     16  O   UNL     1       1.496  -7.815  -3.378  0.00  0.00    -0.481 OA
ATOM     17  H   UNL     1       0.367  -7.827  -6.901  0.00  0.00    +0.155 HD
ENDBRANCH   3   5
BRANCH   1  21
ATOM     18  C   UNL     1       0.026   1.504   0.009  0.00  0.00    +0.064 C 
ATOM     19  C   UNL     1       0.035  -0.003   0.001  0.00  0.00    +0.022 A 
ATOM     20  C   UNL     1       0.032  -0.779  -1.097  0.00  0.00    +0.036 A 
ATOM     21  C   UNL     1       0.044  -2.168  -0.625  0.00  0.00    +0.058 A 
ATOM     22  C   UNL     1       0.053  -2.107   0.742  0.00  0.00    +0.033 A 
ATOM     23  N   UNL     1       0.054  -0.804   1.109  0.00  0.00    -0.317 N 
ATOM     24  C   UNL     1       0.066  -3.288   1.678  0.00  0.00    +0.064 C 
BRANCH  23  25
ATOM     25  C   UNL     1       0.067  -0.343   2.432  0.00  0.00    +0.047 A 
ATOM     26  C   UNL     1       1.170  -0.581   3.241  0.00  0.00    +0.026 A 
ATOM     27  C   UNL     1       1.181  -0.125   4.545  0.00  0.00    +0.006 A 
ATOM     28  C   UNL     1       0.095   0.569   5.045  0.00  0.00    -0.045 A 
ATOM     29  C   UNL     1      -1.006   0.808   4.242  0.00  0.00    +0.006 A 
ATOM     30  C   UNL     1      -1.020   0.359   2.936  0.00  0.00    +0.026 A 
BRANCH  28  31
ATOM     31  C   UNL     1       0.110   1.065   6.468  0.00  0.00    +0.013 C 
ATOM     32  C   UNL     1      -0.032   2.588   6.478  0.00  0.00    +0.012 C 
ATOM     33  C   UNL     1      -1.055   0.439   7.238  0.00  0.00    +0.012 C 
ENDBRANCH  28  31
ENDBRANCH  23  25
ENDBRANCH   1  21
TORSDOF 4
