REMARK  Name = ZINC09354539
REMARK  8 active torsions:
REMARK  status: ('A' for Active; 'I' for Inactive)
REMARK    1  A    between atoms: N_13  and  C_16
REMARK    2  A    between atoms: C_16  and  C_17
REMARK    3  A    between atoms: C_17  and  C_18
REMARK    4  A    between atoms: C_18  and  C_19
REMARK    5  A    between atoms: C_19  and  O_21
REMARK    6  A    between atoms: O_21  and  C_22
REMARK    7  A    between atoms: N_23  and  C_24
REMARK    8  A    between atoms: N_30  and  C_31
REMARK                            x       y       z     vdW  Elec       q    Type
REMARK                         _______ _______ _______ _____ _____    ______ ____
ROOT
ATOM      1  C   UNL     1       1.664  -6.901  -2.959  0.00  0.00    +0.314 C 
ATOM      2  O   UNL     1       1.030  -6.402  -3.858  0.00  0.00    -0.250 OA
ENDROOT
BRANCH   1   3
ATOM      3  C   UNL     1       1.644  -6.277  -1.587  0.00  0.00    +0.122 C 
BRANCH   3   4
ATOM      4  C   UNL     1       0.751  -5.035  -1.604  0.00  0.00    +0.031 C 
BRANCH   4   5
ATOM      5  C   UNL     1       0.731  -4.402  -0.211  0.00  0.00    +0.117 C 
BRANCH   5  18
ATOM      6  C   UNL     1      -4.479  -1.143   0.310  0.00  0.00    +0.001 A 
ATOM      7  C   UNL     1      -3.967   0.089   0.016  0.00  0.00    +0.008 A 
ATOM      8  C   UNL     1      -2.600   0.231  -0.277  0.00  0.00    -0.016 A 
ATOM      9  C   UNL     1      -2.026   1.476  -0.586  0.00  0.00    +0.008 A 
ATOM     10  C   UNL     1      -0.692   1.563  -0.865  0.00  0.00    +0.001 A 
ATOM     11  C   UNL     1       0.130   0.443  -0.852  0.00  0.00    +0.014 A 
ATOM     12  C   UNL     1      -0.398  -0.805  -0.551  0.00  0.00    +0.046 A 
ATOM     13  C   UNL     1      -1.776  -0.914  -0.260  0.00  0.00    +0.006 A 
ATOM     14  C   UNL     1      -2.324  -2.181   0.046  0.00  0.00    +0.046 A 
ATOM     15  C   UNL     1      -3.678  -2.279   0.330  0.00  0.00    +0.014 A 
ATOM     16  C   UNL     1      -1.434  -3.351   0.053  0.00  0.00    +0.254 C 
ATOM     17  O   UNL     1      -1.883  -4.451   0.314  0.00  0.00    -0.270 OA
ATOM     18  N   UNL     1      -0.124  -3.212  -0.228  0.00  0.00    -0.234 N 
ATOM     19  C   UNL     1       0.428  -2.021  -0.525  0.00  0.00    +0.254 C 
ATOM     20  O   UNL     1       1.617  -1.950  -0.773  0.00  0.00    -0.270 OA
ENDBRANCH   5  18
ENDBRANCH   4   5
ENDBRANCH   3   4
ENDBRANCH   1   3
BRANCH   1  21
ATOM     21  O   UNL     1       2.389  -8.011  -3.182  0.00  0.00    -0.396 OA
BRANCH  21  22
ATOM     22  C   UNL     1       2.475  -8.467  -4.450  0.00  0.00    +0.264 C 
ATOM     23  N   UNL     1       2.502  -9.775  -4.685  0.00  0.00    -0.340 N 
ATOM     24  N   UNL     1       2.534  -7.609  -5.462  0.00  0.00    -0.298 N 
ATOM     25  H   UNL     1       1.839  -7.608  -6.138  0.00  0.00    +0.151 HD
ATOM     26  H   UNL     1       2.405 -10.402  -3.951  0.00  0.00    +0.164 HD
BRANCH  23  27
ATOM     27  C   UNL     1       2.678 -10.270  -6.053  0.00  0.00    +0.083 C 
ATOM     28  C   UNL     1       1.333 -10.240  -6.782  0.00  0.00    +0.024 C 
ATOM     29  C   UNL     1       1.517 -10.757  -8.211  0.00  0.00    +0.002 C 
ATOM     30  C   UNL     1       2.043 -12.193  -8.170  0.00  0.00    +0.000 C 
ATOM     31  C   UNL     1       3.387 -12.223  -7.440  0.00  0.00    +0.002 C 
ATOM     32  C   UNL     1       3.204 -11.706  -6.012  0.00  0.00    +0.024 C 
ENDBRANCH  23  27
BRANCH  24  33
ATOM     33  C   UNL     1       3.649  -6.664  -5.557  0.00  0.00    +0.075 C 
ATOM     34  C   UNL     1       4.759  -7.269  -6.419  0.00  0.00    +0.022 C 
ATOM     35  C   UNL     1       5.924  -6.282  -6.518  0.00  0.00    +0.002 C 
ATOM     36  C   UNL     1       5.436  -4.980  -7.157  0.00  0.00    +0.000 C 
ATOM     37  C   UNL     1       4.326  -4.375  -6.295  0.00  0.00    +0.002 C 
ATOM     38  C   UNL     1       3.161  -5.362  -6.196  0.00  0.00    +0.022 C 
ENDBRANCH  24  33
ENDBRANCH  21  22
ENDBRANCH   1  21
TORSDOF 8
