REMARK  Name = ZINC39448849
REMARK  4 active torsions:
REMARK  status: ('A' for Active; 'I' for Inactive)
REMARK    1  A    between atoms: C_16  and  C_18
REMARK    2  A    between atoms: C_18  and  S_19
REMARK    3  A    between atoms: S_19  and  C_20
REMARK    4  A    between atoms: C_22  and  C_28
REMARK                            x       y       z     vdW  Elec       q    Type
REMARK                         _______ _______ _______ _____ _____    ______ ____
ROOT
ATOM      1  S   UNL     1       6.969  -0.575   2.102  0.00  0.00    -0.081 S 
ENDROOT
BRANCH   1   2
ATOM      2  C   UNL     1       8.470  -1.462   1.848  0.00  0.00    +0.159 C 
ATOM      3  N   UNL     1       9.523  -1.326   2.722  0.00  0.00    -0.300 N 
ATOM      4  C   UNL     1      10.882  -1.504   2.187  0.00  0.00    +0.201 C 
ATOM      5  N   UNL     1      10.860  -2.625   1.240  0.00  0.00    -0.336 N 
ATOM      6  C   UNL     1       9.761  -2.930   0.602  0.00  0.00    +0.190 C 
ATOM      7  N   UNL     1       8.607  -2.276   0.817  0.00  0.00    -0.195 NA
ATOM      8  N   UNL     1       9.784  -3.960  -0.317  0.00  0.00    -0.329 N 
ATOM      9  H   UNL     1      10.608  -4.445  -0.481  0.00  0.00    +0.145 HD
ATOM     10  H   UNL     1       8.977  -4.199  -0.798  0.00  0.00    +0.145 HD
ATOM     11  H   UNL     1       9.376  -1.120   3.659  0.00  0.00    +0.150 HD
ATOM     12  H   UNL     1      11.666  -3.142   1.086  0.00  0.00    +0.164 HD
BRANCH   4  13
ATOM     13  C   UNL     1      11.318  -0.248   1.478  0.00  0.00    +0.011 A 
ATOM     14  C   UNL     1      10.764   0.970   1.827  0.00  0.00    +0.009 A 
ATOM     15  C   UNL     1      11.164   2.123   1.177  0.00  0.00    +0.000 A 
ATOM     16  C   UNL     1      12.118   2.058   0.178  0.00  0.00    +0.001 A 
ATOM     17  C   UNL     1      12.672   0.842  -0.171  0.00  0.00    +0.020 A 
ATOM     18  C   UNL     1      12.276  -0.312   0.483  0.00  0.00    +0.048 A 
ATOM     19 CL   UNL     1      12.977  -1.840   0.050  0.00  0.00    -0.083 Cl
ENDBRANCH   4  13
ENDBRANCH   1   2
BRANCH   1  20
ATOM     20  C   UNL     1       5.916  -1.090   0.718  0.00  0.00    +0.173 C 
BRANCH  20  36
ATOM     21  C   UNL     1      -0.017   1.371   0.010  0.00  0.00    +0.000 A 
ATOM     22  C   UNL     1       1.168   2.085   0.002  0.00  0.00    +0.002 A 
ATOM     23  C   UNL     1       2.365   1.400  -0.028  0.00  0.00    +0.024 A 
ATOM     24  C   UNL     1       2.383   0.009  -0.042  0.00  0.00    +0.044 A 
ATOM     25  C   UNL     1       1.204  -0.717  -0.008  0.00  0.00    -0.025 A 
ATOM     26  C   UNL     1       0.002  -0.004   0.002  0.00  0.00    +0.005 A 
ATOM     27  C   UNL     1       1.047  -2.219   0.059  0.00  0.00    +0.042 C 
ATOM     28  C   UNL     1       2.374  -2.955   0.112  0.00  0.00    +0.042 C 
ATOM     29  C   UNL     1       3.191  -2.701  -1.128  0.00  0.00    -0.025 A 
ATOM     30  C   UNL     1       3.277  -3.606  -2.162  0.00  0.00    +0.005 A 
ATOM     31  C   UNL     1       4.077  -3.297  -3.253  0.00  0.00    +0.000 A 
ATOM     32  C   UNL     1       4.775  -2.103  -3.295  0.00  0.00    +0.002 A 
ATOM     33  C   UNL     1       4.674  -1.195  -2.254  0.00  0.00    +0.024 A 
ATOM     34  C   UNL     1       3.862  -1.508  -1.178  0.00  0.00    +0.044 A 
ATOM     35  N   UNL     1       3.632  -0.626  -0.112  0.00  0.00    -0.239 N 
ATOM     36  C   UNL     1       4.582  -0.395   0.816  0.00  0.00    +0.234 C 
ATOM     37  O   UNL     1       4.364   0.372   1.730  0.00  0.00    -0.274 OA
ENDBRANCH  20  36
ENDBRANCH   1  20
TORSDOF 4
