REMARK  Name = ZINC36047382
REMARK  6 active torsions:
REMARK  status: ('A' for Active; 'I' for Inactive)
REMARK    1  A    between atoms: C_6  and  C_7
REMARK    2  A    between atoms: C_10  and  C_12
REMARK    3  A    between atoms: C_12  and  C_24
REMARK    4  A    between atoms: C_13  and  C_14
REMARK    5  A    between atoms: C_17  and  O_23
REMARK    6  A    between atoms: C_18  and  N_20
REMARK                            x       y       z     vdW  Elec       q    Type
REMARK                         _______ _______ _______ _____ _____    ______ ____
ROOT
ATOM      1  C   UNL     1      -4.882  -0.454   0.156  0.00  0.00    +0.084 C 
ATOM      2  C   UNL     1      -5.924  -1.383  -0.062  0.00  0.00    +0.029 C 
ENDROOT
BRANCH   2   3
ATOM      3  C   UNL     1      -5.649  -2.758  -0.066  0.00  0.00    -0.021 A 
ATOM      4  C   UNL     1      -4.588  -3.273   0.716  0.00  0.00    +0.011 A 
ATOM      5  C   UNL     1      -4.328  -4.608   0.706  0.00  0.00    +0.048 A 
ATOM      6  C   UNL     1      -5.104  -5.471  -0.074  0.00  0.00    +0.147 A 
ATOM      7  C   UNL     1      -6.154  -4.970  -0.850  0.00  0.00    +0.168 A 
ATOM      8  C   UNL     1      -6.433  -3.639  -0.847  0.00  0.00    +0.044 A 
BRANCH   7   9
ATOM      9  N   UNL     1      -6.969  -5.893  -1.673  0.00  0.00    +0.060 N 
ATOM     10  O   UNL     1      -7.958  -5.423  -2.405  0.00  0.00    -0.126 OA
ATOM     11  O   UNL     1      -6.704  -7.183  -1.673  0.00  0.00    -0.126 OA
ENDBRANCH   7   9
BRANCH   6  12
ATOM     12  O   UNL     1      -4.838  -6.797  -0.078  0.00  0.00    -0.504 OA
ATOM     13  H   UNL     1      -5.316  -7.296   0.598  0.00  0.00    +0.292 HD
ENDBRANCH   6  12
ENDBRANCH   2   3
BRANCH   1  17
ATOM     14  C   UNL     1      -1.493  -1.298   1.105  0.00  0.00    +0.079 A 
ATOM     15  C   UNL     1      -1.148  -1.867  -0.212  0.00  0.00    +0.075 A 
ATOM     16  S   UNL     1      -2.583  -1.666  -1.069  0.00  0.00    -0.074 S 
ATOM     17  C   UNL     1      -3.551  -0.893   0.213  0.00  0.00    +0.119 A 
ATOM     18  N   UNL     1      -2.700  -0.839   1.247  0.00  0.00    -0.238 NA
BRANCH  14  24
ATOM     19  C   UNL     1      -0.878  -0.713   3.448  0.00  0.00    +0.011 A 
ATOM     20  C   UNL     1       0.039  -0.679   4.474  0.00  0.00    +0.020 A 
ATOM     21  C   UNL     1       1.319  -1.180   4.282  0.00  0.00    +0.041 A 
ATOM     22  C   UNL     1       1.684  -1.720   3.057  0.00  0.00    +0.020 A 
ATOM     23  C   UNL     1       0.777  -1.761   2.022  0.00  0.00    +0.011 A 
ATOM     24  C   UNL     1      -0.517  -1.257   2.208  0.00  0.00    +0.001 A 
ATOM     25 CL   UNL     1       2.469  -1.132   5.582  0.00  0.00    -0.084 Cl
ENDBRANCH  14  24
ENDBRANCH   1  17
BRANCH   1  26
ATOM     26  C   UNL     1      -5.184   0.937   0.318  0.00  0.00    +0.102 C 
ATOM     27  N   UNL     1      -5.424   2.040   0.447  0.00  0.00    -0.191 NA
ENDBRANCH   1  26
TORSDOF 6
