REMARK  Name = ZINC23053422
REMARK  9 active torsions:
REMARK  status: ('A' for Active; 'I' for Inactive)
REMARK    1  A    between atoms: C_1  and  C_2
REMARK    2  A    between atoms: C_2  and  C_3
REMARK    3  A    between atoms: C_3  and  C_4
REMARK    4  A    between atoms: C_4  and  C_5
REMARK    5  A    between atoms: C_8  and  N_11
REMARK    6  A    between atoms: C_21  and  S_22
REMARK    7  A    between atoms: S_22  and  C_23
REMARK    8  A    between atoms: C_23  and  C_24
REMARK    9  A    between atoms: N_26  and  C_27
REMARK                            x       y       z     vdW  Elec       q    Type
REMARK                         _______ _______ _______ _____ _____    ______ ____
ROOT
ATOM      1  N   UNL     1       0.102  -2.764  -0.033  0.00  0.00    -0.255 N 
ATOM      2  C   UNL     1       1.284  -2.168   0.249  0.00  0.00    +0.267 A 
ATOM      3  O   UNL     1       2.283  -2.825   0.478  0.00  0.00    -0.267 OA
ATOM      4  C   UNL     1       1.317  -0.700   0.268  0.00  0.00    +0.065 A 
ATOM      5  C   UNL     1       2.486   0.007   0.548  0.00  0.00    +0.015 A 
ATOM      6  C   UNL     1       2.461   1.374   0.553  0.00  0.00    +0.001 A 
ATOM      7  C   UNL     1       1.287   2.064   0.282  0.00  0.00    +0.002 A 
ATOM      8  C   UNL     1       0.127   1.397   0.005  0.00  0.00    +0.028 A 
ATOM      9  C   UNL     1       0.119  -0.001  -0.007  0.00  0.00    +0.079 A 
ATOM     10  N   UNL     1      -1.006  -0.702  -0.276  0.00  0.00    -0.223 NA
ATOM     11  C   UNL     1      -1.011  -2.013  -0.288  0.00  0.00    +0.177 A 
ENDROOT
BRANCH   1  15
ATOM     12  C   UNL     1      -0.145  -6.924  -0.124  0.00  0.00    -0.047 A 
ATOM     13  C   UNL     1       0.568  -6.253  -1.101  0.00  0.00    +0.005 A 
ATOM     14  C   UNL     1       0.652  -4.875  -1.073  0.00  0.00    +0.026 A 
ATOM     15  C   UNL     1       0.019  -4.162  -0.064  0.00  0.00    +0.052 A 
ATOM     16  C   UNL     1      -0.692  -4.839   0.919  0.00  0.00    +0.026 A 
ATOM     17  C   UNL     1      -0.777  -6.217   0.883  0.00  0.00    +0.005 A 
BRANCH  12  18
ATOM     18  C   UNL     1      -0.234  -8.428  -0.156  0.00  0.00    +0.035 C 
BRANCH  18  19
ATOM     19  C   UNL     1       0.927  -9.025   0.642  0.00  0.00    +0.004 C 
BRANCH  19  21
ATOM     20  C   UNL     1       1.997 -11.149   1.406  0.00  0.00    +0.004 C 
ATOM     21  C   UNL     1       0.836 -10.552   0.609  0.00  0.00    -0.003 C 
ENDBRANCH  19  21
ENDBRANCH  18  19
ENDBRANCH  12  18
ENDBRANCH   1  15
BRANCH  11  22
ATOM     22  S   UNL     1      -2.522  -2.844  -0.649  0.00  0.00    -0.078 S 
BRANCH  22  23
ATOM     23  C   UNL     1      -3.613  -1.421  -0.894  0.00  0.00    +0.173 C 
BRANCH  23  24
ATOM     24  C   UNL     1      -5.002  -1.904  -1.224  0.00  0.00    +0.227 C 
ATOM     25  O   UNL     1      -5.232  -3.094  -1.287  0.00  0.00    -0.275 OA
ATOM     26  N   UNL     1      -5.989  -1.015  -1.448  0.00  0.00    -0.285 N 
ATOM     27  H   UNL     1      -5.802   0.061  -1.312  0.00  0.00    +0.155 HD
BRANCH  26  28
ATOM     28  C   UNL     1      -7.254  -1.460  -1.854  0.00  0.00    +0.035 A 
ATOM     29  C   UNL     1      -8.004  -0.700  -2.746  0.00  0.00    +0.025 A 
ATOM     30  C   UNL     1      -9.248  -1.135  -3.154  0.00  0.00    +0.029 A 
ATOM     31  C   UNL     1      -9.758  -2.329  -2.665  0.00  0.00    +0.067 A 
ATOM     32  C   UNL     1      -9.011  -3.091  -1.766  0.00  0.00    +0.069 A 
ATOM     33  C   UNL     1      -7.759  -2.654  -1.362  0.00  0.00    +0.051 A 
ATOM     34  N   UNL     1      -9.773  -4.216  -1.460  0.00  0.00    -0.306 N 
ATOM     35  H   UNL     1      -9.384  -4.971  -0.761  0.00  0.00    +0.170 HD
ATOM     36  C   UNL     1     -10.932  -4.142  -2.141  0.00  0.00    +0.325 A 
ATOM     37  O   UNL     1     -11.824  -4.968  -2.098  0.00  0.00    -0.247 OA
ATOM     38  N   UNL     1     -10.954  -3.015  -2.878  0.00  0.00    -0.306 N 
ATOM     39  H   UNL     1     -11.712  -2.601  -3.559  0.00  0.00    +0.170 HD
ENDBRANCH  26  28
ENDBRANCH  23  24
ENDBRANCH  22  23
ENDBRANCH  11  22
TORSDOF 8
