REMARK  Name = ZINC39040558
REMARK  6 active torsions:
REMARK  status: ('A' for Active; 'I' for Inactive)
REMARK    1  A    between atoms: C_4  and  C_7
REMARK    2  A    between atoms: C_7  and  S_8
REMARK    3  A    between atoms: S_8  and  C_9
REMARK    4  A    between atoms: C_14  and  C_15
REMARK    5  A    between atoms: N_20  and  C_21
REMARK    6  A    between atoms: N_23  and  C_24
REMARK                            x       y       z     vdW  Elec       q    Type
REMARK                         _______ _______ _______ _____ _____    ______ ____
ROOT
ATOM      1  C   UNL     1       5.985  -1.990   3.958  0.00  0.00    +0.194 C 
ATOM      2  N   UNL     1       7.005  -2.270   4.996  0.00  0.00    -0.289 N 
ATOM      3  N   UNL     1       6.767  -3.122   5.822  0.00  0.00    -0.153 NA
ATOM      4  C   UNL     1       5.605  -3.860   5.873  0.00  0.00    +0.203 C 
ATOM      5  N   UNL     1       5.254  -4.804   6.728  0.00  0.00    -0.136 NA
ATOM      6  S   UNL     1       4.695  -3.204   4.474  0.00  0.00    -0.056 S 
ATOM      7  H   UNL     1       7.844  -1.783   5.012  0.00  0.00    +0.184 HD
ENDROOT
BRANCH   1  13
ATOM      8  C   UNL     1       5.787  -1.893   1.458  0.00  0.00    +0.014 A 
ATOM      9  C   UNL     1       6.274  -2.170   0.186  0.00  0.00    +0.015 A 
ATOM     10  C   UNL     1       7.468  -2.848   0.039  0.00  0.00    +0.001 A 
ATOM     11  C   UNL     1       8.178  -3.251   1.155  0.00  0.00    +0.000 A 
ATOM     12  C   UNL     1       7.696  -2.978   2.422  0.00  0.00    +0.007 A 
ATOM     13  C   UNL     1       6.506  -2.294   2.577  0.00  0.00    -0.000 A 
BRANCH   8  14
ATOM     14  S   UNL     1       4.264  -1.028   1.651  0.00  0.00    -0.120 S 
BRANCH  14  15
ATOM     15  C   UNL     1       3.713  -0.725  -0.051  0.00  0.00    +0.109 C 
BRANCH  15  19
ATOM     16  C   UNL     1      -0.002   1.383   0.008  0.00  0.00    +0.000 A 
ATOM     17  C   UNL     1       1.190   2.083  -0.006  0.00  0.00    +0.000 A 
ATOM     18  C   UNL     1       2.392   1.401  -0.025  0.00  0.00    +0.004 A 
ATOM     19  C   UNL     1       2.402   0.019  -0.029  0.00  0.00    -0.037 A 
ATOM     20  C   UNL     1       1.210  -0.681  -0.014  0.00  0.00    +0.004 A 
ATOM     21  C   UNL     1       0.008   0.001   0.003  0.00  0.00    +0.000 A 
ENDBRANCH  15  19
ENDBRANCH  14  15
ENDBRANCH   8  14
ENDBRANCH   1  13
BRANCH   5  22
ATOM     22  C   UNL     1       4.061  -5.411   6.605  0.00  0.00    +0.330 C 
ATOM     23  O   UNL     1       3.305  -5.091   5.706  0.00  0.00    -0.250 OA
ATOM     24  N   UNL     1       3.702  -6.374   7.477  0.00  0.00    -0.266 N 
ATOM     25  H   UNL     1       4.330  -6.674   8.153  0.00  0.00    +0.156 HD
BRANCH  24  26
ATOM     26  C   UNL     1       2.425  -6.940   7.407  0.00  0.00    +0.053 A 
ATOM     27  C   UNL     1       1.807  -7.115   6.176  0.00  0.00    +0.026 A 
ATOM     28  C   UNL     1       0.546  -7.674   6.110  0.00  0.00    +0.022 A 
ATOM     29  C   UNL     1      -0.103  -8.060   7.269  0.00  0.00    +0.042 A 
ATOM     30  C   UNL     1       0.509  -7.887   8.498  0.00  0.00    +0.041 A 
ATOM     31  C   UNL     1       1.773  -7.334   8.570  0.00  0.00    +0.064 A 
ATOM     32 CL   UNL     1       2.544  -7.125  10.111  0.00  0.00    -0.082 Cl
ATOM     33 CL   UNL     1      -1.688  -8.763   7.182  0.00  0.00    -0.083 Cl
ENDBRANCH  24  26
ENDBRANCH   5  22
TORSDOF 6
