REMARK  Name = ZINC58056802
REMARK  3 active torsions:
REMARK  status: ('A' for Active; 'I' for Inactive)
REMARK    1  A    between atoms: C_3  and  C_9
REMARK    2  A    between atoms: C_9  and  C_10
REMARK    3  A    between atoms: C_14  and  N_18
REMARK                            x       y       z     vdW  Elec       q    Type
REMARK                         _______ _______ _______ _____ _____    ______ ____
ROOT
ATOM      1  C   UNL     1       4.243   2.224   1.371  0.00  0.00    +0.118 A 
ATOM      2  N   UNL     1       3.602   1.626   2.337  0.00  0.00    -0.194 NA
ATOM      3  C   UNL     1       4.069   1.631   3.593  0.00  0.00    +0.298 A 
ATOM      4  O   UNL     1       3.382   1.002   4.578  0.00  0.00    -0.264 OA
ATOM      5  C   UNL     1       5.257   2.283   3.878  0.00  0.00    +0.157 A 
ATOM      6  C   UNL     1       5.938   2.923   2.825  0.00  0.00    +0.276 A 
ATOM      7  O   UNL     1       6.989   3.510   3.029  0.00  0.00    -0.266 OA
ATOM      8  N   UNL     1       5.408   2.870   1.585  0.00  0.00    -0.309 N 
ATOM      9  H   UNL     1       5.864   3.302   0.846  0.00  0.00    +0.170 HD
ENDROOT
BRANCH   5  10
ATOM     10  N   UNL     1       5.770   2.304   5.187  0.00  0.00    -0.350 N 
ATOM     11  H   UNL     1       5.291   1.860   5.904  0.00  0.00    +0.143 HD
ATOM     12  H   UNL     1       6.604   2.764   5.374  0.00  0.00    +0.143 HD
ENDBRANCH   5  10
BRANCH   1  13
ATOM     13  C   UNL     1       3.671   2.185  -0.023  0.00  0.00    +0.111 C 
BRANCH  13  16
ATOM     14  C   UNL     1      -0.017   1.379   0.010  0.00  0.00    +0.020 A 
ATOM     15  C   UNL     1       1.171   2.087   0.002  0.00  0.00    +0.007 A 
ATOM     16  C   UNL     1       2.377   1.413  -0.013  0.00  0.00    -0.022 A 
ATOM     17  C   UNL     1       2.397   0.029  -0.021  0.00  0.00    +0.046 A 
ATOM     18  C   UNL     1       1.210  -0.679  -0.013  0.00  0.00    +0.040 A 
ATOM     19  C   UNL     1       0.002  -0.004   0.002  0.00  0.00    +0.042 A 
ATOM     20 CL   UNL     1      -1.489  -0.893   0.012  0.00  0.00    -0.083 Cl
ATOM     21 CL   UNL     1       3.913  -0.817  -0.041  0.00  0.00    -0.083 Cl
ENDBRANCH  13  16
ENDBRANCH   1  13
TORSDOF 3
