REMARK  Name = ZINC39639165
REMARK  10 active torsions:
REMARK  status: ('A' for Active; 'I' for Inactive)
REMARK    1  A    between atoms: C_1  and  O_2
REMARK    2  A    between atoms: O_2  and  C_3
REMARK    3  A    between atoms: C_5  and  O_35
REMARK    4  A    between atoms: C_6  and  C_11
REMARK    5  A    between atoms: C_7  and  O_9
REMARK    6  A    between atoms: O_9  and  C_10
REMARK    7  A    between atoms: C_11  and  N_12
REMARK    8  A    between atoms: C_13  and  C_15
REMARK    9  A    between atoms: C_26  and  C_28
REMARK   10  A    between atoms: O_35  and  C_36
REMARK                            x       y       z     vdW  Elec       q    Type
REMARK                         _______ _______ _______ _____ _____    ______ ____
ROOT
ATOM      1  C   UNL     1       6.188  -3.518  -4.686  0.00  0.00    +0.100 C 
ATOM      2  C   UNL     1       6.927  -2.164  -4.609  0.00  0.00    +0.121 C 
ATOM      3  N   UNL     1       8.254  -2.426  -5.214  0.00  0.00    -0.300 N 
ATOM      4  C   UNL     1       7.967  -3.325  -6.358  0.00  0.00    +0.115 C 
ATOM      5  C   UNL     1       6.872  -4.277  -5.835  0.00  0.00    -0.004 C 
ATOM      6  C   UNL     1       7.500  -5.567  -5.317  0.00  0.00    -0.010 C 
ATOM      7  C   UNL     1       8.125  -6.332  -6.487  0.00  0.00    -0.082 C 
ATOM      8  N   UNL     1       7.091  -6.633  -7.485  0.00  0.00    +0.379 N 
ATOM      9  C   UNL     1       6.558  -5.386  -8.046  0.00  0.00    -0.082 C 
ATOM     10  C   UNL     1       5.867  -4.581  -6.942  0.00  0.00    -0.010 C 
ATOM     11  C   UNL     1       9.452  -1.955  -4.814  0.00  0.00    +0.219 C 
ATOM     12  O   UNL     1      10.457  -2.263  -5.419  0.00  0.00    -0.275 OA
ATOM     13  H   UNL     1       7.493  -7.188  -8.226  0.00  0.00    -0.086 HD
ATOM     14  H   UNL     1       6.344  -7.150  -7.048  0.00  0.00    -0.086 HD
ENDROOT
BRANCH  11  15
ATOM     15  C   UNL     1       9.542  -1.046  -3.616  0.00  0.00    +0.079 C 
ATOM     16  C   UNL     1      11.004  -0.646  -3.381  0.00  0.00    +0.017 C 
ATOM     17  C   UNL     1      11.089   0.126  -2.063  0.00  0.00    +0.027 C 
ATOM     18  C   UNL     1      10.048   1.207  -2.029  0.00  0.00    -0.031 C 
ATOM     19  C   UNL     1       9.019   1.247  -2.813  0.00  0.00    -0.030 C 
ATOM     20  C   UNL     1       8.724   0.223  -3.870  0.00  0.00    +0.039 C 
ENDBRANCH  11  15
BRANCH   1  22
ATOM     21  N   UNL     1       3.810  -4.190  -4.566  0.00  0.00    -0.311 N 
ATOM     22  C   UNL     1       4.729  -3.303  -4.996  0.00  0.00    +0.218 C 
ATOM     23  O   UNL     1       4.381  -2.331  -5.633  0.00  0.00    -0.275 OA
ATOM     24  H   UNL     1       4.088  -4.968  -4.057  0.00  0.00    +0.149 HD
BRANCH  21  25
ATOM     25  C   UNL     1       2.392  -3.981  -4.867  0.00  0.00    +0.147 C 
BRANCH  25  29
ATOM     26  C   UNL     1       0.089  -7.178  -3.194  0.00  0.00    +0.127 A 
ATOM     27  C   UNL     1       0.338  -6.037  -2.445  0.00  0.00    +0.091 A 
ATOM     28  C   UNL     1       1.084  -5.002  -2.987  0.00  0.00    +0.132 A 
ATOM     29  C   UNL     1       1.581  -5.106  -4.277  0.00  0.00    +0.053 A 
ATOM     30  C   UNL     1       1.333  -6.247  -5.026  0.00  0.00    +0.132 A 
ATOM     31  C   UNL     1       0.590  -7.285  -4.482  0.00  0.00    +0.091 A 
BRANCH  26  33
ATOM     32  C   UNL     1      -1.127  -8.015  -1.331  0.00  0.00    +0.277 C 
ATOM     33  O   UNL     1      -0.642  -8.193  -2.663  0.00  0.00    -0.495 OA
ENDBRANCH  26  33
BRANCH  30  34
ATOM     34  O   UNL     1       1.820  -6.350  -6.290  0.00  0.00    -0.495 OA
ATOM     35  C   UNL     1       1.525  -7.553  -7.003  0.00  0.00    +0.277 C 
ENDBRANCH  30  34
BRANCH  28  36
ATOM     36  O   UNL     1       1.328  -3.884  -2.254  0.00  0.00    -0.495 OA
ATOM     37  C   UNL     1       0.785  -3.843  -0.933  0.00  0.00    +0.277 C 
ENDBRANCH  28  36
ENDBRANCH  25  29
ENDBRANCH  21  25
ENDBRANCH   1  22
TORSDOF 7
