REMARK  Name = ZINC02119531
REMARK  11 active torsions:
REMARK  status: ('A' for Active; 'I' for Inactive)
REMARK    1  A    between atoms: C_1  and  C_2
REMARK    2  A    between atoms: C_12  and  C_13
REMARK    3  A    between atoms: C_13  and  C_14
REMARK    4  A    between atoms: N_16  and  CA_17
REMARK    5  A    between atoms: CA_17  and  C_19
REMARK    6  A    between atoms: CA_17  and  C_26
REMARK    7  A    between atoms: C_19  and  C_20
REMARK    8  A    between atoms: C_20  and  C_21
REMARK    9  A    between atoms: C_21  and  N_22
REMARK   10  A    between atoms: C_29  and  C_37
REMARK   11  A    between atoms: C_30  and  C_31
REMARK                            x       y       z     vdW  Elec       q    Type
REMARK                         _______ _______ _______ _____ _____    ______ ____
ROOT
ATOM      1  C   UNL     1       6.421   1.403  -0.053  0.00  0.00    +0.045 C 
ATOM      2  C   UNL     1       5.428   2.538  -0.037  0.00  0.00    -0.029 A 
ATOM      3  C   UNL     1       3.986   2.276  -0.024  0.00  0.00    +0.022 A 
ATOM      4  C   UNL     1       3.497   0.969  -0.026  0.00  0.00    +0.024 A 
ATOM      5  C   UNL     1       2.128   0.756  -0.014  0.00  0.00    +0.029 A 
ATOM      6  C   UNL     1       1.235   1.845   0.000  0.00  0.00    +0.139 A 
ATOM      7  C   UNL     1       1.727   3.142   0.002  0.00  0.00    +0.093 A 
ATOM      8  C   UNL     1       3.093   3.367  -0.009  0.00  0.00    +0.143 A 
ATOM      9  O   UNL     1       3.578   4.629  -0.008  0.00  0.00    -0.422 OA
ATOM     10  C   UNL     1       4.897   4.873  -0.019  0.00  0.00    +0.341 A 
ATOM     11  O   UNL     1       5.286   6.027  -0.017  0.00  0.00    -0.245 OA
ATOM     12  C   UNL     1       5.846   3.829  -0.034  0.00  0.00    +0.049 A 
ATOM     13  O   UNL     1      -0.016   1.339   0.009  0.00  0.00    -0.459 OA
ATOM     14  C   UNL     1       0.002  -0.004   0.002  0.00  0.00    +0.111 A 
ATOM     15  C   UNL     1       1.278  -0.450  -0.013  0.00  0.00    +0.031 A 
ATOM     16  C   UNL     1      -1.221  -0.884   0.009  0.00  0.00    +0.087 C 
ENDROOT
BRANCH  15  17
ATOM     17  C   UNL     1       1.730  -1.862  -0.024  0.00  0.00    -0.014 A 
ATOM     18  C   UNL     1       2.444  -2.377   1.057  0.00  0.00    +0.008 A 
ATOM     19  C   UNL     1       2.858  -3.693   1.043  0.00  0.00    +0.001 A 
ATOM     20  C   UNL     1       2.576  -4.498  -0.046  0.00  0.00    +0.000 A 
ATOM     21  C   UNL     1       1.872  -3.992  -1.123  0.00  0.00    +0.001 A 
ATOM     22  C   UNL     1       1.448  -2.678  -1.119  0.00  0.00    +0.008 A 
ENDBRANCH  15  17
BRANCH  12  23
ATOM     23  C   UNL     1       7.319   4.147  -0.047  0.00  0.00    +0.138 C 
BRANCH  23  24
ATOM     24  C   UNL     1       7.796   4.260  -1.473  0.00  0.00    +0.218 C 
ATOM     25  O   UNL     1       7.016   4.099  -2.387  0.00  0.00    -0.275 OA
ATOM     26  N   UNL     1       9.088   4.541  -1.731  0.00  0.00    -0.302 N 
ATOM     27  H   UNL     1       9.712   4.670  -0.999  0.00  0.00    +0.150 HD
BRANCH  26  28
ATOM     28  CA  UNL     1       9.552   4.651  -3.116  0.00  0.00    +0.186 C 
BRANCH  28  29
ATOM     29  C   UNL     1       9.894   3.281  -3.642  0.00  0.00    +0.376 C 
ATOM     30  O   UNL     1       9.765   2.312  -2.932  0.00  0.00    -0.244 OA
ATOM     31  OXT UNL     1      10.343   3.137  -4.898  0.00  0.00    -0.244 OA
ENDBRANCH  28  29
BRANCH  28  32
ATOM     32  C   UNL     1      10.794   5.543  -3.169  0.00  0.00    +0.035 C 
BRANCH  32  33
ATOM     33  C   UNL     1      10.417   6.967  -2.754  0.00  0.00    +0.021 C 
BRANCH  33  34
ATOM     34  C   UNL     1      11.659   7.859  -2.807  0.00  0.00    +0.106 C 
BRANCH  34  35
ATOM     35  N   UNL     1      11.299   9.222  -2.409  0.00  0.00    -0.300 N 
ATOM     36  C   UNL     1      12.240  10.187  -2.381  0.00  0.00    +0.297 C 
ATOM     37  O   UNL     1      13.387   9.926  -2.686  0.00  0.00    -0.253 OA
ATOM     38  N   UNL     1      11.908  11.441  -2.015  0.00  0.00    -0.313 N 
ATOM     39  H   UNL     1      10.383   9.430  -2.166  0.00  0.00    +0.150 HD
ATOM     40  H   UNL     1      10.992  11.649  -1.772  0.00  0.00    +0.146 HD
ATOM     41  H   UNL     1      12.585  12.135  -1.995  0.00  0.00    +0.146 HD
ENDBRANCH  34  35
ENDBRANCH  33  34
ENDBRANCH  32  33
ENDBRANCH  28  32
ENDBRANCH  26  28
ENDBRANCH  23  24
ENDBRANCH  12  23
TORSDOF 9
