REMARK  Name = ZINC20465253
REMARK  8 active torsions:
REMARK  status: ('A' for Active; 'I' for Inactive)
REMARK    1  A    between atoms: N_9  and  C_11
REMARK    2  A    between atoms: C_13  and  C_23
REMARK    3  A    between atoms: C_16  and  C_21
REMARK    4  A    between atoms: C_18  and  O_20
REMARK    5  A    between atoms: C_21  and  O_22
REMARK    6  A    between atoms: C_23  and  N_24
REMARK    7  A    between atoms: N_24  and  C_25
REMARK    8  A    between atoms: C_25  and  C_26
REMARK                            x       y       z     vdW  Elec       q    Type
REMARK                         _______ _______ _______ _____ _____    ______ ____
ROOT
ATOM      1  C   UNL     1      -0.611   1.708  -1.145  0.00  0.00    -0.009 C 
ATOM      2  C   UNL     1       0.450   2.427  -2.007  0.00  0.00    +0.091 C 
ATOM      3  O   UNL     1       1.464   2.849  -1.069  0.00  0.00    -0.372 OA
ATOM      4  C   UNL     1       1.611   1.747  -0.147  0.00  0.00    +0.171 C 
ATOM      5  C   UNL     1       0.170   1.251   0.107  0.00  0.00    +0.134 C 
ENDROOT
BRANCH   1  14
ATOM      6  C   UNL     1      -4.201   6.678   0.788  0.00  0.00    +0.000 A 
ATOM      7  C   UNL     1      -2.982   6.730   1.438  0.00  0.00    +0.000 A 
ATOM      8  C   UNL     1      -2.007   5.797   1.145  0.00  0.00    +0.002 A 
ATOM      9  C   UNL     1      -2.243   4.808   0.202  0.00  0.00    -0.061 A 
ATOM     10  C   UNL     1      -3.460   4.754  -0.443  0.00  0.00    -0.048 A 
ATOM     11  C   UNL     1      -4.438   5.692  -0.149  0.00  0.00    +0.004 A 
ATOM     12  C   UNL     1      -3.765   3.695  -1.470  0.00  0.00    +0.017 C 
ATOM     13  C   UNL     1      -2.467   3.043  -1.949  0.00  0.00    -0.073 C 
ATOM     14  N   UNL     1      -1.685   2.638  -0.770  0.00  0.00    +0.388 N 
ATOM     15  C   UNL     1      -1.145   3.818  -0.089  0.00  0.00    -0.042 C 
ATOM     16  H   UNL     1      -2.352   2.112  -0.071  0.00  0.00    -0.081 HD
ENDBRANCH   1  14
BRANCH   5  17
ATOM     17  O   UNL     1      -0.367   1.855   1.285  0.00  0.00    -0.391 OA
ATOM     18  H   UNL     1       0.075   1.635   2.268  0.00  0.00    +0.210 HD
ENDBRANCH   5  17
BRANCH   4  19
ATOM     19  C   UNL     1       2.247   2.227   1.159  0.00  0.00    +0.190 C 
BRANCH  19  20
ATOM     20  O   UNL     1       3.614   2.572   0.925  0.00  0.00    -0.392 OA
ATOM     21  H   UNL     1       4.238   2.940   1.752  0.00  0.00    +0.210 HD
ENDBRANCH  19  20
ENDBRANCH   4  19
BRANCH   2  22
ATOM     22  C   UNL     1      -0.164   3.640  -2.709  0.00  0.00    -0.052 C 
BRANCH  22  23
ATOM     23  N   UNL     1       0.904   4.445  -3.319  0.00  0.00    +0.383 N 
ATOM     24  H   UNL     1       1.598   4.786  -2.537  0.00  0.00    -0.085 HD
ATOM     25  H   UNL     1       1.450   3.834  -4.053  0.00  0.00    -0.085 HD
BRANCH  23  26
ATOM     26  C   UNL     1       0.351   5.621  -4.003  0.00  0.00    -0.047 C 
BRANCH  26  27
ATOM     27  C   UNL     1       1.472   6.420  -4.615  0.00  0.00    -0.063 A 
ATOM     28  C   UNL     1       1.888   6.152  -5.906  0.00  0.00    +0.002 A 
ATOM     29  C   UNL     1       2.917   6.885  -6.467  0.00  0.00    +0.002 A 
ATOM     30  C   UNL     1       3.531   7.886  -5.738  0.00  0.00    +0.020 A 
ATOM     31  C   UNL     1       3.115   8.155  -4.446  0.00  0.00    +0.041 A 
ATOM     32  C   UNL     1       2.082   7.425  -3.887  0.00  0.00    +0.021 A 
ATOM     33 CL   UNL     1       3.886   9.412  -3.530  0.00  0.00    -0.084 Cl
ENDBRANCH  26  27
ENDBRANCH  23  26
ENDBRANCH  22  23
ENDBRANCH   2  22
TORSDOF 8
