REMARK  Name = ZINC01571688
REMARK  1 active torsions:
REMARK  status: ('A' for Active; 'I' for Inactive)
REMARK    1  A    between atoms: N_8  and  C_11
REMARK                            x       y       z     vdW  Elec       q    Type
REMARK                         _______ _______ _______ _____ _____    ______ ____
ROOT
ATOM      1  C   UNL     1      -1.415   2.039   3.475  0.00  0.00    +0.000 A 
ATOM      2  C   UNL     1      -2.495   2.772   3.016  0.00  0.00    +0.001 A 
ATOM      3  C   UNL     1      -2.713   2.919   1.662  0.00  0.00    +0.013 A 
ATOM      4  C   UNL     1      -1.838   2.325   0.750  0.00  0.00    +0.042 A 
ATOM      5  C   UNL     1      -0.749   1.587   1.225  0.00  0.00    -0.018 A 
ATOM      6  C   UNL     1      -0.543   1.447   2.577  0.00  0.00    +0.006 A 
ATOM      7  C   UNL     1      -0.013   1.086   0.008  0.00  0.00    +0.147 C 
ATOM      8  N   UNL     1      -0.752   1.587  -1.157  0.00  0.00    -0.254 N 
ATOM      9  C   UNL     1      -1.805   2.301  -0.725  0.00  0.00    +0.250 C 
ATOM     10  O   UNL     1      -2.615   2.850  -1.447  0.00  0.00    -0.270 OA
ENDROOT
BRANCH   8  11
ATOM     11  C   UNL     1      -0.400   1.346  -2.558  0.00  0.00    +0.301 C 
ATOM     12  C   UNL     1      -1.526   0.627  -3.258  0.00  0.00    +0.025 A 
ATOM     13  C   UNL     1      -2.842   0.944  -3.502  0.00  0.00    +0.010 A 
ATOM     14  C   UNL     1      -3.651   0.055  -4.190  0.00  0.00    +0.000 A 
ATOM     15  C   UNL     1      -3.139  -1.153  -4.633  0.00  0.00    +0.001 A 
ATOM     16  C   UNL     1      -1.821  -1.480  -4.394  0.00  0.00    +0.015 A 
ATOM     17  C   UNL     1      -0.999  -0.589  -3.702  0.00  0.00    +0.067 A 
ATOM     18  C   UNL     1       0.418  -0.647  -3.299  0.00  0.00    +0.342 C 
ATOM     19  O   UNL     1       1.169  -1.574  -3.530  0.00  0.00    -0.245 OA
ATOM     20  O   UNL     1       0.759   0.472  -2.639  0.00  0.00    -0.435 OA
ENDBRANCH   8  11
TORSDOF 1
