REMARK  Name = ZINC09168725
REMARK  5 active torsions:
REMARK  status: ('A' for Active; 'I' for Inactive)
REMARK    1  A    between atoms: C_1  and  C_2
REMARK    2  A    between atoms: C_2  and  C_28
REMARK    3  A    between atoms: C_7  and  N_14
REMARK    4  A    between atoms: N_14  and  S_15
REMARK    5  A    between atoms: S_15  and  C_18
REMARK                            x       y       z     vdW  Elec       q    Type
REMARK                         _______ _______ _______ _____ _____    ______ ____
ROOT
ATOM      1  C   UNL     1      -4.085   2.866   3.101  0.00  0.00    +0.024 C 
ATOM      2  C   UNL     1      -2.974   2.453   2.133  0.00  0.00    +0.076 C 
ATOM      3  C   UNL     1      -3.050   0.948   1.888  0.00  0.00    +0.244 C 
ATOM      4  O   UNL     1      -2.288   0.591   0.738  0.00  0.00    -0.489 OA
ATOM      5  C   UNL     1      -1.060   1.160   0.604  0.00  0.00    +0.143 A 
ATOM      6  C   UNL     1       0.084   0.426   0.861  0.00  0.00    +0.072 A 
ATOM      7  C   UNL     1       1.332   1.019   0.724  0.00  0.00    +0.052 A 
ATOM      8  C   UNL     1       1.432   2.349   0.334  0.00  0.00    +0.026 A 
ATOM      9  C   UNL     1       0.290   3.085   0.081  0.00  0.00    +0.029 A 
ATOM     10  C   UNL     1      -0.956   2.495   0.216  0.00  0.00    +0.076 A 
ATOM     11  N   UNL     1      -2.124   3.229  -0.045  0.00  0.00    -0.282 N 
ATOM     12  C   UNL     1      -3.140   3.198   0.834  0.00  0.00    +0.226 C 
ATOM     13  O   UNL     1      -4.181   3.771   0.589  0.00  0.00    -0.275 OA
ATOM     14  C   UNL     1      -1.615   2.800   2.744  0.00  0.00    +0.024 C 
ATOM     15  H   UNL     1      -2.205   3.748  -0.860  0.00  0.00    +0.155 HD
ENDROOT
BRANCH   7  16
ATOM     16  N   UNL     1       2.490   0.277   0.978  0.00  0.00    -0.216 N 
ATOM     17  H   UNL     1       2.550  -0.271   1.776  0.00  0.00    +0.174 HD
BRANCH  16  18
ATOM     18  S   UNL     1       3.759   0.333  -0.085  0.00  0.00    +0.072 S 
ATOM     19  O   UNL     1       4.060   1.707  -0.286  0.00  0.00    -0.150 OA
ATOM     20  O   UNL     1       4.725  -0.597   0.387  0.00  0.00    -0.150 OA
BRANCH  18  21
ATOM     21  C   UNL     1       3.175  -0.287  -1.627  0.00  0.00    +0.109 A 
ATOM     22  C   UNL     1       3.173  -1.661  -1.859  0.00  0.00    +0.029 A 
ATOM     23  C   UNL     1       2.723  -2.173  -3.037  0.00  0.00    +0.010 A 
ATOM     24  C   UNL     1       2.264  -1.304  -4.042  0.00  0.00    -0.018 A 
ATOM     25  C   UNL     1       1.799  -1.795  -5.274  0.00  0.00    +0.008 A 
ATOM     26  C   UNL     1       1.362  -0.924  -6.224  0.00  0.00    +0.001 A 
ATOM     27  C   UNL     1       1.369   0.451  -5.995  0.00  0.00    +0.001 A 
ATOM     28  C   UNL     1       1.813   0.962  -4.814  0.00  0.00    +0.008 A 
ATOM     29  C   UNL     1       2.272   0.094  -3.809  0.00  0.00    -0.016 A 
ATOM     30  C   UNL     1       2.738   0.584  -2.577  0.00  0.00    +0.037 A 
ENDBRANCH  18  21
ENDBRANCH  16  18
ENDBRANCH   7  16
TORSDOF 3
