REMARK  Name = ZINC40662302
REMARK  6 active torsions:
REMARK  status: ('A' for Active; 'I' for Inactive)
REMARK    1  A    between atoms: C_1  and  N_2
REMARK    2  A    between atoms: N_2  and  C_3
REMARK    3  A    between atoms: C_3  and  C_4
REMARK    4  A    between atoms: C_11  and  N_27
REMARK    5  A    between atoms: C_12  and  N_16
REMARK    6  A    between atoms: N_16  and  C_17
REMARK                            x       y       z     vdW  Elec       q    Type
REMARK                         _______ _______ _______ _____ _____    ______ ____
ROOT
ATOM      1  C   UNL     1      -1.320   0.367   0.610  0.00  0.00    +0.131 C 
ATOM      2  N   UNL     1      -0.040  -0.003   0.001  0.00  0.00    -0.312 N 
ATOM      3  C   UNL     1      -0.017  -0.781  -1.151  0.00  0.00    +0.147 A 
ATOM      4  C   UNL     1       0.043  -0.182  -2.410  0.00  0.00    +0.105 A 
ATOM      5  C   UNL     1       0.064  -1.010  -3.534  0.00  0.00    +0.145 A 
ATOM      6  N   UNL     1       0.026  -2.329  -3.363  0.00  0.00    -0.219 NA
ATOM      7  C   UNL     1      -0.030  -2.854  -2.156  0.00  0.00    +0.225 A 
ATOM      8  N   UNL     1      -0.047  -2.109  -1.069  0.00  0.00    -0.219 NA
ENDROOT
BRANCH   4   9
ATOM      9  N   UNL     1       0.081   1.216  -2.543  0.00  0.00    -0.353 N 
ATOM     10  H   UNL     1       0.153   1.776  -1.754  0.00  0.00    +0.143 HD
ATOM     11  H   UNL     1       0.034   1.621  -3.423  0.00  0.00    +0.143 HD
ENDBRANCH   4   9
BRANCH   5  12
ATOM     12  N   UNL     1       0.123  -0.464  -4.811  0.00  0.00    -0.322 N 
ATOM     13  H   UNL     1       0.150   0.498  -4.926  0.00  0.00    +0.148 HD
BRANCH  12  14
ATOM     14  C   UNL     1       0.144  -1.344  -5.982  0.00  0.00    +0.034 C 
ATOM     15  C   UNL     1      -1.125  -2.197  -6.003  0.00  0.00    +0.029 C 
ATOM     16  C   UNL     1      -1.103  -3.116  -7.226  0.00  0.00    -0.008 C 
ATOM     17  C   UNL     1      -1.037  -2.269  -8.498  0.00  0.00    +0.007 C 
ATOM     18  C   UNL     1       0.233  -1.415  -8.478  0.00  0.00    -0.008 C 
ATOM     19  C   UNL     1       0.210  -0.497  -7.255  0.00  0.00    +0.029 C 
ATOM     20  C   UNL     1       1.459  -2.328  -8.408  0.00  0.00    +0.007 C 
ATOM     21  C   UNL     1       1.393  -3.175  -7.136  0.00  0.00    -0.008 C 
ATOM     22  C   UNL     1       0.123  -4.028  -7.157  0.00  0.00    +0.007 C 
ATOM     23  C   UNL     1       1.371  -2.256  -5.912  0.00  0.00    +0.029 C 
ENDBRANCH  12  14
ENDBRANCH   5  12
BRANCH   2  24
ATOM     24  C   UNL     1       1.216   0.447   0.606  0.00  0.00    +0.141 C 
BRANCH  24  25
ATOM     25  C   UNL     1       1.685  -0.575   1.609  0.00  0.00    -0.030 A 
ATOM     26  C   UNL     1       1.280  -0.486   2.928  0.00  0.00    +0.005 A 
ATOM     27  C   UNL     1       1.710  -1.423   3.848  0.00  0.00    +0.000 A 
ATOM     28  C   UNL     1       2.544  -2.451   3.449  0.00  0.00    +0.000 A 
ATOM     29  C   UNL     1       2.948  -2.541   2.131  0.00  0.00    +0.000 A 
ATOM     30  C   UNL     1       2.515  -1.606   1.209  0.00  0.00    +0.005 A 
ENDBRANCH  24  25
ENDBRANCH   2  24
TORSDOF 5
