REMARK  Name = ZINC00874452
REMARK  13 active torsions:
REMARK  status: ('A' for Active; 'I' for Inactive)
REMARK    1  A    between atoms: C_1  and  C_2
REMARK    2  A    between atoms: C_5  and  N_9
REMARK    3  A    between atoms: C_6  and  C_8
REMARK    4  A    between atoms: C_10  and  C_12
REMARK    5  A    between atoms: C_12  and  S_13
REMARK    6  A    between atoms: S_13  and  C_14
REMARK    7  A    between atoms: C_15  and  C_39
REMARK    8  A    between atoms: C_16  and  C_33
REMARK    9  A    between atoms: C_18  and  C_22
REMARK   10  A    between atoms: C_19  and  C_21
REMARK   11  A    between atoms: N_24  and  C_25
REMARK   12  A    between atoms: C_30  and  O_31
REMARK   13  A    between atoms: O_31  and  C_32
REMARK                            x       y       z     vdW  Elec       q    Type
REMARK                         _______ _______ _______ _____ _____    ______ ____
ROOT
ATOM      1  C   UNL     1      -0.279  -8.695  -2.797  0.00  0.00    +0.080 C 
ATOM      2  C   UNL     1      -0.336  -9.503  -3.889  0.00  0.00    +0.069 C 
ATOM      3  C   UNL     1      -0.425 -10.997  -3.750  0.00  0.00    +0.098 C 
ATOM      4  C   UNL     1      -0.828 -11.380  -2.356  0.00  0.00    +0.044 C 
ATOM      5  C   UNL     1      -0.753 -10.512  -1.335  0.00  0.00    +0.014 C 
ATOM      6  N   UNL     1      -0.304  -9.232  -1.529  0.00  0.00    -0.312 N 
ATOM      7  C   UNL     1      -1.162 -10.954   0.047  0.00  0.00    +0.061 C 
ATOM      8  H   UNL     1      -0.008  -8.701  -0.773  0.00  0.00    +0.152 HD
ENDROOT
BRANCH   3   9
ATOM      9  C   UNL     1       0.918 -11.605  -4.063  0.00  0.00    -0.035 A 
ATOM     10  C   UNL     1       2.023 -11.265  -3.305  0.00  0.00    +0.004 A 
ATOM     11  C   UNL     1       3.255 -11.823  -3.592  0.00  0.00    +0.000 A 
ATOM     12  C   UNL     1       3.382 -12.721  -4.636  0.00  0.00    +0.000 A 
ATOM     13  C   UNL     1       2.276 -13.061  -5.392  0.00  0.00    +0.000 A 
ATOM     14  C   UNL     1       1.043 -12.506  -5.103  0.00  0.00    +0.004 A 
ENDBRANCH   3   9
BRANCH   4  15
ATOM     15  C   UNL     1      -1.300 -12.693  -2.111  0.00  0.00    +0.247 C 
ATOM     16  O   UNL     1      -2.394 -13.033  -2.522  0.00  0.00    -0.270 OA
ATOM     17  N   UNL     1      -0.537 -13.566  -1.423  0.00  0.00    -0.279 N 
ATOM     18  H   UNL     1       0.296 -13.271  -1.023  0.00  0.00    +0.155 HD
BRANCH  17  19
ATOM     19  C   UNL     1      -0.948 -14.897  -1.285  0.00  0.00    +0.076 A 
ATOM     20  C   UNL     1      -1.649 -15.519  -2.308  0.00  0.00    +0.027 A 
ATOM     21  C   UNL     1      -2.053 -16.833  -2.170  0.00  0.00    +0.002 A 
ATOM     22  C   UNL     1      -1.761 -17.531  -1.013  0.00  0.00    +0.004 A 
ATOM     23  C   UNL     1      -1.064 -16.919   0.012  0.00  0.00    +0.047 A 
ATOM     24  C   UNL     1      -0.650 -15.603  -0.121  0.00  0.00    +0.141 A 
BRANCH  24  25
ATOM     25  O   UNL     1       0.040 -15.001   0.883  0.00  0.00    -0.493 OA
ATOM     26  C   UNL     1       0.310 -15.786   2.047  0.00  0.00    +0.277 C 
ENDBRANCH  24  25
ENDBRANCH  17  19
ENDBRANCH   4  15
BRANCH   2  27
ATOM     27  C   UNL     1      -0.311  -8.920  -5.197  0.00  0.00    +0.098 C 
ATOM     28  N   UNL     1      -0.291  -8.457  -6.234  0.00  0.00    -0.191 NA
ENDBRANCH   2  27
BRANCH   1  29
ATOM     29  S   UNL     1      -0.164  -6.950  -3.005  0.00  0.00    -0.100 S 
BRANCH  29  30
ATOM     30  C   UNL     1      -0.107  -6.308  -1.309  0.00  0.00    +0.171 C 
BRANCH  30  32
ATOM     31  N   UNL     1       0.049  -4.106  -0.193  0.00  0.00    -0.285 N 
ATOM     32  C   UNL     1      -0.007  -4.805  -1.344  0.00  0.00    +0.227 C 
ATOM     33  O   UNL     1       0.023  -4.223  -2.408  0.00  0.00    -0.275 OA
ATOM     34  H   UNL     1       0.086  -4.573   0.656  0.00  0.00    +0.155 HD
BRANCH  31  39
ATOM     35  C   UNL     1       0.066   1.566  -0.315  0.00  0.00    +0.044 C 
ATOM     36  C   UNL     1       0.061   0.059  -0.283  0.00  0.00    -0.050 A 
ATOM     37  C   UNL     1       0.693  -0.655  -1.285  0.00  0.00    +0.005 A 
ATOM     38  C   UNL     1       0.691  -2.035  -1.258  0.00  0.00    +0.024 A 
ATOM     39  C   UNL     1       0.053  -2.707  -0.223  0.00  0.00    +0.036 A 
ATOM     40  C   UNL     1      -0.580  -1.988   0.782  0.00  0.00    -0.029 A 
ATOM     41  C   UNL     1      -0.570  -0.607   0.752  0.00  0.00    +0.008 A 
ATOM     42  C   UNL     1      -1.272  -2.713   1.907  0.00  0.00    +0.045 C 
ENDBRANCH  31  39
ENDBRANCH  30  32
ENDBRANCH  29  30
ENDBRANCH   1  29
TORSDOF 9
