REMARK  Name = ZINC12137143
REMARK  12 active torsions:
REMARK  status: ('A' for Active; 'I' for Inactive)
REMARK    1  A    between atoms: C_1  and  C_2
REMARK    2  A    between atoms: C_2  and  C_4
REMARK    3  A    between atoms: C_2  and  O_23
REMARK    4  A    between atoms: N_6  and  N_7
REMARK    5  A    between atoms: C_8  and  C_10
REMARK    6  A    between atoms: C_13  and  N_16
REMARK    7  A    between atoms: C_17  and  C_19
REMARK    8  A    between atoms: C_19  and  C_20
REMARK    9  A    between atoms: C_20  and  C_21
REMARK   10  A    between atoms: C_20  and  C_22
REMARK   11  A    between atoms: O_23  and  C_24
REMARK   12  A    between atoms: C_27  and  C_30
REMARK                            x       y       z     vdW  Elec       q    Type
REMARK                         _______ _______ _______ _____ _____    ______ ____
ROOT
ATOM      1  C   UNL     1       0.318   0.041  -1.582  0.00  0.00    +0.270 C 
ATOM      2  O   UNL     1      -0.468  -0.017  -2.503  0.00  0.00    -0.270 OA
ATOM      3  N   UNL     1       1.640  -0.087  -1.815  0.00  0.00    -0.231 N 
ATOM      4  H   UNL     1       2.269  -0.041  -1.078  0.00  0.00    +0.173 HD
ENDROOT
BRANCH   3   5
ATOM      5  N   UNL     1       2.104  -0.288  -3.121  0.00  0.00    -0.230 N 
ATOM      6  C   UNL     1       3.426  -0.416  -3.354  0.00  0.00    +0.260 C 
ATOM      7  O   UNL     1       4.214  -0.358  -2.431  0.00  0.00    -0.269 OA
ATOM      8  H   UNL     1       1.475  -0.335  -3.858  0.00  0.00    +0.173 HD
BRANCH   6   9
ATOM      9  C   UNL     1       3.915  -0.627  -4.731  0.00  0.00    +0.038 A 
ATOM     10  C   UNL     1       3.011  -0.689  -5.794  0.00  0.00    +0.015 A 
ATOM     11  C   UNL     1       3.471  -0.886  -7.077  0.00  0.00    +0.024 A 
ATOM     12  C   UNL     1       4.835  -1.023  -7.314  0.00  0.00    +0.033 A 
ATOM     13  C   UNL     1       5.738  -0.963  -6.258  0.00  0.00    +0.024 A 
ATOM     14  C   UNL     1       5.285  -0.761  -4.974  0.00  0.00    +0.015 A 
BRANCH  12  15
ATOM     15  N   UNL     1       5.297  -1.222  -8.615  0.00  0.00    -0.285 N 
ATOM     16  C   UNL     1       4.590  -1.985  -9.472  0.00  0.00    +0.217 C 
ATOM     17  O   UNL     1       3.512  -2.430  -9.140  0.00  0.00    -0.275 OA
ATOM     18  H   UNL     1       6.128  -0.813  -8.902  0.00  0.00    +0.155 HD
BRANCH  16  19
ATOM     19  C   UNL     1       5.139  -2.283 -10.844  0.00  0.00    +0.099 C 
BRANCH  19  20
ATOM     20  C   UNL     1       4.147  -3.161 -11.610  0.00  0.00    -0.008 C 
ATOM     21  C   UNL     1       4.644  -3.361 -13.043  0.00  0.00    +0.008 C 
ATOM     22  C   UNL     1       4.028  -4.520 -10.917  0.00  0.00    +0.008 C 
ENDBRANCH  19  20
ENDBRANCH  16  19
ENDBRANCH  12  15
ENDBRANCH   6   9
ENDBRANCH   3   5
BRANCH   1  24
ATOM     23  C   UNL     1       0.319   1.607   0.341  0.00  0.00    +0.062 C 
ATOM     24  C   UNL     1      -0.181   0.257  -0.177  0.00  0.00    +0.257 C 
BRANCH  24  25
ATOM     25  O   UNL     1      -1.610   0.245  -0.173  0.00  0.00    -0.480 OA
BRANCH  25  26
ATOM     26  C   UNL     1      -2.221  -0.085   0.995  0.00  0.00    +0.122 A 
ATOM     27  C   UNL     1      -1.464  -0.275   2.143  0.00  0.00    +0.046 A 
ATOM     28  C   UNL     1      -2.081  -0.610   3.330  0.00  0.00    +0.012 A 
ATOM     29  C   UNL     1      -3.466  -0.757   3.377  0.00  0.00    -0.018 A 
ATOM     30  C   UNL     1      -4.224  -0.564   2.223  0.00  0.00    +0.012 A 
ATOM     31  C   UNL     1      -3.602  -0.225   1.040  0.00  0.00    +0.046 A 
BRANCH  29  32
ATOM     32  C   UNL     1      -4.133  -1.117   4.652  0.00  0.00    -0.018 A 
ATOM     33  C   UNL     1      -3.378  -1.305   5.808  0.00  0.00    +0.008 A 
ATOM     34  C   UNL     1      -4.003  -1.640   6.992  0.00  0.00    +0.001 A 
ATOM     35  C   UNL     1      -5.378  -1.790   7.032  0.00  0.00    +0.000 A 
ATOM     36  C   UNL     1      -6.133  -1.605   5.888  0.00  0.00    +0.001 A 
ATOM     37  C   UNL     1      -5.518  -1.264   4.700  0.00  0.00    +0.008 A 
ENDBRANCH  29  32
ENDBRANCH  25  26
ENDBRANCH  24  25
ENDBRANCH   1  24
TORSDOF 9
