REMARK  Name = ZINC61463990
REMARK  6 active torsions:
REMARK  status: ('A' for Active; 'I' for Inactive)
REMARK    1  A    between atoms: C_1  and  C_2
REMARK    2  A    between atoms: C_5  and  N_8
REMARK    3  A    between atoms: C_11  and  C_13
REMARK    4  A    between atoms: N_15  and  N_16
REMARK    5  A    between atoms: C_17  and  C_19
REMARK    6  A    between atoms: C_22  and  C_25
REMARK                            x       y       z     vdW  Elec       q    Type
REMARK                         _______ _______ _______ _____ _____    ______ ____
ROOT
ATOM      1  C   UNL     1      -0.842  -7.340  -1.378  0.00  0.00    +0.281 C 
ATOM      2  O   UNL     1      -0.573  -8.471  -1.022  0.00  0.00    -0.267 OA
ATOM      3  N   UNL     1      -1.610  -7.141  -2.468  0.00  0.00    -0.229 N 
ATOM      4  H   UNL     1      -1.825  -6.239  -2.752  0.00  0.00    +0.173 HD
ENDROOT
BRANCH   1   8
ATOM      5  N   UNL     1       0.057  -4.172  -0.021  0.00  0.00    -0.236 N 
ATOM      6  C   UNL     1       0.707  -4.948   0.888  0.00  0.00    +0.049 A 
ATOM      7  C   UNL     1       0.484  -6.234   0.540  0.00  0.00    +0.006 A 
ATOM      8  C   UNL     1      -0.328  -6.184  -0.617  0.00  0.00    +0.152 A 
ATOM      9  N   UNL     1      -0.542  -4.911  -0.884  0.00  0.00    -0.161 NA
ATOM     10  C   UNL     1       1.175  -7.169   1.502  0.00  0.00    +0.040 C 
ATOM     11  C   UNL     1       2.207  -6.290   2.243  0.00  0.00    +0.011 C 
ATOM     12  C   UNL     1       1.573  -4.885   2.126  0.00  0.00    +0.056 C 
BRANCH   5  17
ATOM     13  C   UNL     1      -0.018   1.503   0.010  0.00  0.00    +0.044 C 
ATOM     14  C   UNL     1       0.002  -0.004   0.002  0.00  0.00    -0.050 A 
ATOM     15  C   UNL     1       0.006  -0.687  -1.200  0.00  0.00    +0.005 A 
ATOM     16  C   UNL     1       0.024  -2.068  -1.211  0.00  0.00    +0.028 A 
ATOM     17  C   UNL     1       0.039  -2.771  -0.013  0.00  0.00    +0.066 A 
ATOM     18  C   UNL     1       0.036  -2.082   1.192  0.00  0.00    +0.028 A 
ATOM     19  C   UNL     1       0.023  -0.700   1.196  0.00  0.00    +0.005 A 
ENDBRANCH   5  17
ENDBRANCH   1   8
BRANCH   3  20
ATOM     20  N   UNL     1      -2.098  -8.238  -3.191  0.00  0.00    -0.230 N 
ATOM     21  C   UNL     1      -2.866  -8.039  -4.280  0.00  0.00    +0.260 C 
ATOM     22  O   UNL     1      -3.135  -6.909  -4.636  0.00  0.00    -0.269 OA
ATOM     23  H   UNL     1      -1.883  -9.140  -2.907  0.00  0.00    +0.173 HD
BRANCH  21  24
ATOM     24  C   UNL     1      -3.381  -9.197  -5.043  0.00  0.00    +0.038 A 
ATOM     25  C   UNL     1      -3.077 -10.496  -4.631  0.00  0.00    +0.014 A 
ATOM     26  C   UNL     1      -3.557 -11.574  -5.341  0.00  0.00    +0.019 A 
ATOM     27  C   UNL     1      -4.348 -11.368  -6.473  0.00  0.00    +0.052 A 
ATOM     28  C   UNL     1      -4.652 -10.069  -6.886  0.00  0.00    +0.019 A 
ATOM     29  C   UNL     1      -4.176  -8.991  -6.172  0.00  0.00    +0.014 A 
BRANCH  27  30
ATOM     30  C   UNL     1      -4.847 -12.489  -7.212  0.00  0.00    +0.099 C 
ATOM     31  N   UNL     1      -5.243 -13.378  -7.798  0.00  0.00    -0.191 NA
ENDBRANCH  27  30
ENDBRANCH  21  24
ENDBRANCH   3  20
TORSDOF 5
