REMARK  Name = ZINC00716435
REMARK  7 active torsions:
REMARK  status: ('A' for Active; 'I' for Inactive)
REMARK    1  A    between atoms: C_1  and  O_2
REMARK    2  A    between atoms: O_2  and  C_3
REMARK    3  A    between atoms: C_6  and  C_10
REMARK    4  A    between atoms: C_8  and  O_9
REMARK    5  A    between atoms: C_12  and  C_30
REMARK    6  A    between atoms: C_13  and  N_29
REMARK    7  A    between atoms: N_14  and  C_22
REMARK                            x       y       z     vdW  Elec       q    Type
REMARK                         _______ _______ _______ _____ _____    ______ ____
ROOT
ATOM      1  C   UNL     1      -3.178   4.122   0.116  0.00  0.00    +0.097 C 
ATOM      2  C   UNL     1      -2.858   3.554  -1.236  0.00  0.00    +0.077 C 
ATOM      3  C   UNL     1      -1.914   2.591  -1.385  0.00  0.00    +0.107 C 
ATOM      4  N   UNL     1      -1.242   2.103  -0.287  0.00  0.00    -0.259 N 
ATOM      5  C   UNL     1      -1.755   2.270   0.973  0.00  0.00    +0.025 C 
ATOM      6  C   UNL     1      -2.683   3.219   1.218  0.00  0.00    +0.025 C 
ATOM      7  C   UNL     1      -3.215   3.397   2.507  0.00  0.00    +0.162 C 
ATOM      8  O   UNL     1      -4.063   4.248   2.690  0.00  0.00    -0.292 OA
ATOM      9  C   UNL     1      -2.752   2.556   3.664  0.00  0.00    +0.080 C 
ATOM     10  C   UNL     1      -1.308   2.111   3.411  0.00  0.00    +0.014 C 
ATOM     11  C   UNL     1      -1.258   1.367   2.075  0.00  0.00    +0.052 C 
ENDROOT
BRANCH   4  12
ATOM     12  C   UNL     1      -0.024   1.435  -0.458  0.00  0.00    +0.058 A 
ATOM     13  C   UNL     1       1.170   2.143  -0.413  0.00  0.00    +0.025 A 
ATOM     14  C   UNL     1       2.371   1.480  -0.576  0.00  0.00    +0.002 A 
ATOM     15  C   UNL     1       2.386   0.113  -0.786  0.00  0.00    +0.002 A 
ATOM     16  C   UNL     1       1.199  -0.595  -0.832  0.00  0.00    +0.022 A 
ATOM     17  C   UNL     1      -0.006   0.061  -0.669  0.00  0.00    +0.063 A 
ATOM     18 CL   UNL     1      -1.495  -0.829  -0.726  0.00  0.00    -0.082 Cl
ENDBRANCH   4  12
BRANCH   1  22
ATOM     19  C   UNL     1      -1.308   7.949   0.498  0.00  0.00    +0.161 A 
ATOM     20  C   UNL     1      -0.535   6.809   0.344  0.00  0.00    +0.050 A 
ATOM     21  C   UNL     1      -1.143   5.573   0.220  0.00  0.00    +0.008 A 
ATOM     22  C   UNL     1      -2.521   5.471   0.251  0.00  0.00    -0.031 A 
ATOM     23  C   UNL     1      -3.298   6.605   0.399  0.00  0.00    +0.053 A 
ATOM     24  C   UNL     1      -2.696   7.846   0.528  0.00  0.00    +0.159 A 
BRANCH  19  26
ATOM     25  C   UNL     1       0.716   9.195   0.579  0.00  0.00    +0.277 C 
ATOM     26  O   UNL     1      -0.712   9.165   0.620  0.00  0.00    -0.491 OA
ENDBRANCH  19  26
BRANCH  24  27
ATOM     27  O   UNL     1      -3.459   8.961   0.680  0.00  0.00    -0.503 OA
ATOM     28  H   UNL     1      -3.706   9.385  -0.154  0.00  0.00    +0.292 HD
ENDBRANCH  24  27
ENDBRANCH   1  22
BRANCH   3  29
ATOM     29  N   UNL     1      -1.632   2.099  -2.637  0.00  0.00    -0.345 N 
ATOM     30  H   UNL     1      -0.960   1.408  -2.746  0.00  0.00    +0.144 HD
ATOM     31  H   UNL     1      -2.104   2.442  -3.411  0.00  0.00    +0.144 HD
ENDBRANCH   3  29
BRANCH   2  32
ATOM     32  C   UNL     1      -3.557   4.040  -2.387  0.00  0.00    +0.099 C 
ATOM     33  N   UNL     1      -4.112   4.425  -3.300  0.00  0.00    -0.191 NA
ENDBRANCH   2  32
TORSDOF 6
