REMARK  Name = ZINC39636097
REMARK  7 active torsions:
REMARK  status: ('A' for Active; 'I' for Inactive)
REMARK    1  A    between atoms: C_1  and  C_2
REMARK    2  A    between atoms: C_12  and  O_13
REMARK    3  A    between atoms: O_13  and  C_14
REMARK    4  A    between atoms: C_14  and  C_15
REMARK    5  A    between atoms: C_19  and  C_28
REMARK    6  A    between atoms: N_30  and  C_31
REMARK    7  A    between atoms: C_37  and  C_39
REMARK                            x       y       z     vdW  Elec       q    Type
REMARK                         _______ _______ _______ _____ _____    ______ ____
ROOT
ATOM      1  C   UNL     1       0.224  -6.170   3.550  0.00  0.00    +0.253 C 
ATOM      2  O   UNL     1       0.260  -6.502   2.384  0.00  0.00    -0.272 OA
ATOM      3  N   UNL     1       0.199  -7.107   4.518  0.00  0.00    -0.297 N 
ATOM      4  C   UNL     1       0.148  -6.898   5.984  0.00  0.00    +0.121 C 
ATOM      5  C   UNL     1      -0.808  -7.996   6.502  0.00  0.00    +0.100 C 
ATOM      6  C   UNL     1      -0.757  -9.098   5.430  0.00  0.00    -0.004 C 
ATOM      7  C   UNL     1       0.210  -8.581   4.356  0.00  0.00    +0.115 C 
ATOM      8  C   UNL     1      -2.142  -9.312   4.826  0.00  0.00    -0.010 C 
ATOM      9  C   UNL     1      -2.077 -10.451   3.804  0.00  0.00    -0.082 C 
ATOM     10  N   UNL     1      -1.615 -11.678   4.465  0.00  0.00    +0.379 N 
ATOM     11  C   UNL     1      -0.246 -11.493   4.962  0.00  0.00    -0.082 C 
ATOM     12  C   UNL     1      -0.233 -10.398   6.032  0.00  0.00    -0.010 C 
ATOM     13  H   UNL     1      -2.226 -11.892   5.238  0.00  0.00    -0.086 HD
ATOM     14  H   UNL     1      -1.631 -12.440   3.804  0.00  0.00    -0.086 HD
ENDROOT
BRANCH   5  15
ATOM     15  C   UNL     1      -2.208  -7.454   6.634  0.00  0.00    +0.218 C 
ATOM     16  O   UNL     1      -2.589  -6.573   5.892  0.00  0.00    -0.275 OA
ATOM     17  N   UNL     1      -3.036  -7.947   7.576  0.00  0.00    -0.312 N 
ATOM     18  H   UNL     1      -2.731  -8.651   8.169  0.00  0.00    +0.149 HD
BRANCH  17  19
ATOM     19  C   UNL     1      -4.396  -7.420   7.704  0.00  0.00    +0.076 C 
ATOM     20  C   UNL     1      -5.319  -8.145   6.723  0.00  0.00    +0.022 C 
ATOM     21  C   UNL     1      -6.740  -7.594   6.857  0.00  0.00    +0.002 C 
ATOM     22  C   UNL     1      -7.240  -7.815   8.286  0.00  0.00    +0.000 C 
ATOM     23  C   UNL     1      -6.318  -7.090   9.267  0.00  0.00    +0.005 C 
ATOM     24  C   UNL     1      -4.897  -7.641   9.133  0.00  0.00    +0.006 C 
ATOM     25  C   UNL     1      -3.974  -6.916  10.114  0.00  0.00    +0.009 C 
ENDBRANCH  17  19
ENDBRANCH   5  15
BRANCH   1  26
ATOM     26  C   UNL     1       0.207  -4.708   3.917  0.00  0.00    +0.324 C 
BRANCH  26  27
ATOM     27  O   UNL     1       0.239  -3.918   2.726  0.00  0.00    -0.479 OA
BRANCH  27  39
ATOM     28  C   UNL     1       0.268   2.025   0.897  0.00  0.00    +0.045 C 
ATOM     29  C   UNL     1       0.278   0.524   0.757  0.00  0.00    -0.033 A 
ATOM     30  C   UNL     1       0.318  -0.062  -0.466  0.00  0.00    +0.096 A 
ATOM     31  C   UNL     1       0.327  -1.470  -0.569  0.00  0.00    +0.338 A 
ATOM     32  O   UNL     1       0.363  -1.984  -1.673  0.00  0.00    -0.245 OA
ATOM     33  O   UNL     1       0.298  -2.256   0.518  0.00  0.00    -0.418 OA
ATOM     34  C   UNL     1       0.258  -1.736   1.764  0.00  0.00    +0.181 A 
ATOM     35  C   UNL     1       0.252  -0.342   1.940  0.00  0.00    +0.024 A 
ATOM     36  C   UNL     1       0.217   0.199   3.229  0.00  0.00    +0.012 A 
ATOM     37  C   UNL     1       0.193  -0.639   4.321  0.00  0.00    +0.004 A 
ATOM     38  C   UNL     1       0.204  -2.015   4.150  0.00  0.00    +0.049 A 
ATOM     39  C   UNL     1       0.229  -2.567   2.881  0.00  0.00    +0.164 A 
ENDBRANCH  27  39
ENDBRANCH  26  27
ENDBRANCH   1  26
TORSDOF 5
