REMARK  Name = ZINC39898210
REMARK  14 active torsions:
REMARK  status: ('A' for Active; 'I' for Inactive)
REMARK    1  A    between atoms: C_1  and  C_2
REMARK    2  A    between atoms: C_2  and  C_3
REMARK    3  A    between atoms: C_3  and  C_4
REMARK    4  A    between atoms: C_4  and  C_5
REMARK    5  A    between atoms: C_5  and  C_6
REMARK    6  A    between atoms: C_6  and  O_7
REMARK    7  A    between atoms: O_7  and  C_8
REMARK    8  A    between atoms: C_11  and  C_14
REMARK    9  A    between atoms: C_17  and  C_29
REMARK   10  A    between atoms: N_24  and  C_25
REMARK   11  A    between atoms: C_25  and  C_26
REMARK   12  A    between atoms: C_26  and  O_27
REMARK   13  A    between atoms: O_27  and  C_28
REMARK   14  A    between atoms: C_34  and  O_35
REMARK                            x       y       z     vdW  Elec       q    Type
REMARK                         _______ _______ _______ _____ _____    ______ ____
ROOT
ATOM      1  C   UNL     1       2.918  -9.697   4.329  0.00  0.00    +0.141 C 
ATOM      2  C   UNL     1       4.101 -10.418   3.743  0.00  0.00    +0.035 A 
ATOM      3  C   UNL     1       4.854 -10.717   2.602  0.00  0.00    +0.102 A 
ATOM      4  N   UNL     1       5.845 -11.502   2.978  0.00  0.00    -0.173 NA
ATOM      5  N   UNL     1       5.792 -11.728   4.242  0.00  0.00    -0.272 N 
ATOM      6  H   UNL     1       6.420 -12.278   4.737  0.00  0.00    +0.189 HD
ATOM      7  C   UNL     1       4.721 -11.078   4.787  0.00  0.00    +0.126 A 
ATOM      8  C   UNL     1       3.975 -10.804   6.020  0.00  0.00    +0.266 C 
ATOM      9  O   UNL     1       4.265 -11.240   7.118  0.00  0.00    -0.268 OA
ATOM     10  N   UNL     1       2.924 -10.003   5.765  0.00  0.00    -0.283 N 
ENDROOT
BRANCH   3  11
ATOM     11  C   UNL     1       4.587 -10.239   1.223  0.00  0.00    +0.045 A 
ATOM     12  C   UNL     1       3.431  -9.513   0.947  0.00  0.00    +0.033 A 
ATOM     13  C   UNL     1       3.186  -9.070  -0.339  0.00  0.00    +0.042 A 
ATOM     14  C   UNL     1       4.087  -9.346  -1.354  0.00  0.00    +0.023 A 
ATOM     15  C   UNL     1       5.236 -10.066  -1.089  0.00  0.00    +0.047 A 
ATOM     16  C   UNL     1       5.496 -10.510   0.198  0.00  0.00    +0.126 A 
ATOM     17 CL   UNL     1       1.745  -8.166  -0.683  0.00  0.00    -0.084 Cl
BRANCH  16  18
ATOM     18  O   UNL     1       6.629 -11.213   0.460  0.00  0.00    -0.506 OA
ATOM     19  H   UNL     1       6.532 -12.170   0.358  0.00  0.00    +0.292 HD
ENDBRANCH  16  18
ENDBRANCH   3  11
BRANCH   1  23
ATOM     20  C   UNL     1       3.313  -5.486   3.718  0.00  0.00    +0.121 A 
ATOM     21  C   UNL     1       4.169  -6.145   4.588  0.00  0.00    +0.046 A 
ATOM     22  C   UNL     1       4.039  -7.506   4.784  0.00  0.00    +0.009 A 
ATOM     23  C   UNL     1       3.057  -8.212   4.113  0.00  0.00    -0.022 A 
ATOM     24  C   UNL     1       2.203  -7.558   3.245  0.00  0.00    +0.009 A 
ATOM     25  C   UNL     1       2.325  -6.195   3.051  0.00  0.00    +0.046 A 
BRANCH  20  26
ATOM     26  O   UNL     1       3.438  -4.147   3.524  0.00  0.00    -0.492 OA
BRANCH  26  27
ATOM     27  C   UNL     1       4.477  -3.481   4.245  0.00  0.00    +0.229 C 
BRANCH  27  28
ATOM     28  C   UNL     1       4.463  -1.991   3.900  0.00  0.00    +0.041 C 
BRANCH  28  29
ATOM     29  C   UNL     1       5.576  -1.278   4.672  0.00  0.00    +0.003 C 
BRANCH  29  30
ATOM     30  C   UNL     1       5.562   0.212   4.327  0.00  0.00    -0.000 C 
BRANCH  30  32
ATOM     31  C   UNL     1       6.660   2.415   4.754  0.00  0.00    +0.004 C 
ATOM     32  C   UNL     1       6.675   0.925   5.098  0.00  0.00    -0.003 C 
ENDBRANCH  30  32
ENDBRANCH  29  30
ENDBRANCH  28  29
ENDBRANCH  27  28
ENDBRANCH  26  27
ENDBRANCH  20  26
ENDBRANCH   1  23
BRANCH  10  33
ATOM     33  C   UNL     1       1.954  -9.517   6.750  0.00  0.00    +0.137 C 
BRANCH  33  34
ATOM     34  C   UNL     1       0.790 -10.506   6.849  0.00  0.00    +0.178 C 
BRANCH  34  35
ATOM     35  O   UNL     1       1.266 -11.750   7.368  0.00  0.00    -0.381 OA
ATOM     36  C   UNL     1       0.253 -12.749   7.502  0.00  0.00    +0.194 C 
ENDBRANCH  34  35
ENDBRANCH  33  34
ENDBRANCH  10  33
TORSDOF 12
