REMARK  Name = ZINC42026368
REMARK  5 active torsions:
REMARK  status: ('A' for Active; 'I' for Inactive)
REMARK    1  A    between atoms: C_1  and  C_2
REMARK    2  A    between atoms: C_3  and  N_23
REMARK    3  A    between atoms: C_5  and  C_9
REMARK    4  A    between atoms: N_13  and  C_14
REMARK    5  A    between atoms: C_20  and  C_22
REMARK                            x       y       z     vdW  Elec       q    Type
REMARK                         _______ _______ _______ _____ _____    ______ ____
ROOT
ATOM      1  C   UNL     1      -0.148  -4.285   0.067  0.00  0.00    +0.182 A 
ATOM      2  N   UNL     1      -0.411  -5.057  -0.966  0.00  0.00    -0.108 NA
ATOM      3  N   UNL     1      -0.027  -6.261  -0.737  0.00  0.00    -0.023 NA
ATOM      4  N   UNL     1       0.500  -6.348   0.436  0.00  0.00    -0.043 NA
ATOM      5  N   UNL     1       0.448  -5.063   1.004  0.00  0.00    -0.222 N 
ENDROOT
BRANCH   1  10
ATOM      6  C   UNL     1      -1.291   1.345   0.523  0.00  0.00    +0.048 C 
ATOM      7  C   UNL     1      -0.992  -0.127   0.402  0.00  0.00    +0.005 A 
ATOM      8  C   UNL     1      -0.708  -0.677  -0.842  0.00  0.00    +0.031 A 
ATOM      9  C   UNL     1      -0.433  -2.032  -0.955  0.00  0.00    +0.034 A 
ATOM     10  C   UNL     1      -0.441  -2.838   0.181  0.00  0.00    +0.025 A 
ATOM     11  C   UNL     1      -0.726  -2.279   1.427  0.00  0.00    +0.050 A 
ATOM     12  C   UNL     1      -0.994  -0.926   1.532  0.00  0.00    +0.129 A 
ATOM     13  F   UNL     1      -1.264  -0.385   2.740  0.00  0.00    -0.205 F 
BRANCH   8  14
ATOM     14  N   UNL     1      -0.702   0.134  -1.979  0.00  0.00    -0.358 N 
ATOM     15  H   UNL     1      -0.895   1.081  -1.900  0.00  0.00    +0.142 HD
ATOM     16  H   UNL     1      -0.504  -0.250  -2.848  0.00  0.00    +0.142 HD
ENDBRANCH   8  14
ENDBRANCH   1  10
BRANCH   5  17
ATOM     17  C   UNL     1       0.930  -4.654   2.325  0.00  0.00    +0.114 C 
ATOM     18  C   UNL     1       0.080  -5.321   3.408  0.00  0.00    +0.027 C 
ATOM     19  C   UNL     1       0.187  -6.842   3.275  0.00  0.00    +0.002 C 
ATOM     20  C   UNL     1       1.647  -7.267   3.439  0.00  0.00    +0.000 C 
ATOM     21  C   UNL     1       2.498  -6.599   2.356  0.00  0.00    +0.005 C 
ATOM     22  C   UNL     1       2.391  -5.079   2.489  0.00  0.00    +0.011 C 
ATOM     23  C   UNL     1       3.241  -4.411   1.406  0.00  0.00    +0.009 C 
ENDBRANCH   5  17
TORSDOF 3
