REMARK  Name = ZINC04866132
REMARK  8 active torsions:
REMARK  status: ('A' for Active; 'I' for Inactive)
REMARK    1  A    between atoms: C_1  and  C_2
REMARK    2  A    between atoms: C_5  and  O_8
REMARK    3  A    between atoms: O_8  and  C_9
REMARK    4  A    between atoms: C_9  and  C_10
REMARK    5  A    between atoms: C_22  and  C_27
REMARK    6  A    between atoms: C_22  and  C_28
REMARK    7  A    between atoms: C_23  and  C_25
REMARK    8  A    between atoms: C_23  and  C_26
REMARK                            x       y       z     vdW  Elec       q    Type
REMARK                         _______ _______ _______ _____ _____    ______ ____
ROOT
ATOM      1  C   UNL     1       1.460   1.970  -0.001  0.00  0.00    +0.189 A 
ATOM      2  N   UNL     1       2.131   2.228  -1.167  0.00  0.00    -0.207 NA
ATOM      3  C   UNL     1       3.391   2.578  -0.741  0.00  0.00    +0.168 A 
ATOM      4  C   UNL     1       4.571   2.939  -1.519  0.00  0.00    +0.055 A 
ATOM      5  C   UNL     1       4.759   3.006  -2.954  0.00  0.00    -0.027 A 
ATOM      6  C   UNL     1       5.922   3.434  -3.443  0.00  0.00    -0.016 A 
ATOM      7  S   UNL     1       6.910   3.705  -1.937  0.00  0.00    -0.075 S 
ATOM      8  C   UNL     1       5.682   3.268  -0.789  0.00  0.00    +0.114 A 
ATOM      9  N   UNL     1       5.638   3.251   0.592  0.00  0.00    -0.228 NA
ATOM     10  C   UNL     1       4.568   2.842   1.166  0.00  0.00    +0.226 A 
ATOM     11  N   UNL     1       3.477   2.528   0.602  0.00  0.00    -0.201 N 
ATOM     12  N   UNL     1       2.219   2.105   1.039  0.00  0.00    -0.145 NA
ATOM     13  C   UNL     1       6.367   3.602  -4.846  0.00  0.00    -0.041 C 
ATOM     14  C   UNL     1       3.941   3.571  -5.301  0.00  0.00    -0.069 C 
ATOM     15  C   UNL     1       3.652   2.785  -4.000  0.00  0.00    +0.024 C 
ATOM     16  C   UNL     1       2.862   3.122  -6.382  0.00  0.00    -0.010 C 
ATOM     17  C   UNL     1       3.655   5.091  -4.976  0.00  0.00    -0.010 C 
ATOM     18  C   UNL     1       7.462   2.481  -5.138  0.00  0.00    -0.005 C 
ATOM     19  C   UNL     1       6.954   4.933  -5.107  0.00  0.00    -0.005 C 
ATOM     20  N   UNL     1       5.285   3.303  -5.803  0.00  0.00    +0.389 N 
ATOM     21  H   UNL     1       5.341   2.308  -6.051  0.00  0.00    -0.084 HD
ATOM     22  H   UNL     1       5.433   3.874  -6.643  0.00  0.00    -0.084 HD
ENDROOT
BRANCH   1  23
ATOM     23  C   UNL     1      -0.017   1.425   0.010  0.00  0.00    +0.306 C 
BRANCH  23  24
ATOM     24  O   UNL     1       0.002  -0.004   0.002  0.00  0.00    -0.484 OA
BRANCH  24  29
ATOM     25  C   UNL     1      -4.981  -2.629   0.035  0.00  0.00    +0.044 C 
ATOM     26  C   UNL     1      -3.648  -1.927   0.026  0.00  0.00    -0.050 A 
ATOM     27  C   UNL     1      -2.479  -2.665   0.011  0.00  0.00    +0.007 A 
ATOM     28  C   UNL     1      -1.255  -2.024   0.003  0.00  0.00    +0.046 A 
ATOM     29  C   UNL     1      -1.200  -0.637   0.010  0.00  0.00    +0.121 A 
ATOM     30  C   UNL     1      -2.374   0.101   0.031  0.00  0.00    +0.046 A 
ATOM     31  C   UNL     1      -3.595  -0.545   0.033  0.00  0.00    +0.007 A 
ENDBRANCH  24  29
ENDBRANCH  23  24
ENDBRANCH   1  23
TORSDOF 3
