REMARK  Name = ZINC13068919
REMARK  8 active torsions:
REMARK  status: ('A' for Active; 'I' for Inactive)
REMARK    1  A    between atoms: C_1  and  C_2
REMARK    2  A    between atoms: C_2  and  C_4
REMARK    3  A    between atoms: C_2  and  N_12
REMARK    4  A    between atoms: N_12  and  C_13
REMARK    5  A    between atoms: C_13  and  C_14
REMARK    6  A    between atoms: N_16  and  C_17
REMARK    7  A    between atoms: C_20  and  S_23
REMARK    8  A    between atoms: S_23  and  N_26
REMARK                            x       y       z     vdW  Elec       q    Type
REMARK                         _______ _______ _______ _____ _____    ______ ____
ROOT
ATOM      1  C   UNL     1       0.715  -1.612   5.831  0.00  0.00    +0.034 A 
ATOM      2  C   UNL     1       2.084  -1.803   5.689  0.00  0.00    +0.025 A 
ATOM      3  C   UNL     1       2.843  -2.181   6.779  0.00  0.00    +0.031 A 
ATOM      4  C   UNL     1       2.243  -2.369   8.010  0.00  0.00    +0.113 A 
ATOM      5  C   UNL     1       0.881  -2.180   8.155  0.00  0.00    +0.031 A 
ATOM      6  C   UNL     1       0.116  -1.796   7.070  0.00  0.00    +0.025 A 
ENDROOT
BRANCH   1   9
ATOM      7  C   UNL     1      -1.102  -0.395   4.896  0.00  0.00    +0.231 C 
ATOM      8  O   UNL     1      -1.425  -0.042   6.010  0.00  0.00    -0.274 OA
ATOM      9  N   UNL     1      -0.057  -1.229   4.729  0.00  0.00    -0.284 N 
ATOM     10  H   UNL     1       0.160  -1.565   3.845  0.00  0.00    +0.155 HD
BRANCH   7  11
ATOM     11  C   UNL     1      -1.870   0.100   3.697  0.00  0.00    +0.178 C 
BRANCH  11  12
ATOM     12  N   UNL     1      -2.952   0.989   4.141  0.00  0.00    -0.302 NA
ATOM     13  H   UNL     1      -2.590   1.750   4.696  0.00  0.00    +0.123 HD
BRANCH  12  15
ATOM     14  C   UNL     1      -4.802   0.473   2.622  0.00  0.00    +0.029 C 
ATOM     15  C   UNL     1      -3.724   1.491   2.997  0.00  0.00    +0.084 C 
BRANCH  15  16
ATOM     16  C   UNL     1      -4.374   2.800   3.366  0.00  0.00    +0.005 A 
ATOM     17  C   UNL     1      -4.542   3.137   4.696  0.00  0.00    +0.011 A 
ATOM     18  C   UNL     1      -5.138   4.337   5.035  0.00  0.00    +0.039 A 
ATOM     19  C   UNL     1      -5.569   5.202   4.043  0.00  0.00    +0.126 A 
ATOM     20  C   UNL     1      -5.401   4.865   2.712  0.00  0.00    +0.077 A 
ATOM     21  C   UNL     1      -4.798   3.666   2.372  0.00  0.00    +0.131 A 
ATOM     22  F   UNL     1      -4.629   3.339   1.073  0.00  0.00    -0.205 F 
ATOM     23  F   UNL     1      -6.152   6.374   4.376  0.00  0.00    -0.205 F 
ENDBRANCH  15  16
ENDBRANCH  12  15
ENDBRANCH  11  12
ENDBRANCH   7  11
ENDBRANCH   1   9
BRANCH   4  24
ATOM     24  S   UNL     1       3.216  -2.851   9.398  0.00  0.00    +0.100 S 
ATOM     25  O   UNL     1       2.333  -3.492  10.310  0.00  0.00    -0.146 OA
ATOM     26  O   UNL     1       4.373  -3.493   8.880  0.00  0.00    -0.146 OA
BRANCH  24  27
ATOM     27  N   UNL     1       3.735  -1.464  10.138  0.00  0.00    -0.118 NA
ATOM     28  C   UNL     1       4.476  -1.533  11.195  0.00  0.00    +0.117 C 
ATOM     29  C   UNL     1       4.879  -2.893  11.760  0.00  0.00    +0.073 C 
ATOM     30  C   UNL     1       6.364  -3.058  11.519  0.00  0.00    +0.008 C 
ATOM     31  C   UNL     1       7.230  -2.492  12.646  0.00  0.00    +0.002 C 
ATOM     32  C   UNL     1       6.741  -1.134  13.154  0.00  0.00    +0.019 C 
ATOM     33  C   UNL     1       6.327  -0.195  12.042  0.00  0.00    +0.102 C 
ATOM     34  N   UNL     1       4.891  -0.429  11.785  0.00  0.00    -0.331 N 
ATOM     35  H   UNL     1       4.244   0.240  12.058  0.00  0.00    +0.147 HD
ENDBRANCH  24  27
ENDBRANCH   4  24
TORSDOF 7
