REMARK  Name = ZINC37552412
REMARK  6 active torsions:
REMARK  status: ('A' for Active; 'I' for Inactive)
REMARK    1  A    between atoms: C_3  and  N_11
REMARK    2  A    between atoms: C_6  and  C_7
REMARK    3  A    between atoms: C_8  and  C_9
REMARK    4  A    between atoms: C_9  and  O_10
REMARK    5  A    between atoms: N_11  and  S_12
REMARK    6  A    between atoms: S_12  and  C_15
REMARK                            x       y       z     vdW  Elec       q    Type
REMARK                         _______ _______ _______ _____ _____    ______ ____
ROOT
ATOM      1  C   UNL     1      -0.017   1.392   0.010  0.00  0.00    +0.019 A 
ATOM      2  C   UNL     1       1.168   2.096   0.002  0.00  0.00    +0.028 A 
ATOM      3  C   UNL     1       2.381   1.417  -0.013  0.00  0.00    +0.074 A 
ATOM      4  C   UNL     1       2.403   0.027  -0.022  0.00  0.00    +0.028 A 
ATOM      5  C   UNL     1       1.222  -0.683  -0.014  0.00  0.00    +0.019 A 
ATOM      6  C   UNL     1       0.002  -0.004   0.002  0.00  0.00    +0.025 A 
ENDROOT
BRANCH   6   7
ATOM      7  C   UNL     1      -1.227  -0.738   0.010  0.00  0.00    -0.064 C 
ATOM      8  C   UNL     1      -2.235  -1.340   0.017  0.00  0.00    -0.069 C 
BRANCH   8   9
ATOM      9  C   UNL     1      -3.499  -2.095   0.026  0.00  0.00    +0.244 C 
BRANCH   9  10
ATOM     10  O   UNL     1      -3.217  -3.496   0.015  0.00  0.00    -0.383 OA
ATOM     11  H   UNL     1      -4.006  -4.056   0.020  0.00  0.00    +0.211 HD
ENDBRANCH   9  10
ENDBRANCH   8   9
ENDBRANCH   6   7
BRANCH   3  12
ATOM     12  N   UNL     1       3.579   2.132  -0.022  0.00  0.00    -0.098 NA
BRANCH  12  13
ATOM     13  S   UNL     1       5.025   1.326  -0.040  0.00  0.00    +0.094 S 
ATOM     14  O   UNL     1       5.124   0.640   1.200  0.00  0.00    -0.148 OA
ATOM     15  O   UNL     1       5.099   0.653  -1.290  0.00  0.00    -0.148 OA
BRANCH  13  16
ATOM     16  C   UNL     1       6.300   2.542  -0.046  0.00  0.00    +0.137 A 
ATOM     17  C   UNL     1       7.170   2.653   1.024  0.00  0.00    +0.058 A 
ATOM     18  C   UNL     1       8.140   3.600   0.986  0.00  0.00    +0.081 A 
ATOM     19  S   UNL     1       7.842   4.373  -0.595  0.00  0.00    -0.063 S 
ATOM     20  C   UNL     1       6.447   3.380  -1.103  0.00  0.00    +0.106 A 
ATOM     21 CL   UNL     1       5.520   3.465  -2.567  0.00  0.00    -0.074 Cl
ATOM     22 CL   UNL     1       9.357   3.965   2.169  0.00  0.00    -0.076 Cl
ENDBRANCH  13  16
ENDBRANCH  12  13
ENDBRANCH   3  12
TORSDOF 6
