REMARK  Name = ZINC28070273
REMARK  11 active torsions:
REMARK  status: ('A' for Active; 'I' for Inactive)
REMARK    1  A    between atoms: C_1  and  C_2
REMARK    2  A    between atoms: C_2  and  C_3
REMARK    3  A    between atoms: C_3  and  C_4
REMARK    4  A    between atoms: C_4  and  C_5
REMARK    5  A    between atoms: C_5  and  C_7
REMARK    6  A    between atoms: C_5  and  N_20
REMARK    7  A    between atoms: N_9  and  C_10
REMARK    8  A    between atoms: C_10  and  C_11
REMARK    9  A    between atoms: C_11  and  C_12
REMARK   10  A    between atoms: C_12  and  N_13
REMARK   11  A    between atoms: C_16  and  C_19
REMARK                            x       y       z     vdW  Elec       q    Type
REMARK                         _______ _______ _______ _____ _____    ______ ____
ROOT
ATOM      1  C   UNL     1       5.933   2.889  -0.035  0.00  0.00    +0.158 C 
ENDROOT
BRANCH   1   2
ATOM      2  N   UNL     1       4.825   1.932  -0.031  0.00  0.00    -0.316 N 
ATOM      3  C   UNL     1       3.524   2.384  -0.017  0.00  0.00    +0.150 C 
ATOM      4  N   UNL     1       3.272   3.654  -0.006  0.00  0.00    -0.113 NA
ATOM      5  S   UNL     1       1.604   3.790   0.009  0.00  0.00    +0.101 S 
ATOM      6  O   UNL     1       1.225   4.330   1.268  0.00  0.00    -0.146 OA
ATOM      7  O   UNL     1       1.203   4.347  -1.235  0.00  0.00    -0.146 OA
ATOM      8  C   UNL     1       1.160   2.074   0.002  0.00  0.00    +0.123 A 
ATOM      9  C   UNL     1       2.404   1.429  -0.013  0.00  0.00    +0.043 A 
ATOM     10  C   UNL     1       2.404   0.026  -0.021  0.00  0.00    +0.013 A 
ATOM     11  C   UNL     1       1.215  -0.669  -0.013  0.00  0.00    +0.001 A 
ATOM     12  C   UNL     1       0.002  -0.004   0.002  0.00  0.00    +0.002 A 
ATOM     13  C   UNL     1      -0.017   1.384   0.010  0.00  0.00    +0.030 A 
ATOM     14  H   UNL     1       5.032   0.851  -0.039  0.00  0.00    +0.148 HD
ENDBRANCH   1   2
BRANCH   1  15
ATOM     15  C   UNL     1       7.150   2.247  -0.650  0.00  0.00    +0.233 C 
ATOM     16  O   UNL     1       7.097   1.102  -1.046  0.00  0.00    -0.274 OA
ATOM     17  N   UNL     1       8.298   2.946  -0.760  0.00  0.00    -0.314 N 
ATOM     18  H   UNL     1       8.346   3.984  -0.401  0.00  0.00    +0.149 HD
BRANCH  17  19
ATOM     19  C   UNL     1       9.480   2.321  -1.358  0.00  0.00    +0.102 C 
BRANCH  19  20
ATOM     20  C   UNL     1      10.638   3.322  -1.362  0.00  0.00    +0.000 C 
BRANCH  20  21
ATOM     21  C   UNL     1      11.873   2.670  -1.986  0.00  0.00    -0.077 C 
BRANCH  21  22
ATOM     22  N   UNL     1      12.985   3.631  -1.990  0.00  0.00    +0.380 N 
ATOM     23  C   UNL     1      12.696   4.766  -2.876  0.00  0.00    -0.079 C 
ATOM     24  C   UNL     1      13.805   5.812  -2.745  0.00  0.00    -0.016 C 
ATOM     25  C   UNL     1      15.147   5.176  -3.119  0.00  0.00    -0.018 C 
ATOM     26  C   UNL     1      15.401   3.968  -2.213  0.00  0.00    -0.016 C 
ATOM     27  C   UNL     1      14.246   2.975  -2.360  0.00  0.00    -0.079 C 
ATOM     28  C   UNL     1      16.268   6.201  -2.930  0.00  0.00    +0.007 C 
ATOM     29  H   UNL     1      13.098   4.023  -0.969  0.00  0.00    -0.082 HD
ENDBRANCH  21  22
ENDBRANCH  20  21
ENDBRANCH  19  20
ENDBRANCH  17  19
ENDBRANCH   1  15
BRANCH   1  30
ATOM     30  C   UNL     1       6.250   3.309   1.402  0.00  0.00    +0.032 C 
BRANCH  30  31
ATOM     31  C   UNL     1       5.058   4.072   1.985  0.00  0.00    +0.002 C 
BRANCH  31  33
ATOM     32  C   UNL     1       4.182   5.254   4.004  0.00  0.00    +0.004 C 
ATOM     33  C   UNL     1       5.374   4.492   3.421  0.00  0.00    -0.003 C 
ENDBRANCH  31  33
ENDBRANCH  30  31
ENDBRANCH   1  30
TORSDOF 9
