REMARK  Name = ZINC28523670
REMARK  7 active torsions:
REMARK  status: ('A' for Active; 'I' for Inactive)
REMARK    1  A    between atoms: C_4  and  C_7
REMARK    2  A    between atoms: C_7  and  C_8
REMARK    3  A    between atoms: C_8  and  C_10
REMARK    4  A    between atoms: C_8  and  N_34
REMARK    5  A    between atoms: C_10  and  N_11
REMARK    6  A    between atoms: C_14  and  C_28
REMARK    7  A    between atoms: C_15  and  C_18
REMARK                            x       y       z     vdW  Elec       q    Type
REMARK                         _______ _______ _______ _____ _____    ______ ____
ROOT
ATOM      1  N   UNL     1      -1.790   4.089   1.525  0.00  0.00    -0.329 N 
ATOM      2  C   UNL     1      -1.993   5.449   1.729  0.00  0.00    +0.142 A 
ATOM      3  C   UNL     1      -1.667   6.360   0.727  0.00  0.00    +0.056 A 
ATOM      4  C   UNL     1      -1.889   7.714   0.979  0.00  0.00    +0.013 A 
ATOM      5  C   UNL     1      -2.429   8.068   2.233  0.00  0.00    +0.102 A 
ATOM      6  N   UNL     1      -2.705   7.121   3.119  0.00  0.00    -0.147 NA
ATOM      7  N   UNL     1      -2.502   5.877   2.876  0.00  0.00    -0.134 NA
ATOM      8  H   UNL     1      -2.047   3.369   2.316  0.00  0.00    +0.147 HD
ENDROOT
BRANCH   5   9
ATOM      9  C   UNL     1      -2.686   9.488   2.558  0.00  0.00    +0.010 A 
ATOM     10  C   UNL     1      -1.695  10.438   2.378  0.00  0.00    +0.011 A 
ATOM     11  C   UNL     1      -1.931  11.775   2.676  0.00  0.00    +0.001 A 
ATOM     12  C   UNL     1      -3.135  12.186   3.162  0.00  0.00    +0.008 A 
ATOM     13  C   UNL     1      -4.168  11.255   3.366  0.00  0.00    -0.017 A 
ATOM     14  C   UNL     1      -3.947   9.890   3.062  0.00  0.00    -0.009 A 
ATOM     15  C   UNL     1      -4.978   8.962   3.266  0.00  0.00    +0.009 A 
ATOM     16  C   UNL     1      -6.178   9.384   3.753  0.00  0.00    +0.001 A 
ATOM     17  C   UNL     1      -6.398  10.727   4.052  0.00  0.00    +0.001 A 
ATOM     18  C   UNL     1      -5.420  11.655   3.867  0.00  0.00    +0.008 A 
ENDBRANCH   5   9
BRANCH   4  19
ATOM     19  C   UNL     1      -1.568   8.746  -0.037  0.00  0.00    -0.013 A 
ATOM     20  C   UNL     1      -2.542   9.646  -0.479  0.00  0.00    +0.028 A 
ATOM     21  C   UNL     1      -2.199  10.594  -1.421  0.00  0.00    +0.111 A 
ATOM     22  N   UNL     1      -0.976  10.650  -1.911  0.00  0.00    -0.263 NA
ATOM     23  C   UNL     1      -0.029   9.816  -1.525  0.00  0.00    +0.111 A 
ATOM     24  C   UNL     1      -0.284   8.841  -0.582  0.00  0.00    +0.028 A 
ENDBRANCH   4  19
BRANCH   1  25
ATOM     25  C   UNL     1      -1.233   3.614   0.256  0.00  0.00    +0.088 C 
BRANCH  25  26
ATOM     26  C   UNL     1      -1.272   2.085   0.222  0.00  0.00    -0.047 C 
BRANCH  26  27
ATOM     27  N   UNL     1      -2.657   1.627   0.396  0.00  0.00    +0.383 N 
ATOM     28  C   UNL     1      -2.948   1.344   1.825  0.00  0.00    -0.078 C 
ATOM     29  C   UNL     1      -4.495   1.402   1.890  0.00  0.00    -0.020 C 
ATOM     30  C   UNL     1      -4.839   2.554   0.918  0.00  0.00    -0.020 C 
ATOM     31  C   UNL     1      -3.617   2.674  -0.012  0.00  0.00    -0.078 C 
ATOM     32  H   UNL     1      -2.754   0.725  -0.227  0.00  0.00    -0.081 HD
ENDBRANCH  26  27
BRANCH  26  33
ATOM     33  C   UNL     1      -0.737   1.591  -1.124  0.00  0.00    +0.021 C 
BRANCH  33  37
ATOM     34  C   UNL     1      -0.591  -2.678  -1.119  0.00  0.00    +0.000 A 
ATOM     35  C   UNL     1      -1.761  -2.027  -1.464  0.00  0.00    +0.000 A 
ATOM     36  C   UNL     1      -1.808  -0.645  -1.466  0.00  0.00    +0.003 A 
ATOM     37  C   UNL     1      -0.686   0.085  -1.122  0.00  0.00    -0.049 A 
ATOM     38  C   UNL     1       0.485  -0.566  -0.782  0.00  0.00    +0.003 A 
ATOM     39  C   UNL     1       0.531  -1.948  -0.775  0.00  0.00    +0.000 A 
ENDBRANCH  33  37
ENDBRANCH  26  33
ENDBRANCH  25  26
ENDBRANCH   1  25
TORSDOF 7
