REMARK  Name = ZINC03112381
REMARK  10 active torsions:
REMARK  status: ('A' for Active; 'I' for Inactive)
REMARK    1  A    between atoms: C_1  and  C_2
REMARK    2  A    between atoms: C_5  and  O_9
REMARK    3  A    between atoms: O_9  and  C_10
REMARK    4  A    between atoms: C_10  and  C_11
REMARK    5  A    between atoms: N_13  and  N_14
REMARK    6  A    between atoms: N_14  and  C_15
REMARK    7  A    between atoms: C_15  and  C_16
REMARK    8  A    between atoms: C_17  and  C_18
REMARK    9  A    between atoms: N_20  and  C_21
REMARK   10  A    between atoms: C_26  and  C_27
REMARK                            x       y       z     vdW  Elec       q    Type
REMARK                         _______ _______ _______ _____ _____    ______ ____
ROOT
ATOM      1  C   UNL     1       0.258  -9.310  -3.254  0.00  0.00    +0.024 C 
ATOM      2  C   UNL     1       0.668 -10.742  -3.025  0.00  0.00    +0.062 C 
ATOM      3  C   UNL     1       0.135  -8.836  -4.511  0.00  0.00    +0.087 C 
ENDROOT
BRANCH   3   4
ATOM      4  C   UNL     1       0.219  -9.720  -5.611  0.00  0.00    +0.243 C 
ATOM      5  O   UNL     1       0.267 -10.923  -5.424  0.00  0.00    -0.270 OA
ATOM      6  N   UNL     1       0.246  -9.232  -6.867  0.00  0.00    -0.281 N 
ATOM      7  H   UNL     1       0.126  -8.282  -7.021  0.00  0.00    +0.155 HD
BRANCH   6   8
ATOM      8  C   UNL     1       0.449 -10.095  -7.947  0.00  0.00    +0.041 A 
ATOM      9  C   UNL     1       1.090 -11.311  -7.757  0.00  0.00    +0.024 A 
ATOM     10  C   UNL     1       1.289 -12.162  -8.826  0.00  0.00    +0.002 A 
ATOM     11  C   UNL     1       0.853 -11.809 -10.091  0.00  0.00    +0.001 A 
ATOM     12  C   UNL     1       0.214 -10.602 -10.296  0.00  0.00    +0.010 A 
ATOM     13  C   UNL     1       0.001  -9.738  -9.224  0.00  0.00    +0.003 A 
BRANCH  13  14
ATOM     14  C   UNL     1      -0.690  -8.444  -9.437  0.00  0.00    -0.016 A 
ATOM     15  C   UNL     1      -1.748  -8.071  -8.609  0.00  0.00    +0.008 A 
ATOM     16  C   UNL     1      -2.388  -6.865  -8.812  0.00  0.00    +0.001 A 
ATOM     17  C   UNL     1      -1.982  -6.027  -9.835  0.00  0.00    +0.000 A 
ATOM     18  C   UNL     1      -0.933  -6.392 -10.660  0.00  0.00    +0.001 A 
ATOM     19  C   UNL     1      -0.281  -7.592 -10.462  0.00  0.00    +0.008 A 
ENDBRANCH  13  14
ENDBRANCH   6   8
ENDBRANCH   3   4
BRANCH   1  20
ATOM     20  N   UNL     1       0.013  -8.491  -2.187  0.00  0.00    -0.269 N 
ATOM     21  H   UNL     1       0.102  -8.832  -1.284  0.00  0.00    +0.170 HD
BRANCH  20  24
ATOM     22  C   UNL     1      -0.610  -6.352  -1.348  0.00  0.00    +0.267 C 
ATOM     23  O   UNL     1      -0.499  -6.778  -0.218  0.00  0.00    -0.271 OA
ATOM     24  N   UNL     1      -0.368  -7.160  -2.400  0.00  0.00    -0.234 N 
ATOM     25  H   UNL     1      -0.457  -6.819  -3.304  0.00  0.00    +0.173 HD
BRANCH  22  26
ATOM     26  C   UNL     1      -1.020  -4.920  -1.577  0.00  0.00    +0.326 C 
BRANCH  26  27
ATOM     27  O   UNL     1      -1.217  -4.274  -0.318  0.00  0.00    -0.482 OA
BRANCH  27  32
ATOM     28  C   UNL     1      -2.774   1.139  -0.436  0.00  0.00    +0.044 C 
ATOM     29  C   UNL     1      -2.357  -0.309  -0.404  0.00  0.00    -0.049 A 
ATOM     30  C   UNL     1      -2.148  -0.994  -1.587  0.00  0.00    +0.007 A 
ATOM     31  C   UNL     1      -1.766  -2.321  -1.561  0.00  0.00    +0.047 A 
ATOM     32  C   UNL     1      -1.592  -2.968  -0.346  0.00  0.00    +0.135 A 
ATOM     33  C   UNL     1      -1.802  -2.279   0.841  0.00  0.00    +0.060 A 
ATOM     34  C   UNL     1      -2.179  -0.950   0.809  0.00  0.00    +0.022 A 
ATOM     35 BR   UNL     1      -1.567  -3.157   2.499  0.00  0.00    -0.047 Br
ENDBRANCH  27  32
ENDBRANCH  26  27
ENDBRANCH  22  26
ENDBRANCH  20  24
ENDBRANCH   1  20
TORSDOF 8
