REMARK  Name = ZINC60095040
REMARK  10 active torsions:
REMARK  status: ('A' for Active; 'I' for Inactive)
REMARK    1  A    between atoms: C_1  and  C_2
REMARK    2  A    between atoms: C_5  and  N_8
REMARK    3  A    between atoms: C_13  and  C_15
REMARK    4  A    between atoms: N_17  and  C_18
REMARK    5  A    between atoms: C_18  and  C_19
REMARK    6  A    between atoms: C_19  and  C_20
REMARK    7  A    between atoms: C_19  and  C_21
REMARK    8  A    between atoms: C_19  and  N_22
REMARK    9  A    between atoms: C_24  and  C_31
REMARK   10  A    between atoms: C_27  and  C_30
REMARK                            x       y       z     vdW  Elec       q    Type
REMARK                         _______ _______ _______ _____ _____    ______ ____
ROOT
ATOM      1  C   UNL     1       0.857  -8.754  -3.663  0.00  0.00    +0.278 C 
ATOM      2  O   UNL     1      -0.024  -8.641  -2.833  0.00  0.00    -0.267 OA
ATOM      3  N   UNL     1       1.050  -7.782  -4.577  0.00  0.00    -0.310 N 
ATOM      4  H   UNL     1       1.753  -7.872  -5.239  0.00  0.00    +0.149 HD
ENDROOT
BRANCH   1  10
ATOM      5  N   UNL     1       3.486 -11.210  -4.571  0.00  0.00    -0.158 N 
ATOM      6  C   UNL     1       3.148 -12.319  -3.884  0.00  0.00    +0.256 C 
ATOM      7  O   UNL     1       3.879 -13.287  -3.887  0.00  0.00    -0.272 OA
ATOM      8  C   UNL     1       1.851 -12.346  -3.110  0.00  0.00    +0.201 C 
ATOM      9  N   UNL     1       1.519 -10.966  -2.726  0.00  0.00    -0.315 N 
ATOM     10  C   UNL     1       1.714  -9.953  -3.671  0.00  0.00    +0.200 C 
ATOM     11  N   UNL     1       2.663 -10.079  -4.555  0.00  0.00    -0.152 NA
ATOM     12  H   UNL     1       1.175 -10.763  -1.842  0.00  0.00    +0.148 HD
BRANCH   5  17
ATOM     13  C   UNL     1       8.316 -11.119  -7.545  0.00  0.00    +0.044 C 
ATOM     14  C   UNL     1       7.033 -11.143  -6.756  0.00  0.00    -0.050 A 
ATOM     15  C   UNL     1       6.730 -10.100  -5.900  0.00  0.00    +0.005 A 
ATOM     16  C   UNL     1       5.555 -10.119  -5.175  0.00  0.00    +0.026 A 
ATOM     17  C   UNL     1       4.677 -11.187  -5.305  0.00  0.00    +0.060 A 
ATOM     18  C   UNL     1       4.984 -12.233  -6.166  0.00  0.00    +0.026 A 
ATOM     19  C   UNL     1       6.159 -12.206  -6.892  0.00  0.00    +0.005 A 
ENDBRANCH   5  17
ENDBRANCH   1  10
BRANCH   3  20
ATOM     20  C   UNL     1       0.199  -6.590  -4.569  0.00  0.00    +0.092 C 
BRANCH  20  21
ATOM     21  C   UNL     1       0.548  -5.706  -5.769  0.00  0.00    -0.055 C 
ATOM     22  C   UNL     1       0.326  -6.492  -7.063  0.00  0.00    -0.008 C 
ATOM     23  C   UNL     1      -0.347  -4.466  -5.766  0.00  0.00    -0.008 C 
BRANCH  21  24
ATOM     24  N   UNL     1       1.955  -5.295  -5.681  0.00  0.00    +0.384 N 
ATOM     25  C   UNL     1       2.169  -4.552  -4.434  0.00  0.00    -0.075 C 
ATOM     26  C   UNL     1       3.650  -4.191  -4.298  0.00  0.00    -0.031 C 
ATOM     27  C   UNL     1       4.070  -3.325  -5.489  0.00  0.00    +0.003 C 
ATOM     28  C   UNL     1       3.773  -4.080  -6.788  0.00  0.00    -0.031 C 
ATOM     29  C   UNL     1       2.288  -4.445  -6.831  0.00  0.00    -0.075 C 
ATOM     30  C   UNL     1       4.615  -5.357  -6.840  0.00  0.00    +0.005 C 
ATOM     31  C   UNL     1       3.870  -3.415  -2.998  0.00  0.00    +0.005 C 
ATOM     32  H   UNL     1       2.545  -6.114  -5.688  0.00  0.00    -0.081 HD
ENDBRANCH  21  24
ENDBRANCH  20  21
ENDBRANCH   3  20
TORSDOF 5
