REMARK  Name = ZINC00659081
REMARK  4 active torsions:
REMARK  status: ('A' for Active; 'I' for Inactive)
REMARK    1  A    between atoms: C_1  and  C_2
REMARK    2  A    between atoms: C_3  and  C_29
REMARK    3  A    between atoms: C_4  and  C_22
REMARK    4  A    between atoms: C_10  and  C_15
REMARK                            x       y       z     vdW  Elec       q    Type
REMARK                         _______ _______ _______ _____ _____    ______ ____
ROOT
ATOM      1  C   UNL     1       5.034   2.444   2.458  0.00  0.00    +0.061 C 
ATOM      2  C   UNL     1       4.277   2.760   1.194  0.00  0.00    +0.019 C 
ATOM      3  C   UNL     1       3.232   3.602   1.236  0.00  0.00    +0.058 C 
ATOM      4  C   UNL     1       2.452   3.936  -0.001  0.00  0.00    +0.097 C 
ATOM      5  C   UNL     1       3.229   3.583  -1.244  0.00  0.00    +0.024 C 
ATOM      6  C   UNL     1       4.277   2.733  -1.185  0.00  0.00    +0.016 C 
ATOM      7  N   UNL     1       4.660   2.186   0.009  0.00  0.00    -0.320 N 
ATOM      8  C   UNL     1       5.051   2.366  -2.426  0.00  0.00    +0.059 C 
ATOM      9  C   UNL     1       5.030   3.538  -3.410  0.00  0.00    +0.032 C 
ATOM     10  C   UNL     1       3.571   3.870  -3.740  0.00  0.00    +0.088 C 
ATOM     11  C   UNL     1       2.835   4.164  -2.462  0.00  0.00    +0.162 C 
ATOM     12  O   UNL     1       1.882   4.917  -2.482  0.00  0.00    -0.292 OA
ATOM     13  H   UNL     1       5.281   1.278   0.013  0.00  0.00    +0.152 HD
ENDROOT
BRANCH   9  14
ATOM     14  C   UNL     1       5.760   3.154  -4.671  0.00  0.00    -0.043 A 
ATOM     15  C   UNL     1       5.336   2.065  -5.410  0.00  0.00    +0.005 A 
ATOM     16  C   UNL     1       6.002   1.715  -6.570  0.00  0.00    +0.020 A 
ATOM     17  C   UNL     1       7.099   2.448  -6.985  0.00  0.00    +0.041 A 
ATOM     18  C   UNL     1       7.526   3.534  -6.242  0.00  0.00    +0.020 A 
ATOM     19  C   UNL     1       6.856   3.886  -5.086  0.00  0.00    +0.005 A 
ATOM     20 CL   UNL     1       7.940   2.005  -8.438  0.00  0.00    -0.084 Cl
ENDBRANCH   9  14
BRANCH   4  21
ATOM     21  C   UNL     1       1.157   3.165   0.008  0.00  0.00    -0.021 A 
ATOM     22  C   UNL     1       1.175   1.783   0.000  0.00  0.00    +0.005 A 
ATOM     23  C   UNL     1      -0.013   1.076   0.008  0.00  0.00    +0.000 A 
ATOM     24  C   UNL     1      -1.219   1.751   0.017  0.00  0.00    +0.001 A 
ATOM     25  C   UNL     1      -1.238   3.132   0.030  0.00  0.00    +0.015 A 
ATOM     26  C   UNL     1      -0.050   3.841   0.022  0.00  0.00    +0.022 A 
ATOM     27 BR   UNL     1      -0.076   5.731   0.033  0.00  0.00    -0.050 Br
ENDBRANCH   4  21
BRANCH   3  28
ATOM     28  C   UNL     1       2.855   4.191   2.485  0.00  0.00    +0.097 C 
ATOM     29  N   UNL     1       2.555   4.659   3.476  0.00  0.00    -0.191 NA
ENDBRANCH   3  28
TORSDOF 3
