REMARK  Name = ZINC63558322
REMARK  6 active torsions:
REMARK  status: ('A' for Active; 'I' for Inactive)
REMARK    1  A    between atoms: C_6  and  C_10
REMARK    2  A    between atoms: C_13  and  N_16
REMARK    3  A    between atoms: C_17  and  C_19
REMARK    4  A    between atoms: C_19  and  C_20
REMARK    5  A    between atoms: C_20  and  S_21
REMARK    6  A    between atoms: S_21  and  C_24
REMARK                            x       y       z     vdW  Elec       q    Type
REMARK                         _______ _______ _______ _____ _____    ______ ____
ROOT
ATOM      1  N   UNL     1       4.814  -4.750  -4.721  0.00  0.00    -0.285 N 
ATOM      2  C   UNL     1       4.111  -5.795  -5.199  0.00  0.00    +0.219 C 
ATOM      3  O   UNL     1       3.058  -6.105  -4.682  0.00  0.00    -0.275 OA
ATOM      4  H   UNL     1       5.616  -4.454  -5.180  0.00  0.00    +0.155 HD
ENDROOT
BRANCH   1   8
ATOM      5  C   UNL     1       3.546  -2.788  -1.272  0.00  0.00    -0.005 A 
ATOM      6  C   UNL     1       3.336  -4.148  -1.408  0.00  0.00    +0.009 A 
ATOM      7  C   UNL     1       3.756  -4.801  -2.551  0.00  0.00    +0.024 A 
ATOM      8  C   UNL     1       4.388  -4.091  -3.563  0.00  0.00    +0.033 A 
ATOM      9  C   UNL     1       4.596  -2.725  -3.423  0.00  0.00    +0.024 A 
ATOM     10  C   UNL     1       4.170  -2.076  -2.280  0.00  0.00    +0.009 A 
BRANCH   5  16
ATOM     11  C   UNL     1       5.824  -0.986   3.504  0.00  0.00    +0.002 A 
ATOM     12  C   UNL     1       5.304  -2.195   4.001  0.00  0.00    +0.002 A 
ATOM     13  C   UNL     1       4.417  -2.941   3.314  0.00  0.00    +0.027 A 
ATOM     14  C   UNL     1       3.961  -2.491   1.991  0.00  0.00    +0.060 A 
ATOM     15  N   UNL     1       3.132  -2.994   1.123  0.00  0.00    -0.360 N 
ATOM     16  C   UNL     1       3.087  -2.078  -0.024  0.00  0.00    +0.206 C 
ATOM     17  N   UNL     1       4.001  -0.973   0.292  0.00  0.00    -0.360 N 
ATOM     18  C   UNL     1       4.511  -1.212   1.466  0.00  0.00    +0.060 A 
ATOM     19  C   UNL     1       5.473  -0.483   2.304  0.00  0.00    +0.027 A 
ATOM     20  H   UNL     1       2.636  -3.822   1.216  0.00  0.00    +0.162 HD
ATOM     21  H   UNL     1       4.190  -0.206  -0.270  0.00  0.00    +0.162 HD
ENDBRANCH   5  16
ENDBRANCH   1   8
BRANCH   2  22
ATOM     22  C   UNL     1       4.633  -6.579  -6.376  0.00  0.00    +0.119 C 
BRANCH  22  23
ATOM     23  C   UNL     1       3.652  -7.704  -6.714  0.00  0.00    +0.181 C 
BRANCH  23  24
ATOM     24  S   UNL     1       4.279  -8.648  -8.130  0.00  0.00    -0.003 S 
ATOM     25  O   UNL     1       4.254  -7.846  -9.303  0.00  0.00    -0.169 OA
ATOM     26  O   UNL     1       5.455  -9.357  -7.764  0.00  0.00    -0.169 OA
BRANCH  24  27
ATOM     27  C   UNL     1       3.070  -9.897  -8.414  0.00  0.00    +0.090 A 
ATOM     28  C   UNL     1       3.177 -11.118  -7.773  0.00  0.00    +0.030 A 
ATOM     29  C   UNL     1       2.231 -12.104  -7.989  0.00  0.00    +0.049 A 
ATOM     30  C   UNL     1       1.174 -11.868  -8.851  0.00  0.00    +0.142 A 
ATOM     31  C   UNL     1       1.067 -10.638  -9.497  0.00  0.00    +0.077 A 
ATOM     32  C   UNL     1       2.014  -9.652  -9.272  0.00  0.00    +0.054 A 
ATOM     33  N   UNL     1      -0.008 -10.413 -10.370  0.00  0.00    -0.280 N 
ATOM     34  C   UNL     1      -1.070 -11.247 -10.329  0.00  0.00    +0.255 C 
ATOM     35  O   UNL     1      -1.997 -11.090 -11.095  0.00  0.00    -0.272 OA
ATOM     36  C   UNL     1      -1.098 -12.373  -9.327  0.00  0.00    +0.325 C 
ATOM     37  O   UNL     1       0.235 -12.825  -9.075  0.00  0.00    -0.481 OA
ATOM     38  H   UNL     1       0.011  -9.669 -10.992  0.00  0.00    +0.155 HD
ENDBRANCH  24  27
ENDBRANCH  23  24
ENDBRANCH  22  23
ENDBRANCH   2  22
TORSDOF 6
