REMARK  Name = ZINC20990239
REMARK  8 active torsions:
REMARK  status: ('A' for Active; 'I' for Inactive)
REMARK    1  A    between atoms: C_1  and  C_2
REMARK    2  A    between atoms: C_8  and  N_10
REMARK    3  A    between atoms: C_11  and  C_13
REMARK    4  A    between atoms: C_13  and  C_15
REMARK    5  A    between atoms: C_13  and  S_16
REMARK    6  A    between atoms: S_16  and  C_17
REMARK    7  A    between atoms: C_20  and  C_23
REMARK    8  A    between atoms: N_21  and  N_22
REMARK                            x       y       z     vdW  Elec       q    Type
REMARK                         _______ _______ _______ _____ _____    ______ ____
ROOT
ATOM      1  S   UNL     1      -1.447   2.389   0.022  0.00  0.00    -0.072 S 
ENDROOT
BRANCH   1   2
ATOM      2  C   UNL     1      -0.016   1.361   0.009  0.00  0.00    +0.209 A 
ATOM      3  N   UNL     1       1.233   1.763  -0.000  0.00  0.00    -0.121 NA
ATOM      4  N   UNL     1       2.019   0.745  -0.013  0.00  0.00    -0.132 NA
ATOM      5  C   UNL     1       1.323  -0.356  -0.013  0.00  0.00    +0.154 A 
ATOM      6  N   UNL     1       0.002  -0.004   0.002  0.00  0.00    -0.228 N 
BRANCH   5   7
ATOM      7  C   UNL     1       1.873  -1.760  -0.025  0.00  0.00    +0.059 C 
ATOM      8  C   UNL     1       2.743  -1.978   1.215  0.00  0.00    +0.011 C 
ATOM      9  C   UNL     1       3.301  -3.402   1.202  0.00  0.00    +0.001 C 
ATOM     10  C   UNL     1       4.147  -3.607  -0.057  0.00  0.00    +0.000 C 
ATOM     11  C   UNL     1       3.277  -3.389  -1.297  0.00  0.00    +0.001 C 
ATOM     12  C   UNL     1       2.719  -1.964  -1.284  0.00  0.00    +0.011 C 
ENDBRANCH   5   7
BRANCH   6  13
ATOM     13  N   UNL     1      -1.075  -0.844   0.008  0.00  0.00    -0.295 N 
ATOM     14  H   UNL     1      -0.924  -1.933   0.001  0.00  0.00    +0.163 HD
ATOM     15  H   UNL     1      -2.095  -0.430   0.020  0.00  0.00    +0.163 HD
ENDBRANCH   6  13
ENDBRANCH   1   2
BRANCH   1  16
ATOM     16  C   UNL     1      -0.662   4.020   0.027  0.00  0.00    +0.137 C 
ATOM     17  C   UNL     1       0.115   4.208   1.332  0.00  0.00    +0.029 C 
BRANCH  16  19
ATOM     18  N   UNL     1      -1.408   6.295  -0.597  0.00  0.00    -0.311 N 
ATOM     19  C   UNL     1      -1.720   5.088  -0.086  0.00  0.00    +0.226 C 
ATOM     20  O   UNL     1      -2.853   4.860   0.283  0.00  0.00    -0.275 OA
ATOM     21  H   UNL     1      -0.380   6.501  -0.931  0.00  0.00    +0.149 HD
BRANCH  18  28
ATOM     22  C   UNL     1      -1.948   7.559  -3.146  0.00  0.00    +0.009 C 
ATOM     23  C   UNL     1      -2.056   8.312  -1.819  0.00  0.00    +0.006 C 
ATOM     24  C   UNL     1      -3.130   9.395  -1.933  0.00  0.00    +0.005 C 
ATOM     25  C   UNL     1      -3.239  10.148  -0.606  0.00  0.00    +0.000 C 
ATOM     26  C   UNL     1      -3.619   9.169   0.507  0.00  0.00    +0.002 C 
ATOM     27  C   UNL     1      -2.545   8.085   0.621  0.00  0.00    +0.022 C 
ATOM     28  C   UNL     1      -2.436   7.332  -0.706  0.00  0.00    +0.076 C 
ENDBRANCH  18  28
ENDBRANCH  16  19
ENDBRANCH   1  16
TORSDOF 6
