REMARK  Name = ZINC09725399
REMARK  8 active torsions:
REMARK  status: ('A' for Active; 'I' for Inactive)
REMARK    1  A    between atoms: C_2  and  C_3
REMARK    2  A    between atoms: C_3  and  N_4
REMARK    3  A    between atoms: C_8  and  S_27
REMARK    4  A    between atoms: N_13  and  C_14
REMARK    5  A    between atoms: C_14  and  C_16
REMARK    6  A    between atoms: C_17  and  C_18
REMARK    7  A    between atoms: C_22  and  N_24
REMARK    8  A    between atoms: S_27  and  N_30
REMARK                            x       y       z     vdW  Elec       q    Type
REMARK                         _______ _______ _______ _____ _____    ______ ____
ROOT
ATOM      1  N   UNL     1      -2.038  -7.214  -0.020  0.00  0.00    -0.317 N 
ATOM      2  C   UNL     1      -1.807  -8.577  -0.030  0.00  0.00    +0.058 A 
ATOM      3  C   UNL     1      -2.763  -9.608  -0.028  0.00  0.00    +0.029 A 
ATOM      4  C   UNL     1      -2.378 -10.927  -0.040  0.00  0.00    +0.030 A 
ATOM      5  C   UNL     1      -1.040 -11.286  -0.055  0.00  0.00    +0.106 A 
ATOM      6  C   UNL     1      -0.077 -10.293  -0.057  0.00  0.00    +0.045 A 
ATOM      7  C   UNL     1      -0.461  -8.973  -0.045  0.00  0.00    +0.041 A 
ATOM      8  S   UNL     1       0.420  -7.430  -0.052  0.00  0.00    -0.052 S 
ATOM      9  C   UNL     1      -0.992  -6.339  -0.025  0.00  0.00    +0.167 A 
ATOM     10  N   UNL     1      -1.018  -5.012  -0.017  0.00  0.00    -0.153 NA
ENDROOT
BRANCH   5  11
ATOM     11  S   UNL     1      -0.572 -12.984  -0.070  0.00  0.00    +0.056 S 
ATOM     12  O   UNL     1       0.742 -13.048   0.468  0.00  0.00    -0.153 OA
ATOM     13  O   UNL     1      -1.659 -13.710   0.486  0.00  0.00    -0.153 OA
BRANCH  11  14
ATOM     14  N   UNL     1      -0.457 -13.446  -1.656  0.00  0.00    -0.204 NA
ATOM     15  H   UNL     1       0.169 -14.141  -1.915  0.00  0.00    +0.144 HD
ATOM     16  H   UNL     1      -1.015 -13.022  -2.327  0.00  0.00    +0.144 HD
ENDBRANCH  11  14
ENDBRANCH   5  11
BRANCH  10  17
ATOM     17  C   UNL     1       0.129  -4.319  -0.024  0.00  0.00    +0.262 C 
ATOM     18  O   UNL     1       1.197  -4.909  -0.037  0.00  0.00    -0.269 OA
BRANCH  17  19
ATOM     19  C   UNL     1       0.101  -2.851  -0.015  0.00  0.00    +0.070 C 
ATOM     20  C   UNL     1       1.253  -2.155  -0.022  0.00  0.00    +0.013 C 
BRANCH  20  21
ATOM     21  C   UNL     1       1.224  -0.683  -0.013  0.00  0.00    -0.023 A 
ATOM     22  C   UNL     1       0.002  -0.004   0.002  0.00  0.00    +0.008 A 
ATOM     23  C   UNL     1      -0.017   1.375   0.010  0.00  0.00    +0.003 A 
ATOM     24  C   UNL     1       1.171   2.086   0.002  0.00  0.00    +0.033 A 
ATOM     25  C   UNL     1       2.384   1.422  -0.013  0.00  0.00    +0.127 A 
ATOM     26  C   UNL     1       2.419   0.043  -0.021  0.00  0.00    +0.040 A 
BRANCH  25  27
ATOM     27  N   UNL     1       3.648   2.192  -0.021  0.00  0.00    +0.056 N 
ATOM     28  O   UNL     1       4.717   1.609  -0.035  0.00  0.00    -0.126 OA
ATOM     29  O   UNL     1       3.619   3.410  -0.015  0.00  0.00    -0.126 OA
ENDBRANCH  25  27
ENDBRANCH  20  21
ENDBRANCH  17  19
ENDBRANCH  10  17
BRANCH   1  30
ATOM     30  C   UNL     1      -3.412  -6.707  -0.004  0.00  0.00    +0.151 C 
BRANCH  30  32
ATOM     31  C   UNL     1      -3.957  -4.330   0.121  0.00  0.00    +0.005 C 
ATOM     32  C   UNL     1      -3.451  -5.383   0.714  0.00  0.00    -0.013 C 
ENDBRANCH  30  32
ENDBRANCH   1  30
TORSDOF 8
