REMARK  Name = ZINC40795690
REMARK  7 active torsions:
REMARK  status: ('A' for Active; 'I' for Inactive)
REMARK    1  A    between atoms: C_1  and  C_2
REMARK    2  A    between atoms: C_2  and  C_13
REMARK    3  A    between atoms: N_15  and  C_16
REMARK    4  A    between atoms: C_24  and  C_25
REMARK    5  A    between atoms: C_25  and  C_27
REMARK    6  A    between atoms: C_30  and  O_33
REMARK    7  A    between atoms: O_33  and  C_34
REMARK                            x       y       z     vdW  Elec       q    Type
REMARK                         _______ _______ _______ _____ _____    ______ ____
ROOT
ATOM      1  C   UNL     1       2.660  -0.808  -2.513  0.00  0.00    +0.091 A 
ATOM      2  C   UNL     1       4.083  -1.111  -2.702  0.00  0.00    +0.042 A 
ATOM      3  C   UNL     1       5.191  -1.136  -1.853  0.00  0.00    +0.013 A 
ATOM      4  C   UNL     1       6.420  -1.469  -2.350  0.00  0.00    +0.001 A 
ATOM      5  C   UNL     1       6.572  -1.781  -3.693  0.00  0.00    +0.004 A 
ATOM      6  C   UNL     1       5.491  -1.762  -4.548  0.00  0.00    +0.047 A 
ATOM      7  C   UNL     1       4.231  -1.427  -4.064  0.00  0.00    +0.138 A 
ATOM      8  O   UNL     1       3.021  -1.327  -4.649  0.00  0.00    -0.450 OA
ATOM      9  C   UNL     1       2.075  -0.968  -3.753  0.00  0.00    +0.197 A 
ENDROOT
BRANCH   1  12
ATOM     10  C   UNL     1       2.683   0.318  -0.427  0.00  0.00    +0.242 C 
ATOM     11  O   UNL     1       3.850   0.599  -0.602  0.00  0.00    -0.273 OA
ATOM     12  N   UNL     1       2.031  -0.441  -1.330  0.00  0.00    -0.280 N 
ATOM     13  H   UNL     1       1.123  -0.731  -1.154  0.00  0.00    +0.155 HD
BRANCH  10  15
ATOM     14  C   UNL     1       1.786  -0.333   1.794  0.00  0.00    +0.043 C 
ATOM     15  C   UNL     1       1.963   0.816   0.799  0.00  0.00    +0.170 C 
ATOM     16  C   UNL     1       2.755   1.925   1.441  0.00  0.00    +0.242 C 
ATOM     17  O   UNL     1       3.465   1.653   2.387  0.00  0.00    -0.273 OA
ATOM     18  N   UNL     1       2.715   3.185   1.023  0.00  0.00    -0.283 N 
ATOM     19  C   UNL     1       1.880   3.707   0.038  0.00  0.00    +0.047 A 
ATOM     20  C   UNL     1       2.186   4.942  -0.526  0.00  0.00    +0.024 A 
ATOM     21  C   UNL     1       1.380   5.476  -1.511  0.00  0.00    +0.002 A 
ATOM     22  C   UNL     1       0.260   4.792  -1.948  0.00  0.00    +0.001 A 
ATOM     23  C   UNL     1      -0.058   3.566  -1.394  0.00  0.00    +0.016 A 
ATOM     24  C   UNL     1       0.745   3.027  -0.402  0.00  0.00    +0.031 A 
ATOM     25  S   UNL     1       0.333   1.472   0.326  0.00  0.00    -0.098 S 
ATOM     26  H   UNL     1       3.329   3.805   1.446  0.00  0.00    +0.155 HD
ENDBRANCH  10  15
ENDBRANCH   1  12
BRANCH   9  27
ATOM     27  C   UNL     1       0.700  -0.783  -4.042  0.00  0.00    +0.230 C 
ATOM     28  O   UNL     1      -0.051  -0.359  -3.181  0.00  0.00    -0.283 OA
BRANCH  27  29
ATOM     29  C   UNL     1       0.178  -1.103  -5.386  0.00  0.00    +0.026 A 
ATOM     30  C   UNL     1       1.055  -1.469  -6.409  0.00  0.00    +0.015 A 
ATOM     31  C   UNL     1       0.564  -1.767  -7.661  0.00  0.00    +0.046 A 
ATOM     32  C   UNL     1      -0.802  -1.703  -7.907  0.00  0.00    +0.120 A 
ATOM     33  C   UNL     1      -1.679  -1.338  -6.891  0.00  0.00    +0.046 A 
ATOM     34  C   UNL     1      -1.196  -1.045  -5.635  0.00  0.00    +0.015 A 
BRANCH  32  35
ATOM     35  O   UNL     1      -1.282  -1.996  -9.142  0.00  0.00    -0.495 OA
ATOM     36  C   UNL     1      -2.697  -1.910  -9.326  0.00  0.00    +0.277 C 
ENDBRANCH  32  35
ENDBRANCH  27  29
ENDBRANCH   9  27
TORSDOF 5
