REMARK  Name = ZINC57930591
REMARK  7 active torsions:
REMARK  status: ('A' for Active; 'I' for Inactive)
REMARK    1  A    between atoms: C_1  and  C_2
REMARK    2  A    between atoms: C_2  and  C_3
REMARK    3  A    between atoms: N_7  and  C_17
REMARK    4  A    between atoms: C_10  and  C_16
REMARK    5  A    between atoms: C_11  and  C_15
REMARK    6  A    between atoms: C_17  and  C_19
REMARK    7  A    between atoms: C_17  and  C_20
REMARK                            x       y       z     vdW  Elec       q    Type
REMARK                         _______ _______ _______ _____ _____    ______ ____
ROOT
ATOM      1  C   UNL     1       1.878  -0.965  -1.050  0.00  0.00    +0.157 C 
ATOM      2  C   UNL     1       1.521  -2.388  -1.397  0.00  0.00    +0.241 C 
ATOM      3  O   UNL     1       2.392  -3.156  -1.748  0.00  0.00    -0.273 OA
ATOM      4  N   UNL     1       0.248  -2.816  -1.321  0.00  0.00    -0.261 N 
ATOM      5  C   UNL     1      -0.795  -1.921  -1.057  0.00  0.00    +0.058 A 
ATOM      6  C   UNL     1      -2.071  -2.387  -0.779  0.00  0.00    +0.029 A 
ATOM      7  C   UNL     1      -3.089  -1.490  -0.512  0.00  0.00    -0.046 A 
ATOM      8  C   UNL     1      -2.842  -0.130  -0.519  0.00  0.00    -0.046 A 
ATOM      9  C   UNL     1      -1.572   0.344  -0.798  0.00  0.00    +0.028 A 
ATOM     10  C   UNL     1      -0.550  -0.548  -1.071  0.00  0.00    +0.050 A 
ATOM     11  N   UNL     1       0.742  -0.091  -1.378  0.00  0.00    -0.331 N 
ATOM     12  C   UNL     1      -3.958   0.839  -0.223  0.00  0.00    +0.044 C 
ATOM     13  C   UNL     1      -4.475  -1.998  -0.211  0.00  0.00    +0.044 C 
ATOM     14  H   UNL     1       0.881   0.774  -1.795  0.00  0.00    +0.147 HD
ENDROOT
BRANCH   1  16
ATOM     15  C   UNL     1       2.663   0.552   0.773  0.00  0.00    +0.006 C 
ATOM     16  C   UNL     1       2.186  -0.864   0.445  0.00  0.00    +0.028 C 
ENDBRANCH   1  16
BRANCH   4  17
ATOM     17  C   UNL     1      -0.050  -4.237  -1.517  0.00  0.00    +0.108 C 
ATOM     18  C   UNL     1       0.976  -5.082  -0.761  0.00  0.00    +0.033 C 
BRANCH  17  19
ATOM     19  C   UNL     1       0.013  -4.565  -2.987  0.00  0.00    -0.027 A 
ATOM     20  C   UNL     1       0.737  -3.759  -3.845  0.00  0.00    +0.005 A 
ATOM     21  C   UNL     1       0.795  -4.060  -5.193  0.00  0.00    +0.000 A 
ATOM     22  C   UNL     1       0.130  -5.168  -5.683  0.00  0.00    +0.000 A 
ATOM     23  C   UNL     1      -0.593  -5.975  -4.824  0.00  0.00    +0.000 A 
ATOM     24  C   UNL     1      -0.648  -5.676  -3.476  0.00  0.00    +0.005 A 
ENDBRANCH  17  19
ENDBRANCH   4  17
TORSDOF 3
