REMARK  Name = ZINC12998986
REMARK  7 active torsions:
REMARK  status: ('A' for Active; 'I' for Inactive)
REMARK    1  A    between atoms: C_1  and  C_2
REMARK    2  A    between atoms: C_6  and  O_8
REMARK    3  A    between atoms: O_8  and  C_9
REMARK    4  A    between atoms: C_9  and  C_10
REMARK    5  A    between atoms: N_12  and  C_13
REMARK    6  A    between atoms: C_16  and  S_19
REMARK    7  A    between atoms: S_19  and  N_22
REMARK                            x       y       z     vdW  Elec       q    Type
REMARK                         _______ _______ _______ _____ _____    ______ ____
ROOT
ATOM      1  C   UNL     1       0.172  -3.322   7.068  0.00  0.00    +0.034 A 
ATOM      2  C   UNL     1       0.290  -4.684   6.821  0.00  0.00    +0.025 A 
ATOM      3  C   UNL     1       0.396  -5.569   7.876  0.00  0.00    +0.031 A 
ATOM      4  C   UNL     1       0.384  -5.100   9.177  0.00  0.00    +0.113 A 
ATOM      5  C   UNL     1       0.266  -3.745   9.427  0.00  0.00    +0.031 A 
ATOM      6  C   UNL     1       0.166  -2.854   8.376  0.00  0.00    +0.025 A 
ENDROOT
BRANCH   1   9
ATOM      7  C   UNL     1       0.633  -1.204   6.087  0.00  0.00    +0.255 C 
ATOM      8  O   UNL     1       1.167  -0.856   7.119  0.00  0.00    -0.272 OA
ATOM      9  N   UNL     1       0.064  -2.423   6.001  0.00  0.00    -0.283 N 
ATOM     10  H   UNL     1      -0.420  -2.677   5.200  0.00  0.00    +0.155 HD
BRANCH   7  11
ATOM     11  C   UNL     1       0.608  -0.276   4.901  0.00  0.00    +0.325 C 
BRANCH  11  12
ATOM     12  O   UNL     1       1.270   0.945   5.237  0.00  0.00    -0.481 OA
BRANCH  12  18
ATOM     13  C   UNL     1       0.233   2.378   0.688  0.00  0.00    +0.044 C 
ATOM     14  C   UNL     1       0.843   2.634   2.043  0.00  0.00    -0.047 A 
ATOM     15  C   UNL     1       1.469   3.839   2.302  0.00  0.00    +0.005 A 
ATOM     16  C   UNL     1       2.030   4.076   3.543  0.00  0.00    +0.024 A 
ATOM     17  C   UNL     1       1.965   3.108   4.529  0.00  0.00    +0.083 A 
ATOM     18  C   UNL     1       1.336   1.898   4.270  0.00  0.00    +0.140 A 
ATOM     19  C   UNL     1       0.770   1.665   3.026  0.00  0.00    +0.050 A 
ATOM     20 CL   UNL     1       2.669   3.406   6.087  0.00  0.00    -0.080 Cl
ENDBRANCH  12  18
ENDBRANCH  11  12
ENDBRANCH   7  11
ENDBRANCH   1   9
BRANCH   4  21
ATOM     21  S   UNL     1       0.520  -6.232  10.521  0.00  0.00    +0.100 S 
ATOM     22  O   UNL     1      -0.065  -5.596  11.649  0.00  0.00    -0.146 OA
ATOM     23  O   UNL     1       0.070  -7.491  10.038  0.00  0.00    -0.146 OA
BRANCH  21  24
ATOM     24  N   UNL     1       2.132  -6.403  10.856  0.00  0.00    -0.118 NA
ATOM     25  C   UNL     1       2.514  -7.188  11.811  0.00  0.00    +0.117 C 
ATOM     26  N   UNL     1       1.584  -7.910  12.574  0.00  0.00    -0.331 N 
ATOM     27  C   UNL     1       1.571  -9.335  12.413  0.00  0.00    +0.102 C 
ATOM     28  C   UNL     1       2.519 -10.121  13.333  0.00  0.00    +0.019 C 
ATOM     29  C   UNL     1       3.885  -9.399  13.447  0.00  0.00    +0.002 C 
ATOM     30  C   UNL     1       4.355  -8.823  12.140  0.00  0.00    +0.008 C 
ATOM     31  C   UNL     1       3.917  -7.356  12.126  0.00  0.00    +0.073 C 
ATOM     32  H   UNL     1       0.975  -7.464  13.184  0.00  0.00    +0.147 HD
ENDBRANCH  21  24
ENDBRANCH   4  21
TORSDOF 6
