REMARK  Name = ZINC39276551
REMARK  7 active torsions:
REMARK  status: ('A' for Active; 'I' for Inactive)
REMARK    1  A    between atoms: C_1  and  S_2
REMARK    2  A    between atoms: S_2  and  C_3
REMARK    3  A    between atoms: C_3  and  C_4
REMARK    4  A    between atoms: C_4  and  C_5
REMARK    5  A    between atoms: C_5  and  C_7
REMARK    6  A    between atoms: C_5  and  N_24
REMARK    7  A    between atoms: C_25  and  C_27
REMARK                            x       y       z     vdW  Elec       q    Type
REMARK                         _______ _______ _______ _____ _____    ______ ____
ROOT
ATOM      1  C   UNL     1       1.806  -3.790  -3.136  0.00  0.00    +0.236 C 
ATOM      2  O   UNL     1       2.893  -4.328  -3.115  0.00  0.00    -0.274 OA
ATOM      3  N   UNL     1       0.693  -4.529  -3.309  0.00  0.00    -0.300 N 
ATOM      4  C   UNL     1      -0.620  -3.884  -3.446  0.00  0.00    +0.106 C 
ATOM      5  C   UNL     1      -1.576  -4.488  -2.413  0.00  0.00    +0.009 C 
ATOM      6  C   UNL     1      -1.601  -6.008  -2.574  0.00  0.00    -0.037 C 
ATOM      7  C   UNL     1      -0.203  -6.578  -2.333  0.00  0.00    +0.009 C 
ATOM      8  C   UNL     1       0.769  -5.995  -3.370  0.00  0.00    +0.106 C 
ATOM      9  C   UNL     1      -2.586  -6.615  -1.572  0.00  0.00    +0.140 C 
ATOM     10  C   UNL     1      -3.961  -6.093  -1.978  0.00  0.00    +0.042 C 
ATOM     11  N   UNL     1      -4.439  -5.517  -0.945  0.00  0.00    -0.243 NA
ATOM     12  C   UNL     1      -3.546  -5.493   0.074  0.00  0.00    +0.216 C 
ATOM     13  N   UNL     1      -2.413  -6.098  -0.214  0.00  0.00    -0.264 NA
ATOM     14  C   UNL     1      -4.454  -6.199  -3.399  0.00  0.00    +0.034 C 
ATOM     15  C   UNL     1      -3.304  -5.686  -4.286  0.00  0.00    -0.076 C 
ATOM     16  N   UNL     1      -2.049  -6.353  -3.931  0.00  0.00    +0.385 N 
ATOM     17  H   UNL     1      -1.335  -6.080  -4.590  0.00  0.00    -0.085 HD
ATOM     18  H   UNL     1      -2.181  -7.352  -3.989  0.00  0.00    -0.085 HD
ENDROOT
BRANCH   1  19
ATOM     19  C   UNL     1       1.701  -2.296  -2.970  0.00  0.00    +0.160 C 
BRANCH  19  20
ATOM     20  N   UNL     1       2.967  -1.671  -3.359  0.00  0.00    -0.300 N 
ATOM     21  C   UNL     1       2.986  -0.390  -3.779  0.00  0.00    +0.246 C 
ATOM     22  O   UNL     1       1.951   0.246  -3.834  0.00  0.00    -0.270 OA
ATOM     23  H   UNL     1       3.793  -2.179  -3.315  0.00  0.00    +0.150 HD
BRANCH  21  24
ATOM     24  C   UNL     1       4.263   0.241  -4.172  0.00  0.00    +0.051 A 
ATOM     25  C   UNL     1       5.452  -0.489  -4.115  0.00  0.00    +0.014 A 
ATOM     26  C   UNL     1       6.641   0.105  -4.484  0.00  0.00    +0.001 A 
ATOM     27  C   UNL     1       6.657   1.423  -4.909  0.00  0.00    +0.001 A 
ATOM     28  C   UNL     1       5.484   2.152  -4.967  0.00  0.00    +0.016 A 
ATOM     29  C   UNL     1       4.286   1.567  -4.607  0.00  0.00    +0.030 A 
ATOM     30 BR   UNL     1       2.681   2.564  -4.695  0.00  0.00    -0.050 Br
ENDBRANCH  21  24
ENDBRANCH  19  20
BRANCH  19  31
ATOM     31  C   UNL     1       1.399  -1.966  -1.506  0.00  0.00    +0.042 C 
BRANCH  31  32
ATOM     32  C   UNL     1       1.143  -0.465  -1.364  0.00  0.00    +0.071 C 
BRANCH  32  34
ATOM     33  C   UNL     1       0.509   1.719   0.368  0.00  0.00    +0.084 C 
ATOM     34  S   UNL     1       0.784  -0.074   0.370  0.00  0.00    -0.164 S 
ENDBRANCH  32  34
ENDBRANCH  31  32
ENDBRANCH  19  31
ENDBRANCH   1  19
TORSDOF 6
