REMARK  Name = ZINC67044201
REMARK  5 active torsions:
REMARK  status: ('A' for Active; 'I' for Inactive)
REMARK    1  A    between atoms: C_1  and  C_2
REMARK    2  A    between atoms: C_2  and  C_3
REMARK    3  A    between atoms: C_2  and  C_4
REMARK    4  A    between atoms: C_2  and  C_5
REMARK    5  A    between atoms: N_16  and  C_17
REMARK                            x       y       z     vdW  Elec       q    Type
REMARK                         _______ _______ _______ _____ _____    ______ ____
ROOT
ATOM      1  C   UNL     1       0.433  -0.429  -1.237  0.00  0.00    +0.221 C 
ATOM      2  O   UNL     1       1.058   0.282  -1.995  0.00  0.00    -0.275 OA
ATOM      3  N   UNL     1       0.108  -1.685  -1.604  0.00  0.00    -0.299 N 
ATOM      4  C   UNL     1       0.444  -2.193  -2.888  0.00  0.00    +0.109 C 
ATOM      5  C   UNL     1      -0.572  -1.826  -4.019  0.00  0.00    +0.038 C 
ATOM      6  C   UNL     1      -2.005  -1.892  -3.397  0.00  0.00    +0.111 C 
ATOM      7  N   UNL     1      -2.197  -2.948  -2.465  0.00  0.00    -0.284 N 
ATOM      8  C   UNL     1      -2.034  -2.616  -1.026  0.00  0.00    +0.128 C 
ATOM      9  C   UNL     1      -0.611  -2.600  -0.681  0.00  0.00    +0.126 C 
ATOM     10  C   UNL     1      -2.513  -4.194  -2.868  0.00  0.00    +0.303 C 
ATOM     11  O   UNL     1      -2.640  -4.436  -4.053  0.00  0.00    -0.253 OA
ATOM     12  N   UNL     1      -2.689  -5.173  -1.958  0.00  0.00    -0.292 N 
ATOM     13  H   UNL     1      -2.588  -4.980  -1.013  0.00  0.00    +0.151 HD
ENDROOT
BRANCH  12  14
ATOM     14  C   UNL     1      -3.033  -6.527  -2.397  0.00  0.00    +0.108 C 
ATOM     15  C   UNL     1      -2.592  -7.542  -1.334  0.00  0.00    +0.027 C 
ATOM     16  C   UNL     1      -3.185  -8.915  -1.664  0.00  0.00    +0.010 C 
ATOM     17  C   UNL     1      -4.701  -8.887  -1.436  0.00  0.00    +0.075 C 
ATOM     18  C   UNL     1      -5.268  -7.683  -2.147  0.00  0.00    +0.110 A 
ATOM     19  C   UNL     1      -4.525  -6.640  -2.573  0.00  0.00    +0.014 A 
ATOM     20  C   UNL     1      -5.402  -5.727  -3.186  0.00  0.00    +0.047 A 
ATOM     21  C   UNL     1      -6.636  -6.261  -3.101  0.00  0.00    +0.195 A 
ATOM     22  O   UNL     1      -6.546  -7.446  -2.467  0.00  0.00    -0.467 OA
ENDBRANCH  12  14
BRANCH   1  24
ATOM     23  C   UNL     1       0.308   1.592   0.195  0.00  0.00    +0.020 C 
ATOM     24  C   UNL     1       0.020   0.092   0.116  0.00  0.00    +0.039 C 
ATOM     25  C   UNL     1       0.808  -0.637   1.206  0.00  0.00    +0.020 C 
ATOM     26  C   UNL     1      -1.477  -0.151   0.320  0.00  0.00    +0.020 C 
ENDBRANCH   1  24
TORSDOF 2
