REMARK  Name = ZINC38789970
REMARK  10 active torsions:
REMARK  status: ('A' for Active; 'I' for Inactive)
REMARK    1  A    between atoms: C_1  and  C_2
REMARK    2  A    between atoms: C_2  and  O_3
REMARK    3  A    between atoms: O_3  and  C_4
REMARK    4  A    between atoms: C_4  and  C_6
REMARK    5  A    between atoms: N_11  and  C_13
REMARK    6  A    between atoms: C_16  and  N_19
REMARK    7  A    between atoms: N_19  and  C_20
REMARK    8  A    between atoms: C_20  and  C_21
REMARK    9  A    between atoms: C_27  and  O_33
REMARK   10  A    between atoms: O_33  and  C_34
REMARK                            x       y       z     vdW  Elec       q    Type
REMARK                         _______ _______ _______ _____ _____    ______ ____
ROOT
ATOM      1  C   UNL     1      -4.598  -5.463   0.805  0.00  0.00    +0.030 A 
ATOM      2  C   UNL     1      -3.747  -5.951   1.788  0.00  0.00    +0.025 A 
ATOM      3  C   UNL     1      -4.205  -6.885   2.696  0.00  0.00    +0.025 A 
ATOM      4  C   UNL     1      -5.518  -7.334   2.628  0.00  0.00    +0.027 A 
ATOM      5  C   UNL     1      -6.369  -6.844   1.646  0.00  0.00    +0.025 A 
ATOM      6  C   UNL     1      -5.912  -5.907   0.741  0.00  0.00    +0.025 A 
ENDROOT
BRANCH   1  11
ATOM      7  C   UNL     1      -4.209  -4.268  -2.543  0.00  0.00    +0.115 C 
ATOM      8  C   UNL     1      -2.868  -3.536  -2.449  0.00  0.00    +0.018 C 
ATOM      9  C   UNL     1      -2.039  -4.132  -1.309  0.00  0.00    +0.020 C 
ATOM     10  C   UNL     1      -2.787  -3.942   0.015  0.00  0.00    +0.105 C 
ATOM     11  N   UNL     1      -4.133  -4.517  -0.116  0.00  0.00    -0.329 N 
ATOM     12  C   UNL     1      -4.982  -4.080  -1.233  0.00  0.00    +0.119 C 
BRANCH   7  13
ATOM     13  C   UNL     1      -5.012  -3.702  -3.686  0.00  0.00    +0.312 C 
ATOM     14  O   UNL     1      -6.091  -3.201  -3.477  0.00  0.00    -0.250 OA
BRANCH  13  15
ATOM     15  O   UNL     1      -4.527  -3.754  -4.936  0.00  0.00    -0.465 OA
BRANCH  15  17
ATOM     16  C   UNL     1      -4.628  -3.349  -7.317  0.00  0.00    +0.048 C 
ATOM     17  C   UNL     1      -5.341  -3.199  -5.971  0.00  0.00    +0.229 C 
ENDBRANCH  15  17
ENDBRANCH  13  15
ENDBRANCH   7  13
ENDBRANCH   1  11
BRANCH   4  18
ATOM     18  N   UNL     1      -5.982  -8.280   3.549  0.00  0.00    -0.343 N 
ATOM     19  H   UNL     1      -5.388  -8.622   4.235  0.00  0.00    +0.146 HD
BRANCH  18  20
ATOM     20  C   UNL     1      -7.367  -8.754   3.478  0.00  0.00    +0.118 C 
BRANCH  20  21
ATOM     21  C   UNL     1      -7.614  -9.775   4.589  0.00  0.00    +0.115 C 
ATOM     22  C   UNL     1      -8.974 -10.402   4.350  0.00  0.00    -0.003 C 
ATOM     23  C   UNL     1      -9.895 -10.295   5.346  0.00  0.00    -0.007 A 
ATOM     24  C   UNL     1     -11.232 -10.874   5.193  0.00  0.00    +0.013 A 
ATOM     25  C   UNL     1     -12.123 -10.748   6.205  0.00  0.00    +0.046 A 
ATOM     26  C   UNL     1     -11.789 -10.077   7.391  0.00  0.00    +0.122 A 
ATOM     27  C   UNL     1     -10.549  -9.513   7.593  0.00  0.00    +0.069 A 
ATOM     28  C   UNL     1      -9.563  -9.594   6.600  0.00  0.00    +0.044 A 
ATOM     29  N   UNL     1      -8.365  -9.042   6.806  0.00  0.00    -0.284 N 
ATOM     30  C   UNL     1      -7.391  -9.082   5.914  0.00  0.00    +0.226 C 
ATOM     31  O   UNL     1      -6.319  -8.562   6.159  0.00  0.00    -0.275 OA
ATOM     32  H   UNL     1      -8.201  -8.592   7.649  0.00  0.00    +0.155 HD
BRANCH  26  33
ATOM     33  O   UNL     1     -12.718  -9.981   8.372  0.00  0.00    -0.495 OA
ATOM     34  C   UNL     1     -13.991 -10.580   8.121  0.00  0.00    +0.277 C 
ENDBRANCH  26  33
ENDBRANCH  20  21
ENDBRANCH  18  20
ENDBRANCH   4  18
TORSDOF 8
