REMARK  Name = ZINC03470478
REMARK  5 active torsions:
REMARK  status: ('A' for Active; 'I' for Inactive)
REMARK    1  A    between atoms: C_8  and  C_10
REMARK    2  A    between atoms: C_13  and  N_17
REMARK    3  A    between atoms: C_15  and  O_16
REMARK    4  A    between atoms: C_18  and  C_19
REMARK    5  A    between atoms: C_22  and  C_24
REMARK                            x       y       z     vdW  Elec       q    Type
REMARK                         _______ _______ _______ _____ _____    ______ ____
ROOT
ATOM      1  C   UNL     1       3.635  -3.350  -0.052  0.00  0.00    +0.078 A 
ATOM      2  C   UNL     1       2.956  -4.573  -0.057  0.00  0.00    +0.019 A 
ATOM      3  C   UNL     1       3.654  -5.745  -0.070  0.00  0.00    +0.029 A 
ATOM      4  C   UNL     1       5.055  -5.732  -0.078  0.00  0.00    +0.067 A 
ATOM      5  C   UNL     1       5.743  -4.515  -0.072  0.00  0.00    +0.074 A 
ATOM      6  C   UNL     1       5.038  -3.327  -0.066  0.00  0.00    +0.131 A 
ENDROOT
BRANCH   1  14
ATOM      7  C   UNL     1      -0.017   1.373   0.010  0.00  0.00    +0.002 A 
ATOM      8  C   UNL     1       1.170   2.091   0.002  0.00  0.00    +0.004 A 
ATOM      9  C   UNL     1       2.385   1.437  -0.013  0.00  0.00    +0.048 A 
ATOM     10  C   UNL     1       2.423   0.052  -0.021  0.00  0.00    +0.156 A 
ATOM     11  C   UNL     1       1.225  -0.680  -0.013  0.00  0.00    +0.110 A 
ATOM     12  C   UNL     1       0.002  -0.004   0.002  0.00  0.00    +0.031 A 
ATOM     13  N   UNL     1       1.569  -1.994  -0.024  0.00  0.00    -0.209 NA
ATOM     14  C   UNL     1       2.877  -2.086  -0.037  0.00  0.00    +0.232 A 
ATOM     15  O   UNL     1       3.425  -0.856  -0.036  0.00  0.00    -0.435 OA
ENDBRANCH   1  14
BRANCH   6  16
ATOM     16  O   UNL     1       5.700  -2.142  -0.066  0.00  0.00    -0.506 OA
ATOM     17  H   UNL     1       5.900  -1.803   0.818  0.00  0.00    +0.292 HD
ENDBRANCH   6  16
BRANCH   4  18
ATOM     18  N   UNL     1       5.747  -6.907  -0.090  0.00  0.00    -0.252 NA
ATOM     19  C   UNL     1       5.393  -7.884   0.707  0.00  0.00    +0.157 C 
BRANCH  19  20
ATOM     20  C   UNL     1       6.111  -9.103   0.694  0.00  0.00    +0.147 A 
ATOM     21  C   UNL     1       5.843 -10.211   1.474  0.00  0.00    +0.051 A 
ATOM     22  C   UNL     1       6.793 -11.180   1.138  0.00  0.00    +0.050 A 
ATOM     23  C   UNL     1       7.598 -10.638   0.176  0.00  0.00    +0.136 A 
ATOM     24  O   UNL     1       7.175  -9.388  -0.086  0.00  0.00    -0.454 OA
BRANCH  23  25
ATOM     25  C   UNL     1       8.739 -11.313  -0.471  0.00  0.00    +0.017 A 
ATOM     26  C   UNL     1       9.072 -12.623  -0.117  0.00  0.00    +0.013 A 
ATOM     27  C   UNL     1      10.140 -13.248  -0.725  0.00  0.00    +0.021 A 
ATOM     28  C   UNL     1      10.882 -12.581  -1.685  0.00  0.00    +0.041 A 
ATOM     29  C   UNL     1      10.557 -11.282  -2.041  0.00  0.00    +0.021 A 
ATOM     30  C   UNL     1       9.488 -10.648  -1.445  0.00  0.00    +0.013 A 
ATOM     31 CL   UNL     1      12.225 -13.375  -2.446  0.00  0.00    -0.084 Cl
ENDBRANCH  23  25
ENDBRANCH  19  20
ENDBRANCH   4  18
TORSDOF 5
