REMARK  Name = ZINC16887014
REMARK  7 active torsions:
REMARK  status: ('A' for Active; 'I' for Inactive)
REMARK    1  A    between atoms: C_4  and  C_7
REMARK    2  A    between atoms: C_8  and  C_9
REMARK    3  A    between atoms: N_11  and  C_12
REMARK    4  A    between atoms: C_12  and  C_20
REMARK    5  A    between atoms: C_13  and  C_14
REMARK    6  A    between atoms: N_22  and  C_23
REMARK    7  A    between atoms: C_28  and  O_29
REMARK                            x       y       z     vdW  Elec       q    Type
REMARK                         _______ _______ _______ _____ _____    ______ ____
ROOT
ATOM      1  C   UNL     1      -0.164   0.007   4.827  0.00  0.00    +0.097 C 
ATOM      2  C   UNL     1      -0.196   1.359   4.780  0.00  0.00    +0.036 C 
ENDROOT
BRANCH   2   3
ATOM      3  C   UNL     1      -0.207   2.138   6.028  0.00  0.00    -0.023 A 
ATOM      4  C   UNL     1      -0.708   1.572   7.205  0.00  0.00    +0.008 A 
ATOM      5  C   UNL     1      -0.709   2.307   8.372  0.00  0.00    +0.001 A 
ATOM      6  C   UNL     1      -0.227   3.605   8.377  0.00  0.00    +0.000 A 
ATOM      7  C   UNL     1       0.265   4.173   7.215  0.00  0.00    +0.001 A 
ATOM      8  C   UNL     1       0.278   3.450   6.042  0.00  0.00    +0.008 A 
ENDBRANCH   2   3
BRANCH   1  11
ATOM      9  C   UNL     1      -1.233  -1.516   6.307  0.00  0.00    +0.241 C 
ATOM     10  O   UNL     1      -2.032  -1.790   5.431  0.00  0.00    -0.270 OA
ATOM     11  N   UNL     1      -0.229  -0.652   6.058  0.00  0.00    -0.278 N 
ATOM     12  H   UNL     1       0.448  -0.487   6.732  0.00  0.00    +0.155 HD
BRANCH   9  14
ATOM     13  C   UNL     1      -2.304  -3.064   7.853  0.00  0.00    +0.013 C 
ATOM     14  C   UNL     1      -1.363  -2.124   7.632  0.00  0.00    +0.068 C 
BRANCH  13  18
ATOM     15  C   UNL     1      -2.893  -4.597  11.764  0.00  0.00    +0.000 A 
ATOM     16  C   UNL     1      -3.670  -5.064  10.718  0.00  0.00    +0.001 A 
ATOM     17  C   UNL     1      -3.484  -4.570   9.444  0.00  0.00    +0.008 A 
ATOM     18  C   UNL     1      -2.509  -3.595   9.210  0.00  0.00    -0.025 A 
ATOM     19  C   UNL     1      -1.725  -3.133  10.272  0.00  0.00    +0.008 A 
ATOM     20  C   UNL     1      -1.925  -3.633  11.541  0.00  0.00    +0.001 A 
ENDBRANCH  13  18
ENDBRANCH   9  14
ENDBRANCH   1  11
BRANCH   1  21
ATOM     21  C   UNL     1      -0.060  -0.770   3.583  0.00  0.00    +0.263 C 
ATOM     22  O   UNL     1      -0.031  -1.985   3.625  0.00  0.00    -0.268 OA
ATOM     23  N   UNL     1       0.004  -0.135   2.395  0.00  0.00    -0.278 N 
ATOM     24  H   UNL     1       0.066   0.833   2.366  0.00  0.00    +0.155 HD
BRANCH  23  25
ATOM     25  C   UNL     1      -0.021  -0.872   1.205  0.00  0.00    +0.076 A 
ATOM     26  C   UNL     1      -0.605  -2.130   1.178  0.00  0.00    +0.027 A 
ATOM     27  C   UNL     1      -0.628  -2.856   0.002  0.00  0.00    +0.002 A 
ATOM     28  C   UNL     1      -0.072  -2.330  -1.150  0.00  0.00    +0.004 A 
ATOM     29  C   UNL     1       0.507  -1.075  -1.132  0.00  0.00    +0.047 A 
ATOM     30  C   UNL     1       0.539  -0.343   0.044  0.00  0.00    +0.138 A 
BRANCH  30  31
ATOM     31  O   UNL     1       1.112   0.890   0.065  0.00  0.00    -0.505 OA
ATOM     32  H   UNL     1       2.055   0.882   0.280  0.00  0.00    +0.292 HD
ENDBRANCH  30  31
ENDBRANCH  23  25
ENDBRANCH   1  21
TORSDOF 7
