REMARK  Name = ZINC39666183
REMARK  11 active torsions:
REMARK  status: ('A' for Active; 'I' for Inactive)
REMARK    1  A    between atoms: C_1  and  C_2
REMARK    2  A    between atoms: C_5  and  O_8
REMARK    3  A    between atoms: O_8  and  C_9
REMARK    4  A    between atoms: C_9  and  C_11
REMARK    5  A    between atoms: C_9  and  C_12
REMARK    6  A    between atoms: C_12  and  N_13
REMARK    7  A    between atoms: C_14  and  C_16
REMARK    8  A    between atoms: C_27  and  C_29
REMARK    9  A    between atoms: C_29  and  C_30
REMARK   10  A    between atoms: C_30  and  C_31
REMARK   11  A    between atoms: C_31  and  C_32
REMARK                            x       y       z     vdW  Elec       q    Type
REMARK                         _______ _______ _______ _____ _____    ______ ____
ROOT
ATOM      1  C   UNL     1      -3.890  -6.928  -0.092  0.00  0.00    +0.100 C 
ATOM      2  C   UNL     1      -3.846  -6.412  -1.548  0.00  0.00    +0.121 C 
ATOM      3  N   UNL     1      -3.910  -7.637  -2.380  0.00  0.00    -0.300 N 
ATOM      4  C   UNL     1      -4.879  -8.511  -1.676  0.00  0.00    +0.115 C 
ATOM      5  C   UNL     1      -4.571  -8.303  -0.180  0.00  0.00    -0.004 C 
ATOM      6  C   UNL     1      -5.864  -8.306   0.630  0.00  0.00    -0.010 C 
ATOM      7  C   UNL     1      -6.493  -9.700   0.576  0.00  0.00    -0.082 C 
ATOM      8  N   UNL     1      -5.550 -10.686   1.119  0.00  0.00    +0.379 N 
ATOM      9  C   UNL     1      -4.348 -10.744   0.279  0.00  0.00    -0.082 C 
ATOM     10  C   UNL     1      -3.628  -9.393   0.321  0.00  0.00    -0.010 C 
ATOM     11  C   UNL     1      -3.240  -7.897  -3.520  0.00  0.00    +0.216 C 
ATOM     12  O   UNL     1      -3.401  -8.955  -4.091  0.00  0.00    -0.276 OA
ATOM     13  H   UNL     1      -5.291 -10.421   2.057  0.00  0.00    -0.086 HD
ATOM     14  H   UNL     1      -5.989 -11.594   1.138  0.00  0.00    -0.086 HD
ENDROOT
BRANCH   1  16
ATOM     15  N   UNL     1      -2.271  -6.928   1.779  0.00  0.00    -0.312 N 
ATOM     16  C   UNL     1      -2.493  -7.068   0.457  0.00  0.00    +0.218 C 
ATOM     17  O   UNL     1      -1.569  -7.306  -0.291  0.00  0.00    -0.275 OA
ATOM     18  H   UNL     1      -3.011  -6.738   2.377  0.00  0.00    +0.149 HD
BRANCH  15  19
ATOM     19  C   UNL     1      -0.914  -7.065   2.312  0.00  0.00    +0.148 C 
BRANCH  19  20
ATOM     20  C   UNL     1      -0.939  -6.862   3.829  0.00  0.00    +0.187 C 
ATOM     21  C   UNL     1       0.479  -7.005   4.386  0.00  0.00    +0.053 C 
BRANCH  20  22
ATOM     22  O   UNL     1      -1.439  -5.557   4.127  0.00  0.00    -0.488 OA
BRANCH  22  27
ATOM     23  C   UNL     1      -3.764  -4.808   9.202  0.00  0.00    +0.044 C 
ATOM     24  C   UNL     1      -3.142  -5.008   7.844  0.00  0.00    -0.050 A 
ATOM     25  C   UNL     1      -2.540  -6.213   7.532  0.00  0.00    +0.007 A 
ATOM     26  C   UNL     1      -1.968  -6.399   6.288  0.00  0.00    +0.046 A 
ATOM     27  C   UNL     1      -2.000  -5.377   5.351  0.00  0.00    +0.121 A 
ATOM     28  C   UNL     1      -2.606  -4.169   5.666  0.00  0.00    +0.046 A 
ATOM     29  C   UNL     1      -3.180  -3.990   6.910  0.00  0.00    +0.007 A 
ENDBRANCH  22  27
ENDBRANCH  20  22
ENDBRANCH  19  20
ENDBRANCH  15  19
ENDBRANCH   1  16
BRANCH  11  30
ATOM     30  C   UNL     1      -2.290  -6.873  -4.086  0.00  0.00    +0.096 C 
BRANCH  30  31
ATOM     31  C   UNL     1      -1.665  -7.413  -5.374  0.00  0.00    +0.014 C 
BRANCH  31  32
ATOM     32  C   UNL     1      -0.701  -6.374  -5.948  0.00  0.00    +0.035 C 
BRANCH  32  33
ATOM     33  C   UNL     1      -0.085  -6.906  -7.216  0.00  0.00    -0.047 A 
ATOM     34  C   UNL     1       1.089  -7.634  -7.162  0.00  0.00    +0.003 A 
ATOM     35  C   UNL     1       1.653  -8.123  -8.326  0.00  0.00    +0.000 A 
ATOM     36  C   UNL     1       1.044  -7.883  -9.543  0.00  0.00    +0.000 A 
ATOM     37  C   UNL     1      -0.131  -7.156  -9.597  0.00  0.00    +0.000 A 
ATOM     38  C   UNL     1      -0.697  -6.671  -8.433  0.00  0.00    +0.003 A 
ENDBRANCH  32  33
ENDBRANCH  31  32
ENDBRANCH  30  31
ENDBRANCH  11  30
TORSDOF 9
