REMARK  Name = ZINC44940463
REMARK  8 active torsions:
REMARK  status: ('A' for Active; 'I' for Inactive)
REMARK    1  A    between atoms: C_1  and  C_2
REMARK    2  A    between atoms: C_2  and  C_38
REMARK    3  A    between atoms: C_4  and  N_11
REMARK    4  A    between atoms: C_6  and  C_9
REMARK    5  A    between atoms: C_6  and  C_10
REMARK    6  A    between atoms: N_7  and  C_8
REMARK    7  A    between atoms: C_12  and  C_14
REMARK    8  A    between atoms: C_20  and  C_22
REMARK                            x       y       z     vdW  Elec       q    Type
REMARK                         _______ _______ _______ _____ _____    ______ ____
ROOT
ATOM      1  C   UNL     1       2.240  -4.001  -4.239  0.00  0.00    +0.091 C 
ATOM      2  C   UNL     1       3.746  -3.770  -4.101  0.00  0.00    +0.040 C 
ATOM      3  C   UNL     1       4.473  -4.404  -5.251  0.00  0.00    -0.030 C 
ATOM      4  C   UNL     1       3.959  -5.302  -6.028  0.00  0.00    -0.030 C 
ATOM      5  C   UNL     1       2.559  -5.827  -5.894  0.00  0.00    +0.040 C 
ATOM      6  C   UNL     1       1.996  -5.490  -4.513  0.00  0.00    +0.091 C 
ENDROOT
BRANCH   6   7
ATOM      7  C   UNL     1       2.698  -6.319  -3.468  0.00  0.00    +0.220 C 
ATOM      8  O   UNL     1       3.909  -6.308  -3.398  0.00  0.00    -0.275 OA
ATOM      9  N   UNL     1       1.981  -7.072  -2.611  0.00  0.00    -0.295 N 
ATOM     10  C   UNL     1       2.637  -7.799  -1.514  0.00  0.00    +0.113 C 
ATOM     11  C   UNL     1       2.147  -7.230  -0.177  0.00  0.00    +0.056 C 
ATOM     12  C   UNL     1       0.649  -7.069  -0.232  0.00  0.00    -0.016 A 
ATOM     13  C   UNL     1      -0.278  -6.911   0.870  0.00  0.00    +0.003 A 
ATOM     14  C   UNL     1      -0.102  -6.861   2.256  0.00  0.00    +0.010 A 
ATOM     15  C   UNL     1      -1.232  -6.697   3.019  0.00  0.00    +0.001 A 
ATOM     16  C   UNL     1      -2.492  -6.585   2.454  0.00  0.00    +0.002 A 
ATOM     17  C   UNL     1      -2.695  -6.631   1.086  0.00  0.00    +0.026 A 
ATOM     18  C   UNL     1      -1.566  -6.796   0.286  0.00  0.00    +0.047 A 
ATOM     19  N   UNL     1      -1.407  -6.880  -1.067  0.00  0.00    -0.356 N 
ATOM     20  H   UNL     1      -2.125  -6.830  -1.718  0.00  0.00    +0.166 HD
ATOM     21  C   UNL     1      -0.081  -7.045  -1.368  0.00  0.00    +0.038 A 
ATOM     22  C   UNL     1       0.518  -7.184  -2.746  0.00  0.00    +0.161 C 
ENDBRANCH   6   7
BRANCH   1  24
ATOM     23  N   UNL     1       1.634  -2.331  -2.518  0.00  0.00    -0.312 N 
ATOM     24  C   UNL     1       1.548  -3.600  -2.961  0.00  0.00    +0.217 C 
ATOM     25  O   UNL     1       0.913  -4.421  -2.333  0.00  0.00    -0.275 OA
ATOM     26  H   UNL     1       2.141  -1.675  -3.020  0.00  0.00    +0.149 HD
BRANCH  23  30
ATOM     27  C   UNL     1      -0.021   1.548  -0.003  0.00  0.00    -0.010 C 
ATOM     28  C   UNL     1       0.000   0.001  -0.009  0.00  0.00    -0.069 C 
ATOM     29  C   UNL     1       0.670  -0.440  -1.306  0.00  0.00    +0.010 C 
ATOM     30  C   UNL     1       0.959  -1.941  -1.273  0.00  0.00    +0.070 C 
ATOM     31  C   UNL     1       1.885  -2.222  -0.089  0.00  0.00    +0.010 C 
ATOM     32  C   UNL     1       1.223  -1.794   1.216  0.00  0.00    -0.069 C 
ATOM     33  N   UNL     1       0.710  -0.433   1.183  0.00  0.00    +0.385 N 
ATOM     34  C   UNL     1      -0.162  -0.225   2.359  0.00  0.00    -0.095 C 
ATOM     35  C   UNL     1       2.300  -1.861   2.324  0.00  0.00    -0.010 C 
ATOM     36  C   UNL     1       0.126  -2.794   1.595  0.00  0.00    -0.010 C 
ATOM     37  C   UNL     1      -1.458  -0.468   0.009  0.00  0.00    -0.010 C 
ATOM     38  H   UNL     1       1.512   0.199   1.310  0.00  0.00    -0.081 HD
ENDBRANCH  23  30
ENDBRANCH   1  24
TORSDOF 3
