REMARK  Name = ZINC27604396
REMARK  12 active torsions:
REMARK  status: ('A' for Active; 'I' for Inactive)
REMARK    1  A    between atoms: C_1  and  C_2
REMARK    2  A    between atoms: C_5  and  S_8
REMARK    3  A    between atoms: S_8  and  N_11
REMARK    4  A    between atoms: N_11  and  C_12
REMARK    5  A    between atoms: C_12  and  C_14
REMARK    6  A    between atoms: C_12  and  C_17
REMARK    7  A    between atoms: C_14  and  C_15
REMARK    8  A    between atoms: C_14  and  C_16
REMARK    9  A    between atoms: N_19  and  C_20
REMARK   10  A    between atoms: C_20  and  C_21
REMARK   11  A    between atoms: C_21  and  C_23
REMARK   12  A    between atoms: C_21  and  N_28
REMARK                            x       y       z     vdW  Elec       q    Type
REMARK                         _______ _______ _______ _____ _____    ______ ____
ROOT
ATOM      1  C   UNL     1       4.544  -3.443   1.892  0.00  0.00    +0.232 C 
ATOM      2  O   UNL     1       4.270  -2.932   2.957  0.00  0.00    -0.274 OA
ATOM      3  N   UNL     1       4.370  -2.752   0.748  0.00  0.00    -0.315 N 
ATOM      4  H   UNL     1       4.530  -3.245  -0.223  0.00  0.00    +0.149 HD
ENDROOT
BRANCH   1   5
ATOM      5  C   UNL     1       5.077  -4.852   1.847  0.00  0.00    +0.165 C 
BRANCH   5   6
ATOM      6  C   UNL     1       3.990  -5.793   1.325  0.00  0.00    +0.010 C 
ATOM      7  C   UNL     1       4.567  -7.201   1.167  0.00  0.00    +0.009 C 
ATOM      8  C   UNL     1       2.826  -5.828   2.318  0.00  0.00    +0.009 C 
ENDBRANCH   5   6
BRANCH   5   9
ATOM      9  N   UNL     1       5.476  -5.266   3.195  0.00  0.00    -0.178 NA
ATOM     10  H   UNL     1       4.807  -5.081   4.047  0.00  0.00    +0.149 HD
BRANCH   9  11
ATOM     11  S   UNL     1       7.024  -5.782   3.478  0.00  0.00    +0.059 S 
ATOM     12  O   UNL     1       7.107  -6.076   4.866  0.00  0.00    -0.153 OA
ATOM     13  O   UNL     1       7.321  -6.746   2.477  0.00  0.00    -0.153 OA
BRANCH  11  18
ATOM     14  C   UNL     1      10.681  -1.086   2.489  0.00  0.00    +0.044 C 
ATOM     15  C   UNL     1       9.768  -2.259   2.736  0.00  0.00    -0.050 A 
ATOM     16  C   UNL     1       9.245  -2.474   3.998  0.00  0.00    +0.005 A 
ATOM     17  C   UNL     1       8.408  -3.550   4.224  0.00  0.00    +0.029 A 
ATOM     18  C   UNL     1       8.092  -4.411   3.189  0.00  0.00    +0.105 A 
ATOM     19  C   UNL     1       8.618  -4.198   1.929  0.00  0.00    +0.029 A 
ATOM     20  C   UNL     1       9.452  -3.119   1.701  0.00  0.00    +0.005 A 
ENDBRANCH  11  18
ENDBRANCH   9  11
ENDBRANCH   5   9
ENDBRANCH   1   5
BRANCH   3  21
ATOM     21  C   UNL     1       3.968  -1.344   0.797  0.00  0.00    +0.094 C 
BRANCH  21  22
ATOM     22  C   UNL     1       3.842  -0.800  -0.628  0.00  0.00    -0.013 C 
BRANCH  22  23
ATOM     23  N   UNL     1       2.920  -1.646  -1.396  0.00  0.00    +0.386 N 
ATOM     24  C   UNL     1       1.675  -1.909  -0.628  0.00  0.00    -0.078 C 
ATOM     25  C   UNL     1       0.662  -2.322  -1.726  0.00  0.00    -0.020 C 
ATOM     26  C   UNL     1       1.035  -1.396  -2.906  0.00  0.00    -0.020 C 
ATOM     27  C   UNL     1       2.491  -0.970  -2.639  0.00  0.00    -0.078 C 
ATOM     28  H   UNL     1       3.472  -2.573  -1.610  0.00  0.00    -0.081 HD
ENDBRANCH  22  23
BRANCH  22  29
ATOM     29  C   UNL     1       3.311   0.610  -0.582  0.00  0.00    -0.022 A 
ATOM     30  C   UNL     1       3.986   1.780  -0.695  0.00  0.00    +0.009 A 
ATOM     31  C   UNL     1       3.283   2.968  -0.622  0.00  0.00    +0.008 A 
ATOM     32  C   UNL     1       1.940   2.928  -0.440  0.00  0.00    +0.045 A 
ATOM     33  S   UNL     1       1.631   1.171  -0.365  0.00  0.00    -0.103 S 
ENDBRANCH  22  29
ENDBRANCH  21  22
ENDBRANCH   3  21
TORSDOF 9
