REMARK  Name = ZINC11783882
REMARK  6 active torsions:
REMARK  status: ('A' for Active; 'I' for Inactive)
REMARK    1  A    between atoms: C_9  and  S_11
REMARK    2  A    between atoms: S_11  and  C_12
REMARK    3  A    between atoms: C_15  and  C_25
REMARK    4  A    between atoms: C_18  and  C_19
REMARK    5  A    between atoms: C_18  and  N_73
REMARK    6  A    between atoms: N_30  and  C_33
REMARK                            x       y       z     vdW  Elec       q    Type
REMARK                         _______ _______ _______ _____ _____    ______ ____
ROOT
ATOM      1  C   UNL     1      -1.111   7.988   0.053  0.00  0.00    +0.037 C 
ATOM      2  C   UNL     1      -1.594   9.450   0.191  0.00  0.00    +0.006 C 
ATOM      3  C   UNL     1      -0.697  10.262  -0.761  0.00  0.00    +0.020 C 
ATOM      4  C   UNL     1      -0.408   7.984  -1.328  0.00  0.00    -0.063 C 
ATOM      5  N   UNL     1       0.240   9.300  -1.355  0.00  0.00    +0.388 N 
ATOM      6  H   UNL     1       1.105   9.272  -0.803  0.00  0.00    -0.081 HD
ENDROOT
BRANCH   3   7
ATOM      7  C   UNL     1       0.054  11.314   0.013  0.00  0.00    +0.202 C 
ATOM      8  O   UNL     1       1.267  11.296   0.043  0.00  0.00    -0.277 OA
ATOM      9  N   UNL     1      -0.622  12.276   0.672  0.00  0.00    -0.300 N 
ATOM     10  C   UNL     1      -2.091  12.320   0.644  0.00  0.00    +0.126 C 
ATOM     11  C   UNL     1      -2.598  12.417   2.092  0.00  0.00    +0.124 C 
ATOM     12  N   UNL     1      -1.956  13.559   2.756  0.00  0.00    -0.325 N 
ATOM     13  C   UNL     1      -0.501  13.373   2.846  0.00  0.00    +0.124 C 
ATOM     14  C   UNL     1       0.091  13.313   1.434  0.00  0.00    +0.126 C 
BRANCH  12  15
ATOM     15  C   UNL     1      -2.512  13.783   4.019  0.00  0.00    +0.065 A 
ATOM     16  C   UNL     1      -2.386  12.823   5.014  0.00  0.00    +0.026 A 
ATOM     17  C   UNL     1      -2.933  13.049   6.263  0.00  0.00    +0.002 A 
ATOM     18  C   UNL     1      -3.614  14.225   6.519  0.00  0.00    +0.003 A 
ATOM     19  C   UNL     1      -3.746  15.182   5.530  0.00  0.00    +0.040 A 
ATOM     20  C   UNL     1      -3.197  14.965   4.279  0.00  0.00    +0.144 A 
ATOM     21  F   UNL     1      -3.326  15.899   3.312  0.00  0.00    -0.204 F 
ENDBRANCH  12  15
ENDBRANCH   3   7
BRANCH   1  22
ATOM     22  S   UNL     1      -2.515   6.846   0.060  0.00  0.00    -0.086 S 
BRANCH  22  31
ATOM     23  C   UNL     1      -0.013   1.076   0.008  0.00  0.00    +0.002 A 
ATOM     24  C   UNL     1       1.182   1.781   0.000  0.00  0.00    +0.002 A 
ATOM     25  C   UNL     1       1.180   3.158   0.007  0.00  0.00    +0.030 A 
ATOM     26  C   UNL     1      -0.033   3.850   0.022  0.00  0.00    +0.090 A 
ATOM     27  C   UNL     1      -1.240   3.131   0.030  0.00  0.00    +0.067 A 
ATOM     28  C   UNL     1      -1.219   1.745   0.017  0.00  0.00    +0.028 A 
ATOM     29  N   UNL     1      -2.252   4.077   0.044  0.00  0.00    -0.333 N 
ATOM     30  H   UNL     1      -3.235   3.893   0.052  0.00  0.00    +0.168 HD
ATOM     31  C   UNL     1      -1.658   5.307   0.045  0.00  0.00    +0.167 A 
ATOM     32  N   UNL     1      -0.354   5.171   0.032  0.00  0.00    -0.222 NA
ENDBRANCH  22  31
ENDBRANCH   1  22
BRANCH   5  33
ATOM     33  C   UNL     1       0.567   9.696  -2.758  0.00  0.00    -0.074 C 
BRANCH  33  34
ATOM     34  C   UNL     1       1.732   8.849  -3.274  0.00  0.00    -0.028 C 
ATOM     35  C   UNL     1       2.993   9.172  -2.470  0.00  0.00    +0.002 C 
ATOM     36  C   UNL     1       4.158   8.325  -2.986  0.00  0.00    +0.000 C 
ATOM     37  C   UNL     1       4.401   8.637  -4.464  0.00  0.00    +0.000 C 
ATOM     38  C   UNL     1       3.139   8.313  -5.268  0.00  0.00    +0.000 C 
ATOM     39  C   UNL     1       1.974   9.161  -4.752  0.00  0.00    +0.002 C 
ENDBRANCH  33  34
ENDBRANCH   5  33
TORSDOF 6
