REMARK  Name = ZINC23505063
REMARK  8 active torsions:
REMARK  status: ('A' for Active; 'I' for Inactive)
REMARK    1  A    between atoms: C_1  and  C_2
REMARK    2  A    between atoms: C_2  and  C_3
REMARK    3  A    between atoms: C_7  and  C_29
REMARK    4  A    between atoms: C_8  and  N_9
REMARK    5  A    between atoms: C_11  and  C_16
REMARK    6  A    between atoms: C_20  and  C_22
REMARK    7  A    between atoms: N_24  and  C_28
REMARK    8  A    between atoms: C_26  and  C_27
REMARK                            x       y       z     vdW  Elec       q    Type
REMARK                         _______ _______ _______ _____ _____    ______ ____
ROOT
ATOM      1  N   UNL     1       2.828  -0.307   0.140  0.00  0.00    -0.270 N 
ATOM      2  C   UNL     1       3.246   1.036   0.562  0.00  0.00    +0.125 C 
ATOM      3  C   UNL     1       3.483   0.934   2.085  0.00  0.00    +0.081 C 
ATOM      4  C   UNL     1       3.806  -0.569   2.254  0.00  0.00    +0.109 C 
ATOM      5  C   UNL     1       3.130  -1.228   1.071  0.00  0.00    +0.221 C 
ATOM      6  O   UNL     1       2.897  -2.414   0.977  0.00  0.00    -0.275 OA
ENDROOT
BRANCH   1  12
ATOM      7  C   UNL     1       0.810  -0.494  -1.173  0.00  0.00    -0.026 A 
ATOM      8  C   UNL     1       0.185  -0.769  -2.374  0.00  0.00    +0.005 A 
ATOM      9  C   UNL     1       0.933  -1.146  -3.474  0.00  0.00    +0.001 A 
ATOM     10  C   UNL     1       2.309  -1.248  -3.377  0.00  0.00    +0.005 A 
ATOM     11  C   UNL     1       2.940  -0.973  -2.179  0.00  0.00    -0.029 A 
ATOM     12  C   UNL     1       2.192  -0.590  -1.073  0.00  0.00    +0.042 A 
ATOM     13  C   UNL     1       4.439  -1.085  -2.073  0.00  0.00    +0.045 C 
BRANCH   7  15
ATOM     14  C   UNL     1      -0.342  -1.321   0.861  0.00  0.00    +0.009 C 
ATOM     15  C   UNL     1      -0.006  -0.084   0.025  0.00  0.00    +0.033 C 
ENDBRANCH   7  15
ENDBRANCH   1  12
BRANCH   3  16
ATOM     16  C   UNL     1       4.651   1.788   2.507  0.00  0.00    +0.113 A 
ATOM     17  N   UNL     1       5.949   1.417   2.469  0.00  0.00    -0.347 N 
ATOM     18  H   UNL     1       6.293   0.561   2.168  0.00  0.00    +0.167 HD
ATOM     19  C   UNL     1       6.689   2.470   2.934  0.00  0.00    +0.112 A 
ATOM     20  C   UNL     1       5.811   3.458   3.243  0.00  0.00    +0.092 A 
ATOM     21  N   UNL     1       4.571   3.007   2.963  0.00  0.00    -0.232 NA
BRANCH  20  22
ATOM     22  C   UNL     1       6.154   4.798   3.786  0.00  0.00    +0.042 A 
ATOM     23  C   UNL     1       7.407   5.259   4.059  0.00  0.00    +0.118 A 
ATOM     24  N   UNL     1       7.285   6.516   4.535  0.00  0.00    -0.274 N 
ATOM     25  N   UNL     1       5.924   6.843   4.559  0.00  0.00    -0.176 NA
ATOM     26  C   UNL     1       5.244   5.823   4.107  0.00  0.00    +0.069 A 
ATOM     27  C   UNL     1       3.746   5.754   3.958  0.00  0.00    +0.068 C 
ATOM     28  C   UNL     1       8.386   7.387   4.955  0.00  0.00    +0.172 C 
ENDBRANCH  20  22
ENDBRANCH   3  16
TORSDOF 4
