REMARK  Name = ZINC00883401
REMARK  6 active torsions:
REMARK  status: ('A' for Active; 'I' for Inactive)
REMARK    1  A    between atoms: C_1  and  O_2
REMARK    2  A    between atoms: O_2  and  C_3
REMARK    3  A    between atoms: C_6  and  C_11
REMARK    4  A    between atoms: C_8  and  O_9
REMARK    5  A    between atoms: O_9  and  C_10
REMARK    6  A    between atoms: C_16  and  C_21
REMARK                            x       y       z     vdW  Elec       q    Type
REMARK                         _______ _______ _______ _____ _____    ______ ____
ROOT
ATOM      1  C   UNL     1      -0.644   5.869  -1.289  0.00  0.00    +0.136 C 
ATOM      2  C   UNL     1      -2.111   5.575  -1.493  0.00  0.00    +0.036 C 
ATOM      3  C   UNL     1      -2.830   4.654  -0.830  0.00  0.00    +0.017 C 
ATOM      4  C   UNL     1      -4.297   4.439  -1.164  0.00  0.00    +0.060 C 
ATOM      5  C   UNL     1      -4.933   5.762  -1.586  0.00  0.00    +0.039 C 
ATOM      6  C   UNL     1      -4.179   6.268  -2.822  0.00  0.00    +0.088 C 
ATOM      7  C   UNL     1      -2.723   6.379  -2.483  0.00  0.00    +0.163 C 
ATOM      8  O   UNL     1      -2.043   7.190  -3.082  0.00  0.00    -0.292 OA
ATOM      9  N   UNL     1      -2.347   3.850   0.150  0.00  0.00    -0.316 N 
ATOM     10  C   UNL     1      -1.154   3.139   0.076  0.00  0.00    +0.052 A 
ATOM     11  C   UNL     1      -1.115   1.756   0.082  0.00  0.00    +0.025 A 
ATOM     12  C   UNL     1       0.110   1.111   0.071  0.00  0.00    +0.002 A 
ATOM     13  C   UNL     1       1.284   1.843   0.042  0.00  0.00    +0.002 A 
ATOM     14  C   UNL     1       1.246   3.226   0.013  0.00  0.00    +0.025 A 
ATOM     15  C   UNL     1       0.021   3.874   0.015  0.00  0.00    +0.049 A 
ATOM     16  N   UNL     1      -0.069   5.259  -0.109  0.00  0.00    -0.331 N 
ATOM     17  H   UNL     1      -2.871   3.764   0.962  0.00  0.00    +0.152 HD
ATOM     18  H   UNL     1       0.259   5.824   0.608  0.00  0.00    +0.147 HD
ENDROOT
BRANCH   1  22
ATOM     19  C   UNL     1       1.505   4.481  -4.716  0.00  0.00    +0.162 A 
ATOM     20  C   UNL     1       0.822   3.583  -3.912  0.00  0.00    +0.050 A 
ATOM     21  C   UNL     1       0.128   4.035  -2.805  0.00  0.00    +0.009 A 
ATOM     22  C   UNL     1       0.114   5.382  -2.497  0.00  0.00    -0.019 A 
ATOM     23  C   UNL     1       0.789   6.285  -3.297  0.00  0.00    +0.055 A 
ATOM     24  C   UNL     1       1.491   5.838  -4.406  0.00  0.00    +0.162 A 
BRANCH  19  26
ATOM     25  C   UNL     1       2.156   2.633  -6.064  0.00  0.00    +0.277 C 
ATOM     26  O   UNL     1       2.187   4.038  -5.806  0.00  0.00    -0.491 OA
ENDBRANCH  19  26
BRANCH  24  27
ATOM     27  O   UNL     1       2.160   6.723  -5.191  0.00  0.00    -0.491 OA
ATOM     28  C   UNL     1       2.102   8.100  -4.812  0.00  0.00    +0.277 C 
ENDBRANCH  24  27
ENDBRANCH   1  22
BRANCH   5  29
ATOM     29  C   UNL     1      -6.385   5.546  -1.926  0.00  0.00    -0.006 A 
ATOM     30  C   UNL     1      -7.484   6.126  -1.385  0.00  0.00    +0.011 A 
ATOM     31  C   UNL     1      -8.732   5.771  -1.861  0.00  0.00    +0.008 A 
ATOM     32  C   UNL     1      -8.820   4.853  -2.854  0.00  0.00    +0.045 A 
ATOM     33  S   UNL     1      -7.103   4.465  -3.152  0.00  0.00    -0.101 S 
ENDBRANCH   5  29
TORSDOF 4
