REMARK  Name = ZINC58914599
REMARK  6 active torsions:
REMARK  status: ('A' for Active; 'I' for Inactive)
REMARK    1  A    between atoms: C_3  and  C_10
REMARK    2  A    between atoms: C_5  and  N_7
REMARK    3  A    between atoms: C_13  and  C_15
REMARK    4  A    between atoms: N_16  and  N_17
REMARK    5  A    between atoms: C_18  and  C_20
REMARK    6  A    between atoms: N_22  and  C_23
REMARK                            x       y       z     vdW  Elec       q    Type
REMARK                         _______ _______ _______ _____ _____    ______ ____
ROOT
ATOM      1  C   UNL     1       7.142   2.373  -0.053  0.00  0.00    +0.176 C 
ATOM      2  N   UNL     1       7.657   1.151   0.005  0.00  0.00    -0.184 NA
ENDROOT
BRANCH   1   6
ATOM      3  C   UNL     1       3.621   2.139   0.267  0.00  0.00    +0.136 A 
ATOM      4  C   UNL     1       3.743   3.551   0.237  0.00  0.00    +0.050 A 
ATOM      5  C   UNL     1       5.063   3.844   0.115  0.00  0.00    +0.051 A 
ATOM      6  C   UNL     1       5.770   2.555   0.068  0.00  0.00    +0.148 A 
ATOM      7  O   UNL     1       4.840   1.582   0.171  0.00  0.00    -0.454 OA
BRANCH   3  10
ATOM      8  C   UNL     1       0.011   1.422   0.595  0.00  0.00    +0.003 A 
ATOM      9  C   UNL     1       1.180   2.120   0.481  0.00  0.00    +0.012 A 
ATOM     10  C   UNL     1       2.402   1.426   0.386  0.00  0.00    +0.019 A 
ATOM     11  C   UNL     1       2.403   0.018   0.410  0.00  0.00    +0.044 A 
ATOM     12  C   UNL     1       1.222  -0.659   0.525  0.00  0.00    +0.127 A 
ATOM     13  C   UNL     1       0.025   0.035   0.618  0.00  0.00    +0.033 A 
BRANCH  12  14
ATOM     14  N   UNL     1       1.220  -2.139   0.551  0.00  0.00    +0.056 N 
ATOM     15  O   UNL     1       2.356  -2.800   0.464  0.00  0.00    -0.126 OA
ATOM     16  O   UNL     1       0.083  -2.794   0.661  0.00  0.00    -0.126 OA
ENDBRANCH  12  14
ENDBRANCH   3  10
ENDBRANCH   1   6
BRANCH   2  17
ATOM     17  N   UNL     1       6.878   0.123   0.019  0.00  0.00    -0.199 N 
ATOM     18  C   UNL     1       7.393  -1.110   0.198  0.00  0.00    +0.318 C 
ATOM     19  O   UNL     1       8.588  -1.252   0.345  0.00  0.00    -0.263 OA
ATOM     20  H   UNL     1       5.922   0.237  -0.099  0.00  0.00    +0.178 HD
BRANCH  18  21
ATOM     21  C   UNL     1       6.492  -2.299   0.214  0.00  0.00    +0.305 C 
ATOM     22  O   UNL     1       5.296  -2.157   0.066  0.00  0.00    -0.265 OA
ATOM     23  N   UNL     1       7.007  -3.532   0.392  0.00  0.00    -0.278 N 
ATOM     24  H   UNL     1       7.968  -3.653   0.448  0.00  0.00    +0.155 HD
BRANCH  23  25
ATOM     25  C   UNL     1       6.156  -4.636   0.498  0.00  0.00    +0.034 A 
ATOM     26  C   UNL     1       4.987  -4.687  -0.250  0.00  0.00    +0.024 A 
ATOM     27  C   UNL     1       4.148  -5.779  -0.144  0.00  0.00    +0.017 A 
ATOM     28  C   UNL     1       4.471  -6.821   0.707  0.00  0.00    +0.018 A 
ATOM     29  C   UNL     1       5.636  -6.773   1.454  0.00  0.00    +0.017 A 
ATOM     30  C   UNL     1       6.481  -5.686   1.347  0.00  0.00    +0.024 A 
ATOM     31 BR   UNL     1       3.320  -8.314   0.851  0.00  0.00    -0.050 Br
ENDBRANCH  23  25
ENDBRANCH  18  21
ENDBRANCH   2  17
TORSDOF 6
