REMARK  Name = ZINC64480274
REMARK  7 active torsions:
REMARK  status: ('A' for Active; 'I' for Inactive)
REMARK    1  A    between atoms: C_1  and  C_2
REMARK    2  A    between atoms: N_4  and  C_5
REMARK    3  A    between atoms: C_8  and  N_11
REMARK    4  A    between atoms: C_19  and  C_25
REMARK    5  A    between atoms: N_27  and  C_28
REMARK    6  A    between atoms: C_28  and  C_29
REMARK    7  A    between atoms: C_29  and  C_30
REMARK                            x       y       z     vdW  Elec       q    Type
REMARK                         _______ _______ _______ _____ _____    ______ ____
ROOT
ATOM      1  N   UNL     1      -0.861  -6.247   0.339  0.00  0.00    -0.268 N 
ATOM      2  C   UNL     1      -2.033  -7.155   0.336  0.00  0.00    +0.153 C 
ATOM      3  C   UNL     1      -1.496  -8.442   0.879  0.00  0.00    +0.116 C 
ATOM      4  C   UNL     1      -2.052  -9.786   0.575  0.00  0.00    +0.008 C 
ATOM      5  C   UNL     1      -1.439 -10.590   1.453  0.00  0.00    +0.004 C 
ATOM      6  C   UNL     1      -0.534  -9.709   2.322  0.00  0.00    +0.155 C 
ATOM      7  O   UNL     1      -1.306  -8.454   2.320  0.00  0.00    -0.359 OA
ATOM      8  C   UNL     1       0.686  -9.298   1.436  0.00  0.00    +0.122 C 
ATOM      9  C   UNL     1      -0.013  -8.421   0.356  0.00  0.00    +0.127 C 
ATOM     10  C   UNL     1       0.295  -6.952   0.424  0.00  0.00    +0.227 C 
ATOM     11  O   UNL     1       1.403  -6.473   0.540  0.00  0.00    -0.275 OA
ENDROOT
BRANCH   1  15
ATOM     12  C   UNL     1      -1.086  -2.090   0.097  0.00  0.00    +0.033 A 
ATOM     13  C   UNL     1       0.151  -2.715   0.182  0.00  0.00    +0.025 A 
ATOM     14  C   UNL     1       0.226  -4.091   0.263  0.00  0.00    +0.025 A 
ATOM     15  C   UNL     1      -0.937  -4.851   0.258  0.00  0.00    +0.036 A 
ATOM     16  C   UNL     1      -2.174  -4.226   0.173  0.00  0.00    +0.025 A 
ATOM     17  C   UNL     1      -2.248  -2.849   0.099  0.00  0.00    +0.025 A 
BRANCH  12  21
ATOM     18  C   UNL     1      -2.200   1.469   0.617  0.00  0.00    +0.109 C 
ATOM     19  C   UNL     1      -2.174  -0.038   0.616  0.00  0.00    +0.214 C 
ATOM     20  O   UNL     1      -3.066  -0.660   1.154  0.00  0.00    -0.276 OA
ATOM     21  N   UNL     1      -1.161  -0.694   0.016  0.00  0.00    -0.286 N 
ATOM     22  H   UNL     1      -0.484  -0.199  -0.471  0.00  0.00    +0.155 HD
ENDBRANCH  12  21
ENDBRANCH   1  15
BRANCH   8  23
ATOM     23  C   UNL     1       1.678  -8.486   2.227  0.00  0.00    +0.220 C 
ATOM     24  O   UNL     1       1.310  -7.857   3.197  0.00  0.00    -0.275 OA
ATOM     25  N   UNL     1       2.974  -8.457   1.858  0.00  0.00    -0.315 N 
ATOM     26  H   UNL     1       3.268  -8.960   1.082  0.00  0.00    +0.149 HD
BRANCH  25  27
ATOM     27  C   UNL     1       3.938  -7.667   2.627  0.00  0.00    +0.108 C 
BRANCH  27  28
ATOM     28  C   UNL     1       5.327  -7.807   2.001  0.00  0.00    +0.052 C 
BRANCH  28  29
ATOM     29  C   UNL     1       6.319  -6.994   2.793  0.00  0.00    -0.040 C 
ATOM     30  C   UNL     1       7.124  -7.436   3.786  0.00  0.00    -0.001 A 
ATOM     31  C   UNL     1       7.309  -8.755   4.402  0.00  0.00    +0.010 A 
ATOM     32  C   UNL     1       8.211  -8.891   5.401  0.00  0.00    +0.001 A 
ATOM     33  C   UNL     1       8.971  -7.806   5.861  0.00  0.00    +0.002 A 
ATOM     34  C   UNL     1       8.857  -6.564   5.344  0.00  0.00    +0.026 A 
ATOM     35  C   UNL     1       7.939  -6.307   4.289  0.00  0.00    +0.043 A 
ATOM     36  N   UNL     1       7.648  -5.210   3.633  0.00  0.00    -0.380 N 
ATOM     37  C   UNL     1       6.620  -5.520   2.634  0.00  0.00    +0.144 C 
ATOM     38  H   UNL     1       8.049  -4.339   3.780  0.00  0.00    +0.160 HD
ENDBRANCH  28  29
ENDBRANCH  27  28
ENDBRANCH  25  27
ENDBRANCH   8  23
TORSDOF 6
