REMARK  Name = ZINC38746504
REMARK  5 active torsions:
REMARK  status: ('A' for Active; 'I' for Inactive)
REMARK    1  A    between atoms: C_6  and  C_29
REMARK    2  A    between atoms: C_7  and  N_9
REMARK    3  A    between atoms: C_10  and  C_12
REMARK    4  A    between atoms: C_12  and  S_13
REMARK    5  A    between atoms: S_13  and  C_14
REMARK                            x       y       z     vdW  Elec       q    Type
REMARK                         _______ _______ _______ _____ _____    ______ ____
ROOT
ATOM      1  N   UNL     1       1.957  -3.299   3.385  0.00  0.00    -0.279 N 
ATOM      2  C   UNL     1       2.878  -3.388   4.364  0.00  0.00    +0.228 C 
ATOM      3  O   UNL     1       3.555  -2.423   4.650  0.00  0.00    -0.275 OA
ATOM      4  H   UNL     1       1.415  -4.071   3.156  0.00  0.00    +0.155 HD
ENDROOT
BRANCH   1  11
ATOM      5  C   UNL     1      -0.019   1.526   0.010  0.00  0.00    +0.005 C 
ATOM      6  C   UNL     1       1.414   2.067  -0.000  0.00  0.00    +0.005 C 
ATOM      7  C   UNL     1       2.067   1.772   1.358  0.00  0.00    +0.043 C 
ATOM      8  C   UNL     1       1.810   0.337   1.702  0.00  0.00    -0.004 A 
ATOM      9  C   UNL     1       0.907  -0.486   1.127  0.00  0.00    -0.023 A 
ATOM     10  C   UNL     1       0.892  -1.829   1.677  0.00  0.00    +0.068 A 
ATOM     11  C   UNL     1       1.783  -2.104   2.703  0.00  0.00    +0.084 A 
ATOM     12  S   UNL     1       2.603  -0.656   2.932  0.00  0.00    -0.077 S 
ATOM     13  C   UNL     1       0.002  -0.004   0.002  0.00  0.00    +0.037 C 
BRANCH  10  14
ATOM     14  C   UNL     1      -0.027  -2.853   1.169  0.00  0.00    +0.244 C 
ATOM     15  O   UNL     1       0.315  -3.576   0.252  0.00  0.00    -0.270 OA
ATOM     16  N   UNL     1      -1.249  -2.994   1.719  0.00  0.00    -0.325 N 
ATOM     17  H   UNL     1      -1.521  -2.418   2.451  0.00  0.00    +0.145 HD
ATOM     18  H   UNL     1      -1.857  -3.671   1.383  0.00  0.00    +0.145 HD
ENDBRANCH  10  14
ENDBRANCH   1  11
BRANCH   2  19
ATOM     19  C   UNL     1       3.067  -4.687   5.104  0.00  0.00    +0.173 C 
BRANCH  19  20
ATOM     20  S   UNL     1       4.369  -4.488   6.352  0.00  0.00    -0.079 S 
BRANCH  20  21
ATOM     21  C   UNL     1       4.469  -6.071   7.120  0.00  0.00    +0.182 C 
ATOM     22  N   UNL     1       3.665  -7.029   6.693  0.00  0.00    -0.151 NA
ATOM     23  C   UNL     1       3.672  -8.258   7.209  0.00  0.00    +0.272 C 
ATOM     24  O   UNL     1       2.914  -9.118   6.793  0.00  0.00    -0.268 OA
ATOM     25  C   UNL     1       4.639  -8.552   8.316  0.00  0.00    +0.071 C 
ATOM     26  C   UNL     1       4.856  -9.726   8.930  0.00  0.00    -0.042 C 
ATOM     27  C   UNL     1       4.245 -11.049   8.475  0.00  0.00    +0.033 C 
ATOM     28  C   UNL     1       5.410 -12.024   8.259  0.00  0.00    +0.004 C 
ATOM     29  C   UNL     1       6.288 -12.083   9.508  0.00  0.00    +0.002 C 
ATOM     30  C   UNL     1       6.933 -10.722   9.785  0.00  0.00    +0.019 C 
ATOM     31  C   UNL     1       5.827  -9.713  10.106  0.00  0.00    +0.079 C 
ATOM     32  S   UNL     1       6.493  -8.008  10.031  0.00  0.00    -0.097 S 
ATOM     33  C   UNL     1       5.475  -7.397   8.711  0.00  0.00    +0.112 C 
ATOM     34  N   UNL     1       5.356  -6.246   8.100  0.00  0.00    -0.217 NA
ENDBRANCH  20  21
ENDBRANCH  19  20
ENDBRANCH   2  19
TORSDOF 5
