REMARK  Name = ZINC20569524
REMARK  10 active torsions:
REMARK  status: ('A' for Active; 'I' for Inactive)
REMARK    1  A    between atoms: C_1  and  C_2
REMARK    2  A    between atoms: C_2  and  O_3
REMARK    3  A    between atoms: O_3  and  C_4
REMARK    4  A    between atoms: C_4  and  C_6
REMARK    5  A    between atoms: C_10  and  N_11
REMARK    6  A    between atoms: C_12  and  C_14
REMARK    7  A    between atoms: C_19  and  N_20
REMARK    8  A    between atoms: N_20  and  S_21
REMARK    9  A    between atoms: S_21  and  C_24
REMARK   10  A    between atoms: N_31  and  C_34
REMARK                            x       y       z     vdW  Elec       q    Type
REMARK                         _______ _______ _______ _____ _____    ______ ____
ROOT
ATOM      1  N   UNL     1       2.942  -1.253  -5.574  0.00  0.00    -0.275 N 
ATOM      2  C   UNL     1       3.384  -1.217  -4.302  0.00  0.00    +0.250 C 
ATOM      3  O   UNL     1       3.224  -2.178  -3.575  0.00  0.00    -0.270 OA
ATOM      4  H   UNL     1       3.087  -0.383  -6.232  0.00  0.00    +0.156 HD
ENDROOT
BRANCH   1   9
ATOM      5  C   UNL     1       1.786  -2.612  -7.323  0.00  0.00    +0.091 A 
ATOM      6  C   UNL     1       1.164  -3.899  -7.570  0.00  0.00    -0.025 A 
ATOM      7  C   UNL     1       1.158  -4.750  -6.519  0.00  0.00    -0.021 A 
ATOM      8  S   UNL     1       1.972  -3.868  -5.220  0.00  0.00    -0.079 S 
ATOM      9  C   UNL     1       2.306  -2.386  -6.054  0.00  0.00    +0.086 A 
ATOM     10  C   UNL     1       0.584  -6.132  -6.498  0.00  0.00    -0.036 C 
ATOM     11  N   UNL     1      -0.287  -6.288  -7.678  0.00  0.00    +0.381 N 
ATOM     12  C   UNL     1       0.406  -5.846  -8.897  0.00  0.00    -0.074 C 
ATOM     13  C   UNL     1       0.546  -4.321  -8.899  0.00  0.00    +0.018 C 
ATOM     14  C   UNL     1      -0.751  -7.675  -7.810  0.00  0.00    -0.096 C 
ATOM     15  H   UNL     1      -1.173  -5.651  -7.541  0.00  0.00    -0.082 HD
BRANCH   5  16
ATOM     16  C   UNL     1       1.863  -1.591  -8.370  0.00  0.00    +0.342 C 
ATOM     17  O   UNL     1       2.824  -1.556  -9.116  0.00  0.00    -0.245 OA
BRANCH  16  18
ATOM     18  O   UNL     1       0.869  -0.690  -8.507  0.00  0.00    -0.461 OA
BRANCH  18  20
ATOM     19  C   UNL     1      -0.202   1.223  -9.567  0.00  0.00    +0.048 C 
ATOM     20  C   UNL     1       1.013   0.293  -9.566  0.00  0.00    +0.229 C 
ENDBRANCH  18  20
ENDBRANCH  16  18
ENDBRANCH   5  16
ENDBRANCH   1   9
BRANCH   2  21
ATOM     21  C   UNL     1       4.061  -0.011  -3.791  0.00  0.00    +0.059 A 
ATOM     22  C   UNL     1       4.243   1.098  -4.621  0.00  0.00    +0.015 A 
ATOM     23  C   UNL     1       4.881   2.220  -4.139  0.00  0.00    +0.001 A 
ATOM     24  C   UNL     1       5.340   2.257  -2.832  0.00  0.00    +0.002 A 
ATOM     25  C   UNL     1       5.165   1.172  -1.998  0.00  0.00    +0.025 A 
ATOM     26  C   UNL     1       4.523   0.032  -2.466  0.00  0.00    +0.060 A 
BRANCH  26  27
ATOM     27  N   UNL     1       4.345  -1.062  -1.629  0.00  0.00    -0.216 N 
ATOM     28  H   UNL     1       4.408  -2.082  -2.036  0.00  0.00    +0.174 HD
BRANCH  27  29
ATOM     29  S   UNL     1       4.038  -0.831  -0.018  0.00  0.00    +0.072 S 
ATOM     30  O   UNL     1       5.069   0.014   0.474  0.00  0.00    -0.150 OA
ATOM     31  O   UNL     1       3.775  -2.114   0.533  0.00  0.00    -0.150 OA
BRANCH  29  32
ATOM     32  C   UNL     1       2.538   0.085   0.100  0.00  0.00    +0.108 A 
ATOM     33  C   UNL     1       1.327  -0.578   0.174  0.00  0.00    +0.029 A 
ATOM     34  C   UNL     1       0.150   0.141   0.267  0.00  0.00    +0.002 A 
ATOM     35  C   UNL     1       0.183   1.523   0.285  0.00  0.00    +0.000 A 
ATOM     36  C   UNL     1       1.394   2.186   0.211  0.00  0.00    +0.002 A 
ATOM     37  C   UNL     1       2.571   1.467   0.118  0.00  0.00    +0.029 A 
ENDBRANCH  29  32
ENDBRANCH  27  29
ENDBRANCH  26  27
ENDBRANCH   2  21
TORSDOF 8
