REMARK  Name = ZINC13199605
REMARK  7 active torsions:
REMARK  status: ('A' for Active; 'I' for Inactive)
REMARK    1  A    between atoms: C_1  and  C_2
REMARK    2  A    between atoms: C_2  and  C_4
REMARK    3  A    between atoms: C_2  and  S_16
REMARK    4  A    between atoms: N_6  and  C_7
REMARK    5  A    between atoms: S_16  and  C_17
REMARK    6  A    between atoms: C_21  and  C_29
REMARK    7  A    between atoms: N_27  and  C_28
REMARK                            x       y       z     vdW  Elec       q    Type
REMARK                         _______ _______ _______ _____ _____    ______ ____
ROOT
ATOM      1  S   UNL     1      -2.763   4.202   0.029  0.00  0.00    -0.075 S 
ENDROOT
BRANCH   1   2
ATOM      2  C   UNL     1      -1.204   3.382  -0.004  0.00  0.00    +0.173 A 
ATOM      3  N   UNL     1      -1.187   2.072  -0.007  0.00  0.00    -0.223 NA
ATOM      4  C   UNL     1      -0.025   1.378  -0.037  0.00  0.00    +0.080 A 
ATOM      5  C   UNL     1      -0.010  -0.020  -0.047  0.00  0.00    +0.043 A 
ATOM      6  C   UNL     1       1.207  -0.689  -0.072  0.00  0.00    +0.065 A 
ATOM      7  C   UNL     1       2.412   0.027  -0.087  0.00  0.00    +0.016 A 
ATOM      8  C   UNL     1       2.409   1.392  -0.078  0.00  0.00    +0.016 A 
ATOM      9  C   UNL     1       1.199   2.084  -0.053  0.00  0.00    +0.065 A 
ATOM     10  C   UNL     1       1.150   3.555  -0.043  0.00  0.00    +0.262 A 
ATOM     11  O   UNL     1       2.169   4.220  -0.056  0.00  0.00    -0.267 OA
ATOM     12  N   UNL     1      -0.069   4.141  -0.019  0.00  0.00    -0.290 N 
ATOM     13  C   UNL     1      -0.173   5.603  -0.008  0.00  0.00    +0.154 C 
BRANCH   6  14
ATOM     14  C   UNL     1       1.232  -2.168  -0.082  0.00  0.00    +0.387 C 
ATOM     15  O   UNL     1       0.191  -2.793  -0.069  0.00  0.00    -0.241 OA
ATOM     16  O   UNL     1       2.409  -2.822  -0.106  0.00  0.00    -0.241 OA
ENDBRANCH   6  14
ENDBRANCH   1   2
BRANCH   1  18
ATOM     17  C   UNL     1      -3.724   2.003  -1.277  0.00  0.00    +0.029 C 
ATOM     18  C   UNL     1      -3.871   2.771   0.039  0.00  0.00    +0.137 C 
BRANCH  18  19
ATOM     19  C   UNL     1      -5.295   3.239   0.191  0.00  0.00    +0.230 C 
ATOM     20  O   UNL     1      -5.607   4.357  -0.161  0.00  0.00    -0.274 OA
ATOM     21  N   UNL     1      -6.223   2.415   0.718  0.00  0.00    -0.283 N 
ATOM     22  H   UNL     1      -5.989   1.500   0.939  0.00  0.00    +0.155 HD
BRANCH  21  23
ATOM     23  C   UNL     1      -7.524   2.880   0.946  0.00  0.00    +0.053 A 
ATOM     24  C   UNL     1      -8.096   3.800   0.077  0.00  0.00    +0.046 A 
ATOM     25  C   UNL     1      -9.382   4.254   0.302  0.00  0.00    +0.061 A 
ATOM     26  C   UNL     1     -10.096   3.800   1.399  0.00  0.00    +0.061 A 
ATOM     27  C   UNL     1      -9.526   2.887   2.268  0.00  0.00    +0.043 A 
ATOM     28  C   UNL     1      -8.242   2.426   2.045  0.00  0.00    +0.064 A 
ATOM     29 CL   UNL     1      -7.528   1.281   3.137  0.00  0.00    -0.082 Cl
ATOM     30 CL   UNL     1     -11.708   4.377   1.682  0.00  0.00    -0.082 Cl
ATOM     31 CL   UNL     1     -10.100   5.400  -0.787  0.00  0.00    -0.082 Cl
ENDBRANCH  21  23
ENDBRANCH  18  19
ENDBRANCH   1  18
TORSDOF 5
