REMARK  Name = ZINC09646053
REMARK  8 active torsions:
REMARK  status: ('A' for Active; 'I' for Inactive)
REMARK    1  A    between atoms: C_1  and  C_2
REMARK    2  A    between atoms: C_2  and  C_4
REMARK    3  A    between atoms: C_2  and  N_9
REMARK    4  A    between atoms: C_10  and  C_12
REMARK    5  A    between atoms: C_12  and  S_13
REMARK    6  A    between atoms: S_13  and  C_14
REMARK    7  A    between atoms: C_17  and  C_25
REMARK    8  A    between atoms: N_18  and  C_19
REMARK                            x       y       z     vdW  Elec       q    Type
REMARK                         _______ _______ _______ _____ _____    ______ ____
ROOT
ATOM      1  C   UNL     1       0.195   1.003   2.744  0.00  0.00    +0.197 A 
ATOM      2  N   UNL     1       1.164   0.142   2.528  0.00  0.00    -0.122 NA
ATOM      3  N   UNL     1       1.688  -0.223   3.644  0.00  0.00    -0.128 NA
ATOM      4  C   UNL     1       1.086   0.382   4.642  0.00  0.00    +0.169 A 
ATOM      5  N   UNL     1       0.114   1.191   4.097  0.00  0.00    -0.270 N 
ENDROOT
BRANCH   4   6
ATOM      6  C   UNL     1       1.397   0.227   6.079  0.00  0.00    +0.023 A 
ATOM      7  C   UNL     1       0.469   0.624   7.042  0.00  0.00    +0.015 A 
ATOM      8  C   UNL     1       0.761   0.479   8.382  0.00  0.00    +0.050 A 
ATOM      9  C   UNL     1       1.976  -0.060   8.777  0.00  0.00    +0.166 A 
ATOM     10  C   UNL     1       2.908  -0.458   7.820  0.00  0.00    +0.167 A 
ATOM     11  C   UNL     1       2.618  -0.321   6.475  0.00  0.00    +0.061 A 
ATOM     12  O   UNL     1       4.009  -0.950   8.461  0.00  0.00    -0.453 OA
ATOM     13  C   UNL     1       3.578  -1.228   9.806  0.00  0.00    +0.466 C 
ATOM     14  O   UNL     1       2.495  -0.303  10.017  0.00  0.00    -0.453 OA
ENDBRANCH   4   6
BRANCH   5  15
ATOM     15  C   UNL     1      -0.775   2.029   4.784  0.00  0.00    +0.051 A 
ATOM     16  C   UNL     1      -0.299   3.151   5.449  0.00  0.00    +0.026 A 
ATOM     17  C   UNL     1      -1.178   3.978   6.122  0.00  0.00    +0.002 A 
ATOM     18  C   UNL     1      -2.529   3.683   6.142  0.00  0.00    +0.000 A 
ATOM     19  C   UNL     1      -3.005   2.563   5.485  0.00  0.00    +0.002 A 
ATOM     20  C   UNL     1      -2.132   1.736   4.806  0.00  0.00    +0.026 A 
ENDBRANCH   5  15
BRANCH   1  21
ATOM     21  S   UNL     1      -0.807   1.777   1.518  0.00  0.00    -0.076 S 
BRANCH  21  22
ATOM     22  C   UNL     1      -0.101   1.040   0.023  0.00  0.00    +0.173 C 
BRANCH  22  24
ATOM     23  N   UNL     1      -0.465   1.160  -2.420  0.00  0.00    -0.305 N 
ATOM     24  C   UNL     1      -0.823   1.572  -1.188  0.00  0.00    +0.224 C 
ATOM     25  O   UNL     1      -1.727   2.369  -1.054  0.00  0.00    -0.275 OA
ATOM     26  H   UNL     1       0.257   0.522  -2.528  0.00  0.00    +0.149 HD
BRANCH  23  28
ATOM     27  C   UNL     1      -2.428   0.844  -3.846  0.00  0.00    +0.036 C 
ATOM     28  C   UNL     1      -1.168   1.676  -3.598  0.00  0.00    +0.136 C 
BRANCH  28  29
ATOM     29  C   UNL     1      -0.264   1.589  -4.800  0.00  0.00    +0.125 A 
ATOM     30  C   UNL     1      -0.154   2.514  -5.771  0.00  0.00    +0.046 A 
ATOM     31  C   UNL     1       0.803   2.030  -6.692  0.00  0.00    +0.041 A 
ATOM     32  C   UNL     1       1.214   0.834  -6.234  0.00  0.00    +0.195 A 
ATOM     33  O   UNL     1       0.565   0.572  -5.088  0.00  0.00    -0.466 OA
ENDBRANCH  28  29
ENDBRANCH  23  28
ENDBRANCH  22  24
ENDBRANCH  21  22
ENDBRANCH   1  21
TORSDOF 7
