REMARK  Name = ZINC20611583
REMARK  8 active torsions:
REMARK  status: ('A' for Active; 'I' for Inactive)
REMARK    1  A    between atoms: C_1  and  C_2
REMARK    2  A    between atoms: C_16  and  C_19
REMARK    3  A    between atoms: C_19  and  C_20
REMARK    4  A    between atoms: C_20  and  C_21
REMARK    5  A    between atoms: N_26  and  C_29
REMARK    6  A    between atoms: C_32  and  O_35
REMARK    7  A    between atoms: O_35  and  C_36
REMARK    8  A    between atoms: C_36  and  C_38
REMARK                            x       y       z     vdW  Elec       q    Type
REMARK                         _______ _______ _______ _____ _____    ______ ____
ROOT
ATOM      1  C   UNL     1      -0.965   1.261   0.007  0.00  0.00    +0.047 C 
ATOM      2  C   UNL     1      -0.781  -0.234   0.038  0.00  0.00    -0.011 A 
ATOM      3  C   UNL     1      -0.866  -0.963  -1.132  0.00  0.00    +0.046 A 
ATOM      4  C   UNL     1      -0.699  -2.337  -1.112  0.00  0.00    +0.021 A 
ATOM      5  C   UNL     1      -0.446  -2.983   0.085  0.00  0.00    +0.009 A 
ATOM      6  C   UNL     1      -0.361  -2.260   1.254  0.00  0.00    +0.004 A 
ATOM      7  C   UNL     1      -0.521  -0.877   1.245  0.00  0.00    +0.043 A 
ATOM      8  N   UNL     1      -0.384  -0.367   2.538  0.00  0.00    -0.283 N 
ATOM      9  C   UNL     1      -0.132  -1.335   3.441  0.00  0.00    +0.243 C 
ATOM     10  O   UNL     1       0.033  -1.187   4.633  0.00  0.00    -0.273 OA
ATOM     11  C   UNL     1      -0.107  -2.635   2.686  0.00  0.00    +0.136 C 
ATOM     12  C   UNL     1       1.244  -3.340   2.854  0.00  0.00    +0.123 C 
ATOM     13  C   UNL     1       1.000  -4.391   3.974  0.00  0.00    +0.107 C 
ATOM     14  C   UNL     1      -0.475  -4.197   4.383  0.00  0.00    +0.068 C 
ATOM     15  N   UNL     1      -1.122  -3.583   3.185  0.00  0.00    -0.295 NA
ATOM     16  C   UNL     1       1.164  -5.711   3.256  0.00  0.00    +0.232 C 
ATOM     17  O   UNL     1       1.048  -6.804   3.765  0.00  0.00    -0.274 OA
ATOM     18  N   UNL     1       1.458  -5.484   1.970  0.00  0.00    -0.210 N 
ATOM     19  C   UNL     1       1.538  -4.177   1.630  0.00  0.00    +0.233 C 
ATOM     20  O   UNL     1       1.797  -3.740   0.529  0.00  0.00    -0.274 OA
ATOM     21 CL   UNL     1      -1.185  -0.153  -2.634  0.00  0.00    -0.083 Cl
ATOM     22  H   UNL     1      -0.461   0.574   2.761  0.00  0.00    +0.155 HD
ATOM     23  H   UNL     1      -1.970  -3.101   3.444  0.00  0.00    +0.123 HD
ENDROOT
BRANCH  18  24
ATOM     24  C   UNL     1       1.672  -6.518   1.047  0.00  0.00    +0.044 A 
ATOM     25  C   UNL     1       2.913  -6.662   0.441  0.00  0.00    +0.027 A 
ATOM     26  C   UNL     1       3.124  -7.680  -0.467  0.00  0.00    +0.048 A 
ATOM     27  C   UNL     1       2.096  -8.559  -0.775  0.00  0.00    +0.132 A 
ATOM     28  C   UNL     1       0.856  -8.416  -0.170  0.00  0.00    +0.048 A 
ATOM     29  C   UNL     1       0.646  -7.402   0.743  0.00  0.00    +0.027 A 
BRANCH  27  30
ATOM     30  O   UNL     1       2.304  -9.561  -1.670  0.00  0.00    -0.426 OA
BRANCH  30  31
ATOM     31  C   UNL     1       2.995 -10.637  -1.263  0.00  0.00    +0.309 C 
ATOM     32  O   UNL     1       3.318 -10.744  -0.103  0.00  0.00    -0.251 OA
ATOM     33  C   UNL     1       3.368 -11.712  -2.251  0.00  0.00    +0.136 C 
ENDBRANCH  30  31
ENDBRANCH  27  30
ENDBRANCH  18  24
BRANCH  14  34
ATOM     34  C   UNL     1      -1.125  -5.548   4.687  0.00  0.00    +0.028 C 
BRANCH  34  35
ATOM     35  C   UNL     1      -2.546  -5.325   5.210  0.00  0.00    +0.097 C 
BRANCH  35  36
ATOM     36  C   UNL     1      -3.185  -6.657   5.510  0.00  0.00    +0.211 C 
ATOM     37  O   UNL     1      -2.566  -7.683   5.324  0.00  0.00    -0.276 OA
ATOM     38  N   UNL     1      -4.446  -6.707   5.985  0.00  0.00    -0.329 N 
ATOM     39  H   UNL     1      -4.941  -5.886   6.134  0.00  0.00    +0.145 HD
ATOM     40  H   UNL     1      -4.857  -7.564   6.178  0.00  0.00    +0.145 HD
ENDBRANCH  35  36
ENDBRANCH  34  35
ENDBRANCH  14  34
TORSDOF 6
