REMARK  Name = ZINC39982603
REMARK  7 active torsions:
REMARK  status: ('A' for Active; 'I' for Inactive)
REMARK    1  A    between atoms: C_1  and  C_2
REMARK    2  A    between atoms: C_2  and  C_4
REMARK    3  A    between atoms: C_2  and  S_18
REMARK    4  A    between atoms: N_9  and  C_12
REMARK    5  A    between atoms: S_18  and  C_19
REMARK    6  A    between atoms: C_23  and  C_28
REMARK    7  A    between atoms: N_24  and  C_25
REMARK                            x       y       z     vdW  Elec       q    Type
REMARK                         _______ _______ _______ _____ _____    ______ ____
ROOT
ATOM      1  C   UNL     1      -0.276   0.134  -2.552  0.00  0.00    +0.238 C 
ATOM      2  N   UNL     1      -0.770   1.519  -2.481  0.00  0.00    -0.237 N 
ATOM      3  N   UNL     1      -2.161   1.453  -2.628  0.00  0.00    -0.169 NA
ATOM      4  C   UNL     1      -2.565   0.219  -2.777  0.00  0.00    +0.147 C 
ATOM      5  N   UNL     1      -1.489  -0.677  -2.748  0.00  0.00    -0.282 N 
ATOM      6  H   UNL     1      -0.237   2.320  -2.356  0.00  0.00    +0.171 HD
ENDROOT
BRANCH   4   7
ATOM      7  C   UNL     1      -3.905  -0.160  -2.946  0.00  0.00    +0.022 C 
ATOM      8  C   UNL     1      -5.008   0.683  -3.094  0.00  0.00    +0.006 A 
ATOM      9  C   UNL     1      -5.136   2.088  -3.123  0.00  0.00    +0.010 A 
ATOM     10  C   UNL     1      -6.363   2.648  -3.286  0.00  0.00    +0.001 A 
ATOM     11  C   UNL     1      -7.511   1.867  -3.427  0.00  0.00    +0.002 A 
ATOM     12  C   UNL     1      -7.461   0.512  -3.408  0.00  0.00    +0.026 A 
ATOM     13  C   UNL     1      -6.215  -0.146  -3.242  0.00  0.00    +0.043 A 
ATOM     14  N   UNL     1      -5.905  -1.427  -3.192  0.00  0.00    -0.380 N 
ATOM     15  C   UNL     1      -4.457  -1.567  -3.011  0.00  0.00    +0.152 C 
ATOM     16  H   UNL     1      -6.535  -2.160  -3.266  0.00  0.00    +0.160 HD
ENDBRANCH   4   7
BRANCH   5  17
ATOM     17  C   UNL     1      -1.556  -2.134  -2.884  0.00  0.00    +0.078 C 
ATOM     18  C   UNL     1      -0.246  -2.916  -2.760  0.00  0.00    +0.024 C 
ATOM     19  C   UNL     1      -0.916  -2.757  -4.127  0.00  0.00    +0.024 C 
ENDBRANCH   5  17
BRANCH   1  20
ATOM     20  S   UNL     1       0.550  -0.325  -1.004  0.00  0.00    -0.106 S 
BRANCH  20  22
ATOM     21  C   UNL     1      -1.042   1.448   0.338  0.00  0.00    +0.029 C 
ATOM     22  C   UNL     1      -0.712  -0.044   0.268  0.00  0.00    +0.133 C 
BRANCH  22  23
ATOM     23  C   UNL     1      -0.190  -0.506   1.604  0.00  0.00    +0.228 C 
ATOM     24  O   UNL     1       1.005  -0.548   1.808  0.00  0.00    -0.274 OA
ATOM     25  N   UNL     1      -1.052  -0.874   2.573  0.00  0.00    -0.298 N 
ATOM     26  C   UNL     1      -2.502  -0.835   2.339  0.00  0.00    +0.126 C 
ATOM     27  C   UNL     1      -3.084  -2.224   2.634  0.00  0.00    +0.124 C 
ATOM     28  N   UNL     1      -2.590  -2.671   3.943  0.00  0.00    -0.327 N 
ATOM     29  C   UNL     1      -1.139  -2.711   4.178  0.00  0.00    +0.124 C 
ATOM     30  C   UNL     1      -0.558  -1.328   3.881  0.00  0.00    +0.126 C 
BRANCH  28  31
ATOM     31  C   UNL     1      -3.482  -3.053   4.947  0.00  0.00    +0.030 A 
ATOM     32  C   UNL     1      -4.850  -2.895   4.760  0.00  0.00    +0.023 A 
ATOM     33  C   UNL     1      -5.730  -3.273   5.755  0.00  0.00    +0.002 A 
ATOM     34  C   UNL     1      -5.251  -3.808   6.936  0.00  0.00    +0.000 A 
ATOM     35  C   UNL     1      -3.891  -3.967   7.126  0.00  0.00    +0.002 A 
ATOM     36  C   UNL     1      -3.006  -3.596   6.133  0.00  0.00    +0.023 A 
ENDBRANCH  28  31
ENDBRANCH  22  23
ENDBRANCH  20  22
ENDBRANCH   1  20
TORSDOF 6
