REMARK  Name = ZINC64428527
REMARK  10 active torsions:
REMARK  status: ('A' for Active; 'I' for Inactive)
REMARK    1  A    between atoms: C_1  and  C_2
REMARK    2  A    between atoms: C_5  and  N_9
REMARK    3  A    between atoms: C_6  and  C_8
REMARK    4  A    between atoms: C_10  and  C_12
REMARK    5  A    between atoms: C_12  and  S_13
REMARK    6  A    between atoms: S_13  and  C_14
REMARK    7  A    between atoms: C_18  and  C_21
REMARK    8  A    between atoms: C_21  and  C_23
REMARK    9  A    between atoms: C_21  and  N_33
REMARK   10  A    between atoms: C_23  and  C_24
REMARK                            x       y       z     vdW  Elec       q    Type
REMARK                         _______ _______ _______ _____ _____    ______ ____
ROOT
ATOM      1  C   UNL     1      -0.359  -8.743  -2.723  0.00  0.00    +0.319 C 
ATOM      2  N   UNL     1      -1.502  -9.109  -1.877  0.00  0.00    -0.146 NA
ATOM      3  N   UNL     1      -1.112  -9.407  -0.740  0.00  0.00    -0.159 NA
ATOM      4  C   UNL     1       0.349  -9.284  -0.660  0.00  0.00    +0.246 C 
ATOM      5  O   UNL     1       0.803  -9.248  -2.032  0.00  0.00    -0.320 OA
ENDROOT
BRANCH   1   6
ATOM      6  S   UNL     1      -0.255  -6.941  -2.895  0.00  0.00    -0.095 S 
BRANCH   6   7
ATOM      7  C   UNL     1      -0.134  -6.343  -1.187  0.00  0.00    +0.169 C 
BRANCH   7   9
ATOM      8  N   UNL     1       0.059  -4.170  -0.021  0.00  0.00    -0.285 N 
ATOM      9  C   UNL     1      -0.040  -4.839  -1.187  0.00  0.00    +0.227 C 
ATOM     10  O   UNL     1      -0.054  -4.230  -2.236  0.00  0.00    -0.275 OA
ATOM     11  H   UNL     1       0.135  -4.658   0.814  0.00  0.00    +0.155 HD
BRANCH   8  16
ATOM     12  C   UNL     1       0.025   1.503   0.005  0.00  0.00    +0.044 C 
ATOM     13  C   UNL     1       0.034  -0.004  -0.002  0.00  0.00    -0.050 A 
ATOM     14  C   UNL     1       0.632  -0.685  -1.046  0.00  0.00    +0.005 A 
ATOM     15  C   UNL     1       0.641  -2.066  -1.055  0.00  0.00    +0.024 A 
ATOM     16  C   UNL     1       0.051  -2.771  -0.014  0.00  0.00    +0.036 A 
ATOM     17  C   UNL     1      -0.548  -2.083   1.033  0.00  0.00    -0.029 A 
ATOM     18  C   UNL     1      -0.550  -0.702   1.039  0.00  0.00    +0.008 A 
ATOM     19  C   UNL     1      -1.190  -2.843   2.165  0.00  0.00    +0.045 C 
ENDBRANCH   8  16
ENDBRANCH   7   9
ENDBRANCH   6   7
ENDBRANCH   1   6
BRANCH   4  20
ATOM     20  C   UNL     1       0.945 -10.492   0.066  0.00  0.00    -0.017 C 
BRANCH  20  21
ATOM     21  N   UNL     1       2.408 -10.367   0.105  0.00  0.00    +0.383 N 
ATOM     22  H   UNL     1       2.661  -9.523   0.595  0.00  0.00    -0.089 HD
ATOM     23  H   UNL     1       2.801 -11.164   0.583  0.00  0.00    -0.089 HD
ATOM     24  H   UNL     1       2.768 -10.330  -0.837  0.00  0.00    -0.089 HD
ENDBRANCH  20  21
BRANCH  20  25
ATOM     25  C   UNL     1       0.400 -10.549   1.494  0.00  0.00    +0.021 C 
BRANCH  25  26
ATOM     26  C   UNL     1       0.889 -11.804   2.169  0.00  0.00    -0.043 C 
ATOM     27  C   UNL     1       1.972 -11.928   2.969  0.00  0.00    -0.001 A 
ATOM     28  C   UNL     1       2.982 -10.968   3.431  0.00  0.00    +0.010 A 
ATOM     29  C   UNL     1       3.973 -11.399   4.245  0.00  0.00    +0.001 A 
ATOM     30  C   UNL     1       4.059 -12.736   4.656  0.00  0.00    +0.002 A 
ATOM     31  C   UNL     1       3.170 -13.676   4.273  0.00  0.00    +0.026 A 
ATOM     32  C   UNL     1       2.086 -13.334   3.418  0.00  0.00    +0.043 A 
ATOM     33  N   UNL     1       1.111 -14.052   2.915  0.00  0.00    -0.380 N 
ATOM     34  C   UNL     1       0.263 -13.179   2.094  0.00  0.00    +0.144 C 
ATOM     35  H   UNL     1       0.970 -15.000   3.065  0.00  0.00    +0.160 HD
ENDBRANCH  25  26
ENDBRANCH  20  25
ENDBRANCH   4  20
TORSDOF 8
