REMARK  Name = ZINC67636814
REMARK  12 active torsions:
REMARK  status: ('A' for Active; 'I' for Inactive)
REMARK    1  A    between atoms: C_1  and  C_2
REMARK    2  A    between atoms: C_5  and  O_8
REMARK    3  A    between atoms: O_8  and  C_9
REMARK    4  A    between atoms: C_9  and  C_10
REMARK    5  A    between atoms: C_10  and  C_12
REMARK    6  A    between atoms: C_10  and  N_13
REMARK    7  A    between atoms: N_16  and  C_17
REMARK    8  A    between atoms: C_17  and  C_18
REMARK    9  A    between atoms: C_18  and  C_20
REMARK   10  A    between atoms: C_18  and  O_28
REMARK   11  A    between atoms: C_20  and  N_21
REMARK   12  A    between atoms: C_24  and  C_27
REMARK                            x       y       z     vdW  Elec       q    Type
REMARK                         _______ _______ _______ _____ _____    ______ ____
ROOT
ATOM      1  N   UNL     1       1.344  -6.688   0.389  0.00  0.00    -0.294 N 
ATOM      2  C   UNL     1       1.825  -7.937   0.544  0.00  0.00    +0.300 C 
ATOM      3  O   UNL     1       1.220  -8.742   1.225  0.00  0.00    -0.253 OA
ATOM      4  N   UNL     1       2.979  -8.294  -0.055  0.00  0.00    -0.297 N 
ATOM      5  H   UNL     1       1.827  -6.046  -0.154  0.00  0.00    +0.151 HD
ATOM      6  H   UNL     1       3.462  -7.652  -0.598  0.00  0.00    +0.150 HD
ENDROOT
BRANCH   1   7
ATOM      7  C   UNL     1       0.090  -6.300   1.040  0.00  0.00    +0.109 C 
ATOM      8  C   UNL     1      -1.091  -6.708   0.157  0.00  0.00    +0.031 C 
BRANCH   7   9
ATOM      9  C   UNL     1       0.072  -4.785   1.249  0.00  0.00    +0.251 C 
BRANCH   9  10
ATOM     10  O   UNL     1       0.057  -4.129  -0.021  0.00  0.00    -0.490 OA
BRANCH  10  15
ATOM     11  C   UNL     1      -0.018   1.503   0.010  0.00  0.00    +0.044 C 
ATOM     12  C   UNL     1       0.002  -0.004   0.002  0.00  0.00    -0.050 A 
ATOM     13  C   UNL     1       0.006  -0.688  -1.200  0.00  0.00    +0.007 A 
ATOM     14  C   UNL     1       0.024  -2.069  -1.210  0.00  0.00    +0.046 A 
ATOM     15  C   UNL     1       0.039  -2.770  -0.013  0.00  0.00    +0.121 A 
ATOM     16  C   UNL     1       0.036  -2.082   1.191  0.00  0.00    +0.046 A 
ATOM     17  C   UNL     1       0.023  -0.701   1.196  0.00  0.00    +0.007 A 
ENDBRANCH  10  15
ENDBRANCH   9  10
ENDBRANCH   7   9
ENDBRANCH   1   7
BRANCH   4  18
ATOM     18  C   UNL     1       3.502  -9.652   0.114  0.00  0.00    +0.135 C 
BRANCH  18  19
ATOM     19  C   UNL     1       4.812  -9.794  -0.664  0.00  0.00    +0.115 C 
BRANCH  19  20
ATOM     20  O   UNL     1       5.801  -8.934  -0.093  0.00  0.00    -0.392 OA
ATOM     21  H   UNL     1       5.998  -9.122   0.835  0.00  0.00    +0.210 HD
ENDBRANCH  19  20
BRANCH  19  22
ATOM     22  C   UNL     1       5.294 -11.244  -0.590  0.00  0.00    -0.046 C 
BRANCH  22  23
ATOM     23  N   UNL     1       6.552 -11.380  -1.337  0.00  0.00    +0.381 N 
ATOM     24  C   UNL     1       6.306 -11.116  -2.760  0.00  0.00    -0.078 C 
ATOM     25  C   UNL     1       7.627 -11.176  -3.530  0.00  0.00    -0.016 C 
ATOM     26  C   UNL     1       8.242 -12.569  -3.367  0.00  0.00    -0.018 C 
ATOM     27  C   UNL     1       8.426 -12.864  -1.876  0.00  0.00    -0.016 C 
ATOM     28  C   UNL     1       7.075 -12.741  -1.167  0.00  0.00    -0.078 C 
ATOM     29  C   UNL     1       9.602 -12.613  -4.069  0.00  0.00    +0.007 C 
ATOM     30  H   UNL     1       7.225 -10.716  -0.985  0.00  0.00    -0.082 HD
ENDBRANCH  22  23
ENDBRANCH  19  22
ENDBRANCH  18  19
ENDBRANCH   4  18
TORSDOF 9
