REMARK  Name = ZINC40167752
REMARK  8 active torsions:
REMARK  status: ('A' for Active; 'I' for Inactive)
REMARK    1  A    between atoms: C_1  and  C_2
REMARK    2  A    between atoms: C_2  and  C_4
REMARK    3  A    between atoms: C_2  and  O_17
REMARK    4  A    between atoms: N_6  and  C_7
REMARK    5  A    between atoms: C_10  and  N_13
REMARK    6  A    between atoms: C_14  and  C_16
REMARK    7  A    between atoms: O_17  and  C_18
REMARK    8  A    between atoms: C_28  and  C_29
REMARK                            x       y       z     vdW  Elec       q    Type
REMARK                         _______ _______ _______ _____ _____    ______ ____
ROOT
ATOM      1  O   UNL     1       0.206   0.167   0.816  0.00  0.00    -0.473 OA
ENDROOT
BRANCH   1   2
ATOM      2  C   UNL     1      -0.277  -0.243   2.019  0.00  0.00    +0.212 A 
ATOM      3  C   UNL     1      -1.169  -1.345   2.095  0.00  0.00    +0.235 A 
ATOM      4  O   UNL     1      -1.521  -1.945   1.093  0.00  0.00    -0.283 OA
ATOM      5  C   UNL     1      -1.652  -1.734   3.433  0.00  0.00    +0.068 A 
ATOM      6  C   UNL     1      -2.530  -2.804   3.603  0.00  0.00    +0.015 A 
ATOM      7  C   UNL     1      -2.959  -3.138   4.869  0.00  0.00    +0.001 A 
ATOM      8  C   UNL     1      -2.521  -2.415   5.969  0.00  0.00    +0.004 A 
ATOM      9  C   UNL     1      -1.653  -1.355   5.814  0.00  0.00    +0.047 A 
ATOM     10  C   UNL     1      -1.208  -1.002   4.546  0.00  0.00    +0.140 A 
ATOM     11  O   UNL     1      -0.358   0.031   4.375  0.00  0.00    -0.451 OA
ATOM     12  C   UNL     1       0.096   0.396   3.164  0.00  0.00    +0.181 A 
BRANCH  12  13
ATOM     13  C   UNL     1       1.028   1.536   3.069  0.00  0.00    +0.021 A 
ATOM     14  C   UNL     1       0.707   2.757   3.665  0.00  0.00    +0.012 A 
ATOM     15  C   UNL     1       1.583   3.818   3.573  0.00  0.00    +0.001 A 
ATOM     16  C   UNL     1       2.779   3.675   2.890  0.00  0.00    +0.000 A 
ATOM     17  C   UNL     1       3.104   2.467   2.297  0.00  0.00    +0.001 A 
ATOM     18  C   UNL     1       2.240   1.396   2.387  0.00  0.00    +0.012 A 
ENDBRANCH  12  13
ENDBRANCH   1   2
BRANCH   1  20
ATOM     19  C   UNL     1      -1.025   2.085   0.011  0.00  0.00    +0.062 C 
ATOM     20  C   UNL     1      -0.752   0.589  -0.158  0.00  0.00    +0.256 C 
BRANCH  20  21
ATOM     21  C   UNL     1      -0.210   0.330  -1.540  0.00  0.00    +0.258 C 
ATOM     22  O   UNL     1       0.984   0.211  -1.711  0.00  0.00    -0.271 OA
ATOM     23  N   UNL     1      -1.054   0.231  -2.586  0.00  0.00    -0.282 N 
ATOM     24  H   UNL     1      -2.013   0.246  -2.439  0.00  0.00    +0.155 HD
BRANCH  23  25
ATOM     25  C   UNL     1      -0.547   0.104  -3.886  0.00  0.00    +0.034 A 
ATOM     26  C   UNL     1       0.671  -0.528  -4.097  0.00  0.00    +0.025 A 
ATOM     27  C   UNL     1       1.172  -0.652  -5.378  0.00  0.00    +0.025 A 
ATOM     28  C   UNL     1       0.456  -0.145  -6.455  0.00  0.00    +0.033 A 
ATOM     29  C   UNL     1      -0.762   0.487  -6.243  0.00  0.00    +0.025 A 
ATOM     30  C   UNL     1      -1.265   0.606  -4.963  0.00  0.00    +0.025 A 
BRANCH  28  31
ATOM     31  N   UNL     1       0.964  -0.271  -7.754  0.00  0.00    -0.286 N 
ATOM     32  C   UNL     1       0.701   0.677  -8.675  0.00  0.00    +0.214 C 
ATOM     33  O   UNL     1       0.118   1.690  -8.353  0.00  0.00    -0.276 OA
ATOM     34  C   UNL     1       1.133   0.479 -10.105  0.00  0.00    +0.109 C 
ATOM     35  H   UNL     1       1.505  -1.041  -7.991  0.00  0.00    +0.155 HD
ENDBRANCH  28  31
ENDBRANCH  23  25
ENDBRANCH  20  21
ENDBRANCH   1  20
TORSDOF 6
