REMARK  Name = ZINC00906196
REMARK  12 active torsions:
REMARK  status: ('A' for Active; 'I' for Inactive)
REMARK    1  A    between atoms: C_1  and  C_2
REMARK    2  A    between atoms: C_2  and  C_3
REMARK    3  A    between atoms: C_6  and  N_9
REMARK    4  A    between atoms: N_9  and  C_10
REMARK    5  A    between atoms: C_10  and  C_12
REMARK    6  A    between atoms: C_10  and  C_21
REMARK    7  A    between atoms: C_15  and  O_19
REMARK    8  A    between atoms: C_16  and  O_18
REMARK    9  A    between atoms: O_19  and  C_20
REMARK   10  A    between atoms: N_23  and  C_24
REMARK   11  A    between atoms: C_30  and  C_32
REMARK   12  A    between atoms: C_32  and  N_33
REMARK                            x       y       z     vdW  Elec       q    Type
REMARK                         _______ _______ _______ _____ _____    ______ ____
ROOT
ATOM      1  N   UNL     1      -5.204   3.305  -1.876  0.00  0.00    -0.254 N 
ATOM      2  C   UNL     1      -4.541   4.401  -1.457  0.00  0.00    +0.242 C 
ATOM      3  O   UNL     1      -4.648   5.444  -2.065  0.00  0.00    -0.273 OA
ENDROOT
BRANCH   1   7
ATOM      4  C   UNL     1      -5.083  -0.194   0.383  0.00  0.00    -0.048 A 
ATOM      5  C   UNL     1      -4.437  -0.139  -0.838  0.00  0.00    +0.005 A 
ATOM      6  C   UNL     1      -4.475   1.020  -1.589  0.00  0.00    +0.024 A 
ATOM      7  C   UNL     1      -5.163   2.130  -1.117  0.00  0.00    +0.037 A 
ATOM      8  C   UNL     1      -5.806   2.073   0.113  0.00  0.00    +0.024 A 
ATOM      9  C   UNL     1      -5.769   0.910   0.857  0.00  0.00    +0.005 A 
BRANCH   4  11
ATOM     10  C   UNL     1      -3.825  -1.423   2.132  0.00  0.00    +0.009 C 
ATOM     11  C   UNL     1      -5.039  -1.459   1.200  0.00  0.00    +0.032 C 
ENDBRANCH   4  11
ENDBRANCH   1   7
BRANCH   1  12
ATOM     12  C   UNL     1      -5.967   3.344  -3.125  0.00  0.00    +0.197 C 
BRANCH  12  13
ATOM     13  C   UNL     1      -6.487   1.964  -3.439  0.00  0.00    -0.014 A 
ATOM     14  C   UNL     1      -7.298   1.309  -2.531  0.00  0.00    +0.010 A 
ATOM     15  C   UNL     1      -7.782   0.046  -2.817  0.00  0.00    +0.050 A 
ATOM     16  C   UNL     1      -7.446  -0.570  -4.011  0.00  0.00    +0.161 A 
ATOM     17  C   UNL     1      -6.625   0.087  -4.923  0.00  0.00    +0.159 A 
ATOM     18  C   UNL     1      -6.148   1.355  -4.633  0.00  0.00    +0.055 A 
BRANCH  17  19
ATOM     19  O   UNL     1      -6.293  -0.514  -6.097  0.00  0.00    -0.503 OA
ATOM     20  H   UNL     1      -5.485  -1.044  -6.053  0.00  0.00    +0.292 HD
ENDBRANCH  17  19
BRANCH  16  21
ATOM     21  O   UNL     1      -7.916  -1.815  -4.292  0.00  0.00    -0.491 OA
ATOM     22  C   UNL     1      -8.753  -2.429  -3.309  0.00  0.00    +0.277 C 
ENDBRANCH  16  21
ENDBRANCH  12  13
BRANCH  12  23
ATOM     23  C   UNL     1      -7.126   4.295  -2.977  0.00  0.00    +0.239 C 
ATOM     24  O   UNL     1      -7.297   4.883  -1.930  0.00  0.00    -0.273 OA
ATOM     25  N   UNL     1      -7.972   4.493  -4.007  0.00  0.00    -0.311 N 
ATOM     26  H   UNL     1      -7.835   4.023  -4.844  0.00  0.00    +0.149 HD
BRANCH  25  27
ATOM     27  C   UNL     1      -9.099   5.419  -3.862  0.00  0.00    +0.073 C 
ATOM     28  C   UNL     1     -10.281   4.687  -3.223  0.00  0.00    +0.022 C 
ATOM     29  C   UNL     1     -11.457   5.654  -3.072  0.00  0.00    +0.002 C 
ATOM     30  C   UNL     1     -11.866   6.178  -4.450  0.00  0.00    +0.000 C 
ATOM     31  C   UNL     1     -10.684   6.910  -5.089  0.00  0.00    +0.002 C 
ATOM     32  C   UNL     1      -9.508   5.943  -5.240  0.00  0.00    +0.022 C 
ENDBRANCH  25  27
ENDBRANCH  12  23
ENDBRANCH   1  12
BRANCH   2  33
ATOM     33  C   UNL     1      -3.665   4.329  -0.232  0.00  0.00    +0.242 C 
BRANCH  33  34
ATOM     34  N   UNL     1      -2.961   5.603  -0.060  0.00  0.00    -0.235 N 
ATOM     35  C   UNL     1      -1.735   5.941  -0.580  0.00  0.00    +0.090 A 
ATOM     36  C   UNL     1      -0.808   5.280  -1.379  0.00  0.00    +0.029 A 
ATOM     37  C   UNL     1       0.354   5.907  -1.733  0.00  0.00    +0.002 A 
ATOM     38  C   UNL     1       0.615   7.204  -1.309  0.00  0.00    +0.002 A 
ATOM     39  C   UNL     1      -0.280   7.875  -0.529  0.00  0.00    +0.032 A 
ATOM     40  C   UNL     1      -1.477   7.254  -0.148  0.00  0.00    +0.113 A 
ATOM     41  N   UNL     1      -2.527   7.653   0.597  0.00  0.00    -0.129 NA
ATOM     42  N   UNL     1      -3.406   6.716   0.667  0.00  0.00    -0.064 NA
ENDBRANCH  33  34
ENDBRANCH   2  33
TORSDOF 10
