REMARK  Name = ZINC67584899
REMARK  10 active torsions:
REMARK  status: ('A' for Active; 'I' for Inactive)
REMARK    1  A    between atoms: C_1  and  C_2
REMARK    2  A    between atoms: C_2  and  C_3
REMARK    3  A    between atoms: C_3  and  C_4
REMARK    4  A    between atoms: N_6  and  C_7
REMARK    5  A    between atoms: C_11  and  N_14
REMARK    6  A    between atoms: C_12  and  C_13
REMARK    7  A    between atoms: N_17  and  C_18
REMARK    8  A    between atoms: C_18  and  C_19
REMARK    9  A    between atoms: C_19  and  C_21
REMARK   10  A    between atoms: C_19  and  O_28
REMARK                            x       y       z     vdW  Elec       q    Type
REMARK                         _______ _______ _______ _____ _____    ______ ____
ROOT
ATOM      1  N   UNL     1       2.830  -6.889  -4.072  0.00  0.00    -0.269 N 
ATOM      2  C   UNL     1       2.381  -8.104  -4.444  0.00  0.00    +0.304 C 
ATOM      3  O   UNL     1       1.437  -8.607  -3.866  0.00  0.00    -0.253 OA
ATOM      4  N   UNL     1       2.979  -8.761  -5.457  0.00  0.00    -0.296 N 
ATOM      5  H   UNL     1       3.624  -6.517  -4.485  0.00  0.00    +0.156 HD
ATOM      6  H   UNL     1       3.732  -8.360  -5.918  0.00  0.00    +0.150 HD
ENDROOT
BRANCH   1  11
ATOM      7  C   UNL     1       1.402  -4.064  -2.192  0.00  0.00    +0.038 A 
ATOM      8  C   UNL     1       0.798  -4.734  -1.135  0.00  0.00    +0.024 A 
ATOM      9  C   UNL     1       0.871  -6.111  -1.056  0.00  0.00    +0.004 A 
ATOM     10  C   UNL     1       1.543  -6.827  -2.028  0.00  0.00    +0.024 A 
ATOM     11  C   UNL     1       2.148  -6.163  -3.088  0.00  0.00    +0.039 A 
ATOM     12  C   UNL     1       2.073  -4.780  -3.172  0.00  0.00    -0.008 A 
ATOM     13  C   UNL     1       2.723  -4.057  -4.324  0.00  0.00    +0.047 C 
BRANCH   7  16
ATOM     14  C   UNL     1       0.315  -2.013  -1.672  0.00  0.00    +0.217 C 
ATOM     15  O   UNL     1      -0.587  -2.635  -1.151  0.00  0.00    -0.275 OA
ATOM     16  N   UNL     1       1.328  -2.669  -2.271  0.00  0.00    -0.285 N 
ATOM     17  H   UNL     1       2.006  -2.174  -2.756  0.00  0.00    +0.155 HD
BRANCH  14  18
ATOM     18  C   UNL     1       0.302  -0.506  -1.649  0.00  0.00    +0.096 C 
BRANCH  18  20
ATOM     19  C   UNL     1      -0.961   1.512  -0.890  0.00  0.00    +0.004 C 
ATOM     20  C   UNL     1      -0.948  -0.018  -0.913  0.00  0.00    +0.006 C 
ENDBRANCH  18  20
ENDBRANCH  14  18
ENDBRANCH   7  16
ENDBRANCH   1  11
BRANCH   4  21
ATOM     21  C   UNL     1       2.492 -10.082  -5.862  0.00  0.00    +0.142 C 
BRANCH  21  22
ATOM     22  C   UNL     1       3.338 -10.603  -7.026  0.00  0.00    +0.164 C 
BRANCH  22  23
ATOM     23  C   UNL     1       2.837 -11.962  -7.442  0.00  0.00    +0.018 A 
ATOM     24  C   UNL     1       1.937 -12.077  -8.485  0.00  0.00    +0.009 A 
ATOM     25  C   UNL     1       1.477 -13.323  -8.868  0.00  0.00    +0.001 A 
ATOM     26  C   UNL     1       1.916 -14.456  -8.207  0.00  0.00    +0.003 A 
ATOM     27  C   UNL     1       2.816 -14.344  -7.165  0.00  0.00    +0.039 A 
ATOM     28  C   UNL     1       3.281 -13.096  -6.784  0.00  0.00    +0.129 A 
ATOM     29  F   UNL     1       4.165 -12.985  -5.768  0.00  0.00    -0.205 F 
ENDBRANCH  22  23
BRANCH  22  30
ATOM     30  O   UNL     1       3.240  -9.700  -8.129  0.00  0.00    -0.386 OA
ATOM     31  H   UNL     1       2.340  -9.583  -8.461  0.00  0.00    +0.210 HD
ENDBRANCH  22  30
ENDBRANCH  21  22
ENDBRANCH   4  21
TORSDOF 8
