REMARK  Name = ZINC13499066
REMARK  16 active torsions:
REMARK  status: ('A' for Active; 'I' for Inactive)
REMARK    1  A    between atoms: C_1  and  C_2
REMARK    2  A    between atoms: C_5  and  C_8
REMARK    3  A    between atoms: C_8  and  N_9
REMARK    4  A    between atoms: N_9  and  C_10
REMARK    5  A    between atoms: N_9  and  C_25
REMARK    6  A    between atoms: C_10  and  C_11
REMARK    7  A    between atoms: C_14  and  C_24
REMARK    8  A    between atoms: C_16  and  C_23
REMARK    9  A    between atoms: C_25  and  C_27
REMARK   10  A    between atoms: C_25  and  C_36
REMARK   11  A    between atoms: N_31  and  C_32
REMARK   12  A    between atoms: C_32  and  C_33
REMARK   13  A    between atoms: C_32  and  C_34
REMARK   14  A    between atoms: C_32  and  C_35
REMARK   15  A    between atoms: C_36  and  C_37
REMARK   16  A    between atoms: C_36  and  C_38
REMARK                            x       y       z     vdW  Elec       q    Type
REMARK                         _______ _______ _______ _____ _____    ______ ____
ROOT
ATOM      1  N   UNL     1      -2.259   0.575   1.440  0.00  0.00    +0.392 N 
ATOM      2  H   UNL     1      -2.230  -0.513   1.282  0.00  0.00    -0.080 HD
ENDROOT
BRANCH   1   3
ATOM      3  C   UNL     1      -3.192   0.846   2.542  0.00  0.00    -0.042 C 
BRANCH   3   8
ATOM      4  C   UNL     1      -2.124  -2.785   6.909  0.00  0.00    +0.044 C 
ATOM      5  C   UNL     1      -2.402  -1.838   5.770  0.00  0.00    -0.050 A 
ATOM      6  C   UNL     1      -1.851  -0.571   5.774  0.00  0.00    +0.003 A 
ATOM      7  C   UNL     1      -2.107   0.298   4.730  0.00  0.00    +0.002 A 
ATOM      8  C   UNL     1      -2.913  -0.101   3.681  0.00  0.00    -0.064 A 
ATOM      9  C   UNL     1      -3.469  -1.367   3.679  0.00  0.00    +0.002 A 
ATOM     10  C   UNL     1      -3.210  -2.237   4.721  0.00  0.00    +0.003 A 
ENDBRANCH   3   8
ENDBRANCH   1   3
BRANCH   1  11
ATOM     11  C   UNL     1      -2.721   1.200   0.194  0.00  0.00    -0.036 C 
BRANCH  11  12
ATOM     12  C   UNL     1      -2.144   0.458  -0.984  0.00  0.00    +0.001 A 
ATOM     13  C   UNL     1      -2.558  -0.804  -1.257  0.00  0.00    +0.017 A 
ATOM     14  C   UNL     1      -1.978  -1.497  -2.408  0.00  0.00    +0.002 A 
ATOM     15  C   UNL     1      -2.367  -2.800  -2.740  0.00  0.00    -0.041 A 
ATOM     16  C   UNL     1      -1.807  -3.419  -3.821  0.00  0.00    +0.007 A 
ATOM     17  C   UNL     1      -0.855  -2.767  -4.594  0.00  0.00    -0.048 A 
ATOM     18  C   UNL     1      -0.457  -1.484  -4.286  0.00  0.00    +0.029 A 
ATOM     19  C   UNL     1      -1.014  -0.833  -3.190  0.00  0.00    +0.050 A 
ATOM     20  N   UNL     1      -0.635   0.450  -2.859  0.00  0.00    -0.322 N 
ATOM     21  H   UNL     1       0.121   0.973  -3.463  0.00  0.00    +0.169 HD
ATOM     22  C   UNL     1      -1.178   1.081  -1.803  0.00  0.00    +0.251 A 
ATOM     23  O   UNL     1      -0.822   2.218  -1.543  0.00  0.00    -0.268 OA
ATOM     24  C   UNL     1      -0.251  -3.471  -5.782  0.00  0.00    +0.044 C 
ATOM     25  C   UNL     1      -3.399  -3.516  -1.907  0.00  0.00    +0.044 C 
ENDBRANCH  11  12
ENDBRANCH   1  11
BRANCH   1  26
ATOM     26  C   UNL     1      -0.900   1.018   1.780  0.00  0.00    +0.006 C 
BRANCH  26  27
ATOM     27  C   UNL     1       0.099   0.256   0.949  0.00  0.00    +0.139 A 
ATOM     28  N   UNL     1       0.855   0.741  -0.006  0.00  0.00    -0.115 NA
ATOM     29  N   UNL     1       1.572  -0.221  -0.474  0.00  0.00    -0.023 NA
ATOM     30  N   UNL     1       1.293  -1.308   0.157  0.00  0.00    -0.043 NA
ATOM     31  N   UNL     1       0.393  -1.054   1.046  0.00  0.00    -0.226 N 
BRANCH  31  32
ATOM     32  C   UNL     1      -0.200  -2.011   1.983  0.00  0.00    +0.059 C 
ATOM     33  C   UNL     1      -1.687  -2.182   1.664  0.00  0.00    +0.036 C 
ATOM     34  C   UNL     1       0.509  -3.361   1.849  0.00  0.00    +0.036 C 
ATOM     35  C   UNL     1      -0.041  -1.491   3.413  0.00  0.00    +0.036 C 
ENDBRANCH  31  32
ENDBRANCH  26  27
BRANCH  26  36
ATOM     36  C   UNL     1      -0.766   2.515   1.494  0.00  0.00    -0.024 C 
ATOM     37  C   UNL     1       0.623   2.994   1.922  0.00  0.00    +0.006 C 
ATOM     38  C   UNL     1      -1.833   3.282   2.277  0.00  0.00    +0.006 C 
ENDBRANCH  26  36
ENDBRANCH   1  26
TORSDOF 8
