REMARK  Name = ZINC43225727
REMARK  11 active torsions:
REMARK  status: ('A' for Active; 'I' for Inactive)
REMARK    1  A    between atoms: C_1  and  C_2
REMARK    2  A    between atoms: C_2  and  C_3
REMARK    3  A    between atoms: C_3  and  C_4
REMARK    4  A    between atoms: C_4  and  C_5
REMARK    5  A    between atoms: C_6  and  C_23
REMARK    6  A    between atoms: C_7  and  C_20
REMARK    7  A    between atoms: C_8  and  C_19
REMARK    8  A    between atoms: N_9  and  C_10
REMARK    9  A    between atoms: C_10  and  C_11
REMARK   10  A    between atoms: C_11  and  C_12
REMARK   11  A    between atoms: C_15  and  O_18
REMARK                            x       y       z     vdW  Elec       q    Type
REMARK                         _______ _______ _______ _____ _____    ______ ____
ROOT
ATOM      1  C   UNL     1       1.444  -2.513  -2.505  0.00  0.00    +0.029 A 
ATOM      2  C   UNL     1       0.855  -2.773  -3.702  0.00  0.00    +0.033 A 
ATOM      3  C   UNL     1       1.936  -3.219  -4.600  0.00  0.00    +0.066 A 
ATOM      4  C   UNL     1       3.081  -3.186  -3.856  0.00  0.00    +0.029 A 
ATOM      5  N   UNL     1       2.777  -2.759  -2.614  0.00  0.00    -0.346 N 
ATOM      6  C   UNL     1       4.457  -3.558  -4.345  0.00  0.00    +0.064 C 
ENDROOT
BRANCH   2   7
ATOM      7  C   UNL     1      -0.581  -2.637  -4.036  0.00  0.00    +0.074 A 
ATOM      8  C   UNL     1      -1.018  -2.958  -5.332  0.00  0.00    +0.029 A 
ATOM      9  C   UNL     1      -2.337  -2.837  -5.652  0.00  0.00    +0.012 A 
ATOM     10  C   UNL     1      -3.228  -2.388  -4.657  0.00  0.00    +0.000 A 
ATOM     11  C   UNL     1      -4.599  -2.241  -4.920  0.00  0.00    +0.010 A 
ATOM     12  C   UNL     1      -5.431  -1.805  -3.934  0.00  0.00    +0.001 A 
ATOM     13  C   UNL     1      -4.940  -1.502  -2.666  0.00  0.00    +0.002 A 
ATOM     14  C   UNL     1      -3.617  -1.632  -2.376  0.00  0.00    +0.028 A 
ATOM     15  C   UNL     1      -2.726  -2.080  -3.368  0.00  0.00    +0.072 A 
ATOM     16  N   UNL     1      -1.423  -2.222  -3.108  0.00  0.00    -0.247 NA
ENDBRANCH   2   7
BRANCH   3  17
ATOM     17  C   UNL     1       1.808  -3.619  -6.010  0.00  0.00    +0.244 C 
ATOM     18  O   UNL     1       1.919  -2.788  -6.891  0.00  0.00    -0.270 OA
ATOM     19  N   UNL     1       1.568  -4.907  -6.326  0.00  0.00    -0.325 N 
ATOM     20  H   UNL     1       1.480  -5.571  -5.623  0.00  0.00    +0.145 HD
ATOM     21  H   UNL     1       1.484  -5.171  -7.255  0.00  0.00    +0.145 HD
ENDBRANCH   3  17
BRANCH   1  22
ATOM     22  C   UNL     1       0.739  -2.027  -1.265  0.00  0.00    +0.054 C 
BRANCH  22  23
ATOM     23  C   UNL     1       0.718  -0.497  -1.257  0.00  0.00    +0.006 C 
BRANCH  23  25
ATOM     24  C   UNL     1      -0.019   1.526   0.010  0.00  0.00    +0.004 C 
ATOM     25  C   UNL     1       0.002  -0.004   0.002  0.00  0.00    -0.003 C 
ENDBRANCH  23  25
ENDBRANCH  22  23
ENDBRANCH   1  22
BRANCH   5  26
ATOM     26  C   UNL     1       3.748  -2.588  -1.530  0.00  0.00    +0.126 C 
BRANCH  26  27
ATOM     27  C   UNL     1       3.868  -3.893  -0.742  0.00  0.00    +0.056 C 
BRANCH  27  28
ATOM     28  C   UNL     1       4.867  -3.717   0.373  0.00  0.00    -0.045 A 
ATOM     29  C   UNL     1       6.204  -3.991   0.151  0.00  0.00    +0.007 A 
ATOM     30  C   UNL     1       7.122  -3.831   1.171  0.00  0.00    +0.045 A 
ATOM     31  C   UNL     1       6.700  -3.394   2.419  0.00  0.00    +0.117 A 
ATOM     32  C   UNL     1       5.358  -3.119   2.639  0.00  0.00    +0.045 A 
ATOM     33  C   UNL     1       4.446  -3.276   1.613  0.00  0.00    +0.007 A 
BRANCH  31  34
ATOM     34  O   UNL     1       7.601  -3.236   3.424  0.00  0.00    -0.507 OA
ATOM     35  H   UNL     1       7.993  -2.353   3.466  0.00  0.00    +0.292 HD
ENDBRANCH  31  34
ENDBRANCH  27  28
ENDBRANCH  26  27
ENDBRANCH   5  26
TORSDOF 9
