REMARK  Name = ZINC24945739
REMARK  6 active torsions:
REMARK  status: ('A' for Active; 'I' for Inactive)
REMARK    1  A    between atoms: C_4  and  C_7
REMARK    2  A    between atoms: N_16  and  C_17
REMARK    3  A    between atoms: C_17  and  C_18
REMARK    4  A    between atoms: N_20  and  C_21
REMARK    5  A    between atoms: C_21  and  C_22
REMARK    6  A    between atoms: N_24  and  C_25
REMARK                            x       y       z     vdW  Elec       q    Type
REMARK                         _______ _______ _______ _____ _____    ______ ____
ROOT
ATOM      1  C   UNL     1      -8.433   2.645  -0.425  0.00  0.00    +0.020 C 
ENDROOT
BRANCH   1  10
ATOM      2  C   UNL     1     -10.809   2.456  -0.850  0.00  0.00    -0.005 C 
ATOM      3  C   UNL     1     -12.106   3.258  -0.911  0.00  0.00    -0.047 A 
ATOM      4  C   UNL     1     -13.264   2.814  -1.545  0.00  0.00    +0.010 A 
ATOM      5  C   UNL     1     -14.371   3.592  -1.553  0.00  0.00    +0.045 A 
ATOM      6  S   UNL     1     -13.821   5.027  -0.642  0.00  0.00    -0.101 S 
ATOM      7  C   UNL     1     -12.166   4.484  -0.321  0.00  0.00    -0.010 A 
ATOM      8  C   UNL     1     -11.067   5.174   0.418  0.00  0.00    +0.024 C 
ATOM      9  C   UNL     1      -9.972   4.133   0.708  0.00  0.00    -0.072 C 
ATOM     10  N   UNL     1      -9.708   3.370  -0.520  0.00  0.00    +0.393 N 
ATOM     11  H   UNL     1      -9.632   4.095  -1.343  0.00  0.00    -0.080 HD
BRANCH   2  15
ATOM     12  C   UNL     1     -10.072   0.630  -4.640  0.00  0.00    +0.000 A 
ATOM     13  C   UNL     1     -10.604  -0.116  -3.606  0.00  0.00    +0.000 A 
ATOM     14  C   UNL     1     -10.843   0.475  -2.379  0.00  0.00    +0.002 A 
ATOM     15  C   UNL     1     -10.549   1.812  -2.187  0.00  0.00    -0.057 A 
ATOM     16  C   UNL     1     -10.021   2.559  -3.223  0.00  0.00    +0.002 A 
ATOM     17  C   UNL     1      -9.778   1.967  -4.448  0.00  0.00    +0.000 A 
ENDBRANCH   2  15
ENDBRANCH   1  10
BRANCH   1  18
ATOM     18  C   UNL     1      -7.299   3.634  -0.332  0.00  0.00    +0.197 C 
ATOM     19  O   UNL     1      -7.530   4.824  -0.342  0.00  0.00    -0.278 OA
ATOM     20  N   UNL     1      -6.029   3.195  -0.235  0.00  0.00    -0.308 N 
ATOM     21  H   UNL     1      -5.819   2.115  -0.226  0.00  0.00    +0.149 HD
BRANCH  20  22
ATOM     22  C   UNL     1      -4.927   4.156  -0.144  0.00  0.00    +0.200 C 
BRANCH  22  23
ATOM     23  C   UNL     1      -3.619   3.413  -0.047  0.00  0.00    +0.234 C 
ATOM     24  O   UNL     1      -3.609   2.200  -0.054  0.00  0.00    -0.274 OA
ATOM     25  N   UNL     1      -2.461   4.096   0.047  0.00  0.00    -0.284 N 
ATOM     26  H   UNL     1      -2.475   5.192   0.140  0.00  0.00    +0.155 HD
BRANCH  25  27
ATOM     27  C   UNL     1      -1.240   3.410   0.025  0.00  0.00    +0.036 A 
ATOM     28  C   UNL     1      -1.105   2.255  -0.732  0.00  0.00    +0.026 A 
ATOM     29  C   UNL     1       0.100   1.579  -0.753  0.00  0.00    +0.043 A 
ATOM     30  C   UNL     1       1.173   2.054  -0.019  0.00  0.00    +0.159 A 
ATOM     31  C   UNL     1       1.041   3.208   0.739  0.00  0.00    +0.160 A 
ATOM     32  C   UNL     1      -0.165   3.883   0.766  0.00  0.00    +0.064 A 
ATOM     33  F   UNL     1       2.090   3.669   1.455  0.00  0.00    -0.202 F 
ATOM     34  F   UNL     1       2.351   1.392  -0.041  0.00  0.00    -0.202 F 
ENDBRANCH  25  27
ENDBRANCH  22  23
ENDBRANCH  20  22
ENDBRANCH   1  18
TORSDOF 6
