REMARK  Name = ZINC37029844
REMARK  6 active torsions:
REMARK  status: ('A' for Active; 'I' for Inactive)
REMARK    1  A    between atoms: C_3  and  N_16
REMARK    2  A    between atoms: C_6  and  N_7
REMARK    3  A    between atoms: N_7  and  S_8
REMARK    4  A    between atoms: S_8  and  C_11
REMARK    5  A    between atoms: C_11  and  C_12
REMARK    6  A    between atoms: C_12  and  C_13
REMARK                            x       y       z     vdW  Elec       q    Type
REMARK                         _______ _______ _______ _____ _____    ______ ____
ROOT
ATOM      1  C   UNL     1      -0.017   1.389   0.010  0.00  0.00    +0.032 A 
ATOM      2  C   UNL     1       1.191   2.064   0.002  0.00  0.00    +0.050 A 
ATOM      3  C   UNL     1       2.374   1.336  -0.013  0.00  0.00    +0.156 A 
ATOM      4  N   UNL     1       2.355   0.013  -0.020  0.00  0.00    -0.234 NA
ATOM      5  C   UNL     1       1.224  -0.664  -0.013  0.00  0.00    +0.139 A 
ATOM      6  C   UNL     1       0.002  -0.004   0.002  0.00  0.00    +0.092 A 
ENDROOT
BRANCH   3   7
ATOM      7  N   UNL     1       3.601   2.010  -0.022  0.00  0.00    -0.202 N 
ATOM      8  C   UNL     1       4.828   1.454  -0.042  0.00  0.00    +0.226 A 
ATOM      9  N   UNL     1       5.710   2.420  -0.045  0.00  0.00    -0.222 NA
ATOM     10  C   UNL     1       5.090   3.600  -0.026  0.00  0.00    +0.245 A 
ATOM     11  N   UNL     1       3.798   3.401  -0.017  0.00  0.00    -0.152 NA
ENDBRANCH   3   7
BRANCH   6  12
ATOM     12  N   UNL     1      -1.194  -0.729   0.010  0.00  0.00    -0.101 NA
BRANCH  12  13
ATOM     13  S   UNL     1      -1.159  -2.384   0.001  0.00  0.00    +0.063 S 
ATOM     14  O   UNL     1      -0.561  -2.727  -1.242  0.00  0.00    -0.154 OA
ATOM     15  O   UNL     1      -0.536  -2.741   1.227  0.00  0.00    -0.154 OA
BRANCH  13  16
ATOM     16  C   UNL     1      -2.902  -2.887   0.015  0.00  0.00    +0.202 C 
BRANCH  16  17
ATOM     17  C   UNL     1      -2.992  -4.415   0.008  0.00  0.00    +0.149 C 
BRANCH  17  18
ATOM     18  C   UNL     1      -4.440  -4.832   0.020  0.00  0.00    +0.358 C 
ATOM     19  O   UNL     1      -5.318  -3.987   0.034  0.00  0.00    -0.246 OA
ATOM     20  O   UNL     1      -4.733  -6.016   0.017  0.00  0.00    -0.246 OA
ENDBRANCH  17  18
ENDBRANCH  16  17
ENDBRANCH  13  16
ENDBRANCH  12  13
ENDBRANCH   6  12
TORSDOF 6
