REMARK  Name = ZINC17190779
REMARK  13 active torsions:
REMARK  status: ('A' for Active; 'I' for Inactive)
REMARK    1  A    between atoms: C_1  and  C_2
REMARK    2  A    between atoms: C_3  and  C_34
REMARK    3  A    between atoms: C_11  and  C_13
REMARK    4  A    between atoms: C_13  and  C_15
REMARK    5  A    between atoms: C_13  and  S_16
REMARK    6  A    between atoms: S_16  and  C_17
REMARK    7  A    between atoms: C_20  and  C_23
REMARK    8  A    between atoms: N_21  and  N_22
REMARK    9  A    between atoms: C_23  and  O_24
REMARK   10  A    between atoms: O_24  and  C_25
REMARK   11  A    between atoms: C_28  and  C_31
REMARK   12  A    between atoms: C_31  and  C_32
REMARK   13  A    between atoms: C_31  and  C_33
REMARK                            x       y       z     vdW  Elec       q    Type
REMARK                         _______ _______ _______ _____ _____    ______ ____
ROOT
ATOM      1  C   UNL     1      -0.876  -5.847   5.633  0.00  0.00    +0.209 A 
ATOM      2  N   UNL     1      -0.303  -5.509   6.765  0.00  0.00    -0.121 NA
ATOM      3  N   UNL     1      -0.503  -6.423   7.646  0.00  0.00    -0.128 NA
ATOM      4  C   UNL     1      -1.210  -7.390   7.133  0.00  0.00    +0.189 A 
ATOM      5  N   UNL     1      -1.478  -7.055   5.835  0.00  0.00    -0.225 N 
ENDROOT
BRANCH   5   6
ATOM      6  N   UNL     1      -2.196  -7.781   4.927  0.00  0.00    -0.295 N 
ATOM      7  H   UNL     1      -1.597  -8.411   4.414  0.00  0.00    +0.163 HD
ATOM      8  H   UNL     1      -2.947  -8.282   5.377  0.00  0.00    +0.163 HD
ENDBRANCH   5   6
BRANCH   1   9
ATOM      9  S   UNL     1      -0.875  -4.913   4.139  0.00  0.00    -0.074 S 
BRANCH   9  10
ATOM     10  C   UNL     1       0.090  -3.432   4.547  0.00  0.00    +0.117 C 
ATOM     11  C   UNL     1       1.535  -3.832   4.850  0.00  0.00    +0.027 C 
BRANCH  10  22
ATOM     12  C   UNL     1      -0.018   1.503   0.010  0.00  0.00    +0.045 C 
ATOM     13  C   UNL     1       0.002  -0.004   0.002  0.00  0.00    -0.026 A 
ATOM     14  C   UNL     1       0.006  -0.677  -1.160  0.00  0.00    -0.008 A 
ATOM     15  S   UNL     1       0.032  -2.385  -0.648  0.00  0.00    -0.073 S 
ATOM     16  C   UNL     1       0.037  -2.144   1.110  0.00  0.00    +0.116 A 
ATOM     17  C   UNL     1       0.024  -0.745   1.250  0.00  0.00    +0.075 A 
ATOM     18  C   UNL     1       0.029  -0.257   2.597  0.00  0.00    +0.260 A 
ATOM     19  O   UNL     1       0.014   0.942   2.821  0.00  0.00    -0.267 OA
ATOM     20  N   UNL     1       0.051  -1.142   3.611  0.00  0.00    -0.309 N 
ATOM     21  H   UNL     1       0.054  -0.817   4.525  0.00  0.00    +0.170 HD
ATOM     22  C   UNL     1       0.067  -2.480   3.380  0.00  0.00    +0.124 A 
ATOM     23  N   UNL     1       0.053  -2.956   2.163  0.00  0.00    -0.225 NA
ATOM     24  C   UNL     1      -0.009  -0.122  -2.561  0.00  0.00    +0.052 C 
ENDBRANCH  10  22
ENDBRANCH   9  10
ENDBRANCH   1   9
BRANCH   4  25
ATOM     25  C   UNL     1      -1.655  -8.643   7.843  0.00  0.00    +0.306 C 
BRANCH  25  26
ATOM     26  O   UNL     1      -2.928  -8.418   8.453  0.00  0.00    -0.484 OA
BRANCH  26  27
ATOM     27  C   UNL     1      -3.475  -9.457   9.138  0.00  0.00    +0.121 A 
ATOM     28  C   UNL     1      -2.800 -10.665   9.226  0.00  0.00    +0.046 A 
ATOM     29  C   UNL     1      -3.358 -11.719   9.923  0.00  0.00    +0.007 A 
ATOM     30  C   UNL     1      -4.590 -11.570  10.533  0.00  0.00    -0.045 A 
ATOM     31  C   UNL     1      -5.266 -10.366  10.447  0.00  0.00    +0.007 A 
ATOM     32  C   UNL     1      -4.708  -9.308   9.756  0.00  0.00    +0.046 A 
BRANCH  30  33
ATOM     33  C   UNL     1      -5.197 -12.721  11.293  0.00  0.00    +0.013 C 
ATOM     34  C   UNL     1      -5.413 -12.312  12.752  0.00  0.00    +0.012 C 
ATOM     35  C   UNL     1      -6.541 -13.094  10.664  0.00  0.00    +0.012 C 
ENDBRANCH  30  33
ENDBRANCH  26  27
ENDBRANCH  25  26
ENDBRANCH   4  25
TORSDOF 8
