REMARK  Name = ZINC03066303
REMARK  7 active torsions:
REMARK  status: ('A' for Active; 'I' for Inactive)
REMARK    1  A    between atoms: C_4  and  C_7
REMARK    2  A    between atoms: C_8  and  C_18
REMARK    3  A    between atoms: N_10  and  C_12
REMARK    4  A    between atoms: C_19  and  C_20
REMARK    5  A    between atoms: C_19  and  N_24
REMARK    6  A    between atoms: N_22  and  N_23
REMARK    7  A    between atoms: C_25  and  C_27
REMARK                            x       y       z     vdW  Elec       q    Type
REMARK                         _______ _______ _______ _____ _____    ______ ____
ROOT
ATOM      1  C   UNL     1      -0.958  -0.708   0.009  0.00  0.00    +0.040 C 
ATOM      2  C   UNL     1       0.179  -0.002   0.223  0.00  0.00    +0.098 C 
ENDROOT
BRANCH   1   4
ATOM      3  C   UNL     1      -2.078  -3.078   0.142  0.00  0.00    +0.100 A 
ATOM      4  C   UNL     1      -0.926  -2.176   0.032  0.00  0.00    +0.023 A 
ATOM      5  C   UNL     1       0.193  -2.981  -0.052  0.00  0.00    +0.123 A 
ATOM      6  N   UNL     1      -0.216  -4.263   0.009  0.00  0.00    -0.239 N 
ATOM      7  N   UNL     1      -1.609  -4.306   0.125  0.00  0.00    -0.166 NA
BRANCH   3  11
ATOM      8  C   UNL     1      -6.161  -1.938   0.459  0.00  0.00    +0.000 A 
ATOM      9  C   UNL     1      -5.817  -3.081  -0.240  0.00  0.00    +0.001 A 
ATOM     10  C   UNL     1      -4.493  -3.456  -0.346  0.00  0.00    +0.010 A 
ATOM     11  C   UNL     1      -3.501  -2.681   0.253  0.00  0.00    +0.003 A 
ATOM     12  C   UNL     1      -3.854  -1.533   0.961  0.00  0.00    +0.010 A 
ATOM     13  C   UNL     1      -5.181  -1.165   1.055  0.00  0.00    +0.001 A 
ENDBRANCH   3  11
BRANCH   6  14
ATOM     14  C   UNL     1       0.625  -5.382  -0.041  0.00  0.00    +0.065 A 
ATOM     15  C   UNL     1       2.003  -5.216  -0.062  0.00  0.00    +0.028 A 
ATOM     16  C   UNL     1       2.830  -6.322  -0.105  0.00  0.00    +0.002 A 
ATOM     17  C   UNL     1       2.285  -7.593  -0.139  0.00  0.00    +0.000 A 
ATOM     18  C   UNL     1       0.913  -7.761  -0.123  0.00  0.00    +0.002 A 
ATOM     19  C   UNL     1       0.081  -6.660  -0.074  0.00  0.00    +0.028 A 
ENDBRANCH   6  14
ENDBRANCH   1   4
BRANCH   2  20
ATOM     20  C   UNL     1       0.177   1.456   0.071  0.00  0.00    +0.272 C 
ATOM     21  O   UNL     1       1.169   2.100   0.359  0.00  0.00    -0.268 OA
ATOM     22  N   UNL     1      -0.922   2.083  -0.393  0.00  0.00    -0.249 N 
ATOM     23  H   UNL     1      -1.712   1.570  -0.626  0.00  0.00    +0.169 HD
BRANCH  22  24
ATOM     24  N   UNL     1      -0.925   3.442  -0.535  0.00  0.00    -0.254 NA
ATOM     25  H   UNL     1      -0.165   3.745  -1.126  0.00  0.00    +0.140 HD
ATOM     26  H   UNL     1      -1.811   3.767  -0.890  0.00  0.00    +0.140 HD
ENDBRANCH  22  24
ENDBRANCH   2  20
BRANCH   2  27
ATOM     27  N   UNL     1       1.358  -0.667   0.589  0.00  0.00    -0.277 N 
ATOM     28  C   UNL     1       2.470  -0.527  -0.159  0.00  0.00    +0.248 C 
ATOM     29  O   UNL     1       2.479   0.247  -1.097  0.00  0.00    -0.270 OA
ATOM     30  H   UNL     1       1.373  -1.226   1.381  0.00  0.00    +0.155 HD
BRANCH  28  31
ATOM     31  C   UNL     1       3.679  -1.316   0.160  0.00  0.00    +0.037 A 
ATOM     32  C   UNL     1       3.655  -2.244   1.202  0.00  0.00    +0.013 A 
ATOM     33  C   UNL     1       4.786  -2.980   1.492  0.00  0.00    +0.001 A 
ATOM     34  C   UNL     1       5.944  -2.793   0.758  0.00  0.00    +0.000 A 
ATOM     35  C   UNL     1       5.976  -1.870  -0.273  0.00  0.00    +0.001 A 
ATOM     36  C   UNL     1       4.851  -1.131  -0.576  0.00  0.00    +0.013 A 
ENDBRANCH  28  31
ENDBRANCH   2  27
TORSDOF 7
