REMARK  Name = ZINC35938089
REMARK  7 active torsions:
REMARK  status: ('A' for Active; 'I' for Inactive)
REMARK    1  A    between atoms: C_1  and  O_2
REMARK    2  A    between atoms: O_2  and  C_3
REMARK    3  A    between atoms: C_6  and  C_9
REMARK    4  A    between atoms: C_11  and  C_23
REMARK    5  A    between atoms: C_13  and  C_18
REMARK    6  A    between atoms: C_13  and  O_22
REMARK    7  A    between atoms: C_23  and  C_25
REMARK                            x       y       z     vdW  Elec       q    Type
REMARK                         _______ _______ _______ _____ _____    ______ ____
ROOT
ATOM      1  C   UNL     1       2.209  -2.240  -4.617  0.00  0.00    +0.120 C 
ATOM      2  C   UNL     1       1.445  -2.995  -5.711  0.00  0.00    +0.144 C 
ATOM      3  C   UNL     1       2.425  -3.918  -6.442  0.00  0.00    +0.243 C 
ATOM      4  N   UNL     1       3.078  -4.794  -5.468  0.00  0.00    -0.264 N 
ATOM      5  C   UNL     1       3.271  -4.404  -4.199  0.00  0.00    +0.302 C 
ATOM      6  O   UNL     1       3.828  -5.166  -3.433  0.00  0.00    -0.253 OA
ATOM      7  N   UNL     1       2.875  -3.206  -3.742  0.00  0.00    -0.292 N 
ATOM      8  H   UNL     1       3.377  -5.674  -5.746  0.00  0.00    +0.153 HD
ATOM      9  H   UNL     1       3.032  -2.976  -2.813  0.00  0.00    +0.151 HD
ENDROOT
BRANCH   1  13
ATOM     10  C   UNL     1      -0.526   0.114  -2.328  0.00  0.00    +0.120 A 
ATOM     11  C   UNL     1       0.151   0.680  -3.399  0.00  0.00    +0.046 A 
ATOM     12  C   UNL     1       1.035  -0.083  -4.137  0.00  0.00    +0.009 A 
ATOM     13  C   UNL     1       1.244  -1.410  -3.810  0.00  0.00    -0.026 A 
ATOM     14  C   UNL     1       0.571  -1.977  -2.744  0.00  0.00    +0.009 A 
ATOM     15  C   UNL     1      -0.310  -1.217  -1.999  0.00  0.00    +0.046 A 
BRANCH  10  17
ATOM     16  C   UNL     1      -1.569   2.224  -1.996  0.00  0.00    +0.277 C 
ATOM     17  O   UNL     1      -1.396   0.862  -1.600  0.00  0.00    -0.495 OA
ENDBRANCH  10  17
ENDBRANCH   1  13
BRANCH   3  18
ATOM     18  C   UNL     1       1.663  -4.766  -7.463  0.00  0.00    +0.436 C 
ATOM     19  F   UNL     1       0.926  -3.930  -8.308  0.00  0.00    -0.166 F 
ATOM     20  F   UNL     1       2.572  -5.511  -8.221  0.00  0.00    -0.166 F 
ATOM     21  F   UNL     1       0.794  -5.634  -6.792  0.00  0.00    -0.166 F 
ENDBRANCH   3  18
BRANCH   3  22
ATOM     22  O   UNL     1       3.410  -3.132  -7.114  0.00  0.00    -0.364 OA
ATOM     23  H   UNL     1       4.065  -3.653  -7.600  0.00  0.00    +0.212 HD
ENDBRANCH   3  22
BRANCH   2  24
ATOM     24  C   UNL     1       0.343  -3.812  -5.086  0.00  0.00    +0.173 C 
ATOM     25  O   UNL     1       0.615  -4.701  -4.308  0.00  0.00    -0.292 OA
BRANCH  24  26
ATOM     26  C   UNL     1      -1.062  -3.531  -5.421  0.00  0.00    +0.018 A 
ATOM     27  C   UNL     1      -1.386  -2.435  -6.228  0.00  0.00    +0.012 A 
ATOM     28  C   UNL     1      -2.704  -2.178  -6.538  0.00  0.00    +0.016 A 
ATOM     29  C   UNL     1      -3.707  -3.002  -6.052  0.00  0.00    +0.018 A 
ATOM     30  C   UNL     1      -3.393  -4.089  -5.253  0.00  0.00    +0.016 A 
ATOM     31  C   UNL     1      -2.079  -4.362  -4.939  0.00  0.00    +0.012 A 
ATOM     32 BR   UNL     1      -5.512  -2.641  -6.482  0.00  0.00    -0.050 Br
ENDBRANCH  24  26
ENDBRANCH   2  24
TORSDOF 6
