REMARK  Name = ZINC39948767
REMARK  15 active torsions:
REMARK  status: ('A' for Active; 'I' for Inactive)
REMARK    1  A    between atoms: C_1  and  C_2
REMARK    2  A    between atoms: N_8  and  C_9
REMARK    3  A    between atoms: C_9  and  C_10
REMARK    4  A    between atoms: C_11  and  C_21
REMARK    5  A    between atoms: N_23  and  N_24
REMARK    6  A    between atoms: C_25  and  C_26
REMARK    7  A    between atoms: C_28  and  C_37
REMARK    8  A    between atoms: C_29  and  O_36
REMARK    9  A    between atoms: C_30  and  C_32
REMARK   10  A    between atoms: C_32  and  C_33
REMARK   11  A    between atoms: C_32  and  C_34
REMARK   12  A    between atoms: C_32  and  C_35
REMARK   13  A    between atoms: C_37  and  C_38
REMARK   14  A    between atoms: C_37  and  C_39
REMARK   15  A    between atoms: C_37  and  C_40
REMARK                            x       y       z     vdW  Elec       q    Type
REMARK                         _______ _______ _______ _____ _____    ______ ____
ROOT
ATOM      1  C   UNL     1       1.580  -1.021   2.881  0.00  0.00    +0.063 A 
ATOM      2  C   UNL     1       1.375  -2.156   3.614  0.00  0.00    +0.170 A 
ATOM      3  N   UNL     1       2.530  -2.490   4.215  0.00  0.00    -0.124 NA
ATOM      4  N   UNL     1       3.441  -1.635   3.903  0.00  0.00    -0.058 NA
ATOM      5  N   UNL     1       2.878  -0.680   3.045  0.00  0.00    -0.194 N 
ATOM      6  C   UNL     1       3.532   0.416   2.472  0.00  0.00    +0.240 A 
ATOM      7  C   UNL     1       4.943   0.766   2.658  0.00  0.00    +0.206 A 
ATOM      8  N   UNL     1       5.191   1.848   1.971  0.00  0.00    -0.032 NA
ATOM      9  O   UNL     1       3.990   2.237   1.327  0.00  0.00    -0.239 OA
ATOM     10  N   UNL     1       2.991   1.297   1.678  0.00  0.00    -0.027 NA
ATOM     11  N   UNL     1       5.860   0.067   3.434  0.00  0.00    -0.337 N 
ATOM     12  H   UNL     1       5.582  -0.730   3.912  0.00  0.00    +0.144 HD
ATOM     13  H   UNL     1       6.777   0.376   3.498  0.00  0.00    +0.144 HD
ENDROOT
BRANCH   2  14
ATOM     14  C   UNL     1       0.101  -2.890   3.727  0.00  0.00    +0.285 C 
ATOM     15  O   UNL     1      -0.885  -2.492   3.135  0.00  0.00    -0.267 OA
ATOM     16  N   UNL     1       0.028  -4.002   4.485  0.00  0.00    -0.202 N 
ATOM     17  H   UNL     1       0.814  -4.319   4.957  0.00  0.00    +0.178 HD
BRANCH  16  18
ATOM     18  N   UNL     1      -1.182  -4.699   4.593  0.00  0.00    -0.187 NA
ATOM     19  C   UNL     1      -1.284  -5.699   5.413  0.00  0.00    +0.138 C 
BRANCH  19  20
ATOM     20  C   UNL     1      -0.353  -5.818   6.550  0.00  0.00    -0.005 A 
ATOM     21  C   UNL     1      -0.264  -7.018   7.261  0.00  0.00    +0.017 A 
ATOM     22  C   UNL     1       0.608  -7.125   8.322  0.00  0.00    +0.000 A 
ATOM     23  C   UNL     1       1.398  -6.042   8.686  0.00  0.00    +0.124 A 
ATOM     24  C   UNL     1       1.313  -4.847   7.983  0.00  0.00    +0.000 A 
ATOM     25  C   UNL     1       0.448  -4.733   6.916  0.00  0.00    +0.017 A 
BRANCH  24  26
ATOM     26  C   UNL     1       2.172  -3.675   8.383  0.00  0.00    -0.009 C 
ATOM     27  C   UNL     1       1.887  -2.493   7.455  0.00  0.00    +0.015 C 
ATOM     28  C   UNL     1       1.854  -3.279   9.826  0.00  0.00    +0.015 C 
ATOM     29  C   UNL     1       3.648  -4.065   8.275  0.00  0.00    +0.015 C 
ENDBRANCH  24  26
BRANCH  22  30
ATOM     30  C   UNL     1       0.705  -8.418   9.090  0.00  0.00    -0.009 C 
ATOM     31  C   UNL     1      -0.263  -9.440   8.490  0.00  0.00    +0.015 C 
ATOM     32  C   UNL     1       2.134  -8.957   9.003  0.00  0.00    +0.015 C 
ATOM     33  C   UNL     1       0.341  -8.170  10.555  0.00  0.00    +0.015 C 
ENDBRANCH  22  30
BRANCH  23  34
ATOM     34  O   UNL     1       2.256  -6.151   9.734  0.00  0.00    -0.506 OA
ATOM     35  H   UNL     1       3.139  -6.461   9.489  0.00  0.00    +0.292 HD
ENDBRANCH  23  34
ENDBRANCH  19  20
ENDBRANCH  16  18
ENDBRANCH   2  14
BRANCH   1  36
ATOM     36  C   UNL     1       0.559  -0.294   2.045  0.00  0.00    -0.019 C 
BRANCH  36  43
ATOM     37  C   UNL     1       0.075   1.426  -0.121  0.00  0.00    -0.013 C 
ATOM     38  C   UNL     1      -0.339  -0.046  -0.163  0.00  0.00    -0.071 C 
ATOM     39  C   UNL     1      -0.270  -0.553  -1.605  0.00  0.00    -0.016 C 
ATOM     40  C   UNL     1      -0.685  -2.027  -1.643  0.00  0.00    -0.003 C 
ATOM     41  C   UNL     1       0.222  -2.826  -0.703  0.00  0.00    -0.019 C 
ATOM     42  C   UNL     1       0.134  -2.235   0.706  0.00  0.00    -0.078 C 
ATOM     43  N   UNL     1       0.569  -0.834   0.679  0.00  0.00    +0.385 N 
ATOM     44  H   UNL     1       1.505  -0.779   0.306  0.00  0.00    -0.081 HD
ENDBRANCH  36  43
ENDBRANCH   1  36
TORSDOF 8
