REMARK  Name = ZINC35523525
REMARK  9 active torsions:
REMARK  status: ('A' for Active; 'I' for Inactive)
REMARK    1  A    between atoms: C_1  and  C_2
REMARK    2  A    between atoms: C_2  and  C_4
REMARK    3  A    between atoms: C_2  and  N_12
REMARK    4  A    between atoms: C_4  and  C_5
REMARK    5  A    between atoms: C_5  and  C_6
REMARK    6  A    between atoms: C_13  and  C_15
REMARK    7  A    between atoms: C_18  and  C_20
REMARK    8  A    between atoms: C_20  and  N_21
REMARK    9  A    between atoms: C_29  and  C_31
REMARK                            x       y       z     vdW  Elec       q    Type
REMARK                         _______ _______ _______ _____ _____    ______ ____
ROOT
ATOM      1  C   UNL     1       2.763  -1.086   2.362  0.00  0.00    +0.189 A 
ATOM      2  C   UNL     1       4.114  -1.240   2.482  0.00  0.00    +0.055 A 
ATOM      3  C   UNL     1       4.351  -1.724   3.778  0.00  0.00    +0.043 A 
ATOM      4  C   UNL     1       3.149  -1.844   4.384  0.00  0.00    +0.090 A 
ATOM      5  O   UNL     1       2.195  -1.453   3.529  0.00  0.00    -0.457 OA
ENDROOT
BRANCH   1   7
ATOM      6  N   UNL     1       0.711  -0.489   1.189  0.00  0.00    -0.306 N 
ATOM      7  C   UNL     1       2.054  -0.600   1.174  0.00  0.00    +0.280 C 
ATOM      8  O   UNL     1       2.678  -0.296   0.174  0.00  0.00    -0.267 OA
ATOM      9  H   UNL     1       0.213  -0.731   1.986  0.00  0.00    +0.149 HD
BRANCH   6  11
ATOM     10  C   UNL     1      -0.019   1.526   0.010  0.00  0.00    +0.028 C 
ATOM     11  C   UNL     1       0.002  -0.004   0.002  0.00  0.00    +0.071 C 
BRANCH  11  12
ATOM     12  C   UNL     1      -1.433  -0.534   0.013  0.00  0.00    +0.026 C 
BRANCH  12  13
ATOM     13  C   UNL     1      -1.416  -2.058  -0.121  0.00  0.00    +0.037 C 
BRANCH  13  14
ATOM     14  C   UNL     1      -2.829  -2.579  -0.111  0.00  0.00    -0.047 A 
ATOM     15  C   UNL     1      -3.432  -2.917   1.087  0.00  0.00    +0.003 A 
ATOM     16  C   UNL     1      -4.729  -3.396   1.096  0.00  0.00    +0.000 A 
ATOM     17  C   UNL     1      -5.423  -3.536  -0.091  0.00  0.00    +0.000 A 
ATOM     18  C   UNL     1      -4.821  -3.197  -1.288  0.00  0.00    +0.000 A 
ATOM     19  C   UNL     1      -3.525  -2.714  -1.297  0.00  0.00    +0.003 A 
ENDBRANCH  13  14
ENDBRANCH  12  13
ENDBRANCH  11  12
ENDBRANCH   6  11
ENDBRANCH   1   7
BRANCH   4  20
ATOM     20  C   UNL     1       2.920  -2.332   5.791  0.00  0.00    -0.002 C 
BRANCH  20  21
ATOM     21  N   UNL     1       2.953  -1.191   6.716  0.00  0.00    +0.394 N 
ATOM     22  C   UNL     1       1.831  -0.290   6.419  0.00  0.00    -0.055 C 
ATOM     23  C   UNL     1       2.027   1.044   7.150  0.00  0.00    +0.103 C 
ATOM     24  N   UNL     1       2.302   0.751   8.563  0.00  0.00    -0.353 N 
ATOM     25  C   UNL     1       2.242   1.597   9.622  0.00  0.00    +0.086 A 
ATOM     26  C   UNL     1       2.568   0.901  10.734  0.00  0.00    +0.019 A 
ATOM     27  C   UNL     1       2.840  -0.426  10.339  0.00  0.00    +0.021 A 
ATOM     28  C   UNL     1       2.673  -0.490   9.010  0.00  0.00    +0.009 A 
ATOM     29  C   UNL     1       2.849  -1.682   8.101  0.00  0.00    +0.014 C 
ATOM     30  H   UNL     1       3.822  -0.692   6.602  0.00  0.00    -0.080 HD
BRANCH  29  31
ATOM     31  C   UNL     1       4.107  -2.424   8.474  0.00  0.00    -0.020 A 
ATOM     32  C   UNL     1       5.295  -2.136   7.828  0.00  0.00    +0.008 A 
ATOM     33  C   UNL     1       6.449  -2.816   8.169  0.00  0.00    +0.039 A 
ATOM     34  C   UNL     1       6.416  -3.786   9.157  0.00  0.00    +0.126 A 
ATOM     35  C   UNL     1       5.227  -4.074   9.804  0.00  0.00    +0.077 A 
ATOM     36  C   UNL     1       4.073  -3.389   9.466  0.00  0.00    +0.128 A 
ATOM     37  F   UNL     1       2.912  -3.665  10.100  0.00  0.00    -0.205 F 
ATOM     38  F   UNL     1       7.545  -4.450   9.489  0.00  0.00    -0.205 F 
ENDBRANCH  29  31
ENDBRANCH  20  21
ENDBRANCH   4  20
TORSDOF 8
