REMARK  Name = ZINC21082942
REMARK  13 active torsions:
REMARK  status: ('A' for Active; 'I' for Inactive)
REMARK    1  A    between atoms: C_1  and  C_2
REMARK    2  A    between atoms: C_2  and  C_3
REMARK    3  A    between atoms: C_3  and  C_5
REMARK    4  A    between atoms: C_3  and  N_6
REMARK    5  A    between atoms: N_6  and  S_7
REMARK    6  A    between atoms: S_7  and  C_10
REMARK    7  A    between atoms: C_13  and  N_16
REMARK    8  A    between atoms: C_17  and  C_19
REMARK    9  A    between atoms: C_19  and  S_20
REMARK   10  A    between atoms: S_20  and  C_21
REMARK   11  A    between atoms: N_26  and  N_27
REMARK   12  A    between atoms: C_28  and  C_29
REMARK   13  A    between atoms: C_28  and  C_30
REMARK                            x       y       z     vdW  Elec       q    Type
REMARK                         _______ _______ _______ _____ _____    ______ ____
ROOT
ATOM      1  N   UNL     1       1.162   3.485   0.009  0.00  0.00    -0.285 N 
ATOM      2  C   UNL     1       2.318   4.171   0.104  0.00  0.00    +0.227 C 
ATOM      3  O   UNL     1       3.377   3.580   0.091  0.00  0.00    -0.275 OA
ATOM      4  H   UNL     1       0.206   4.025  -0.067  0.00  0.00    +0.155 HD
ENDROOT
BRANCH   1   8
ATOM      5  C   UNL     1       1.206  -0.681   0.005  0.00  0.00    +0.105 A 
ATOM      6  C   UNL     1       2.145   0.019   0.741  0.00  0.00    +0.030 A 
ATOM      7  C   UNL     1       2.133   1.400   0.745  0.00  0.00    +0.025 A 
ATOM      8  C   UNL     1       1.177   2.086   0.008  0.00  0.00    +0.034 A 
ATOM      9  C   UNL     1       0.236   1.381  -0.731  0.00  0.00    +0.025 A 
ATOM     10  C   UNL     1       0.253  -0.000  -0.730  0.00  0.00    +0.030 A 
BRANCH   5  11
ATOM     11  S   UNL     1       1.225  -2.443   0.004  0.00  0.00    +0.059 S 
ATOM     12  O   UNL     1       0.585  -2.854  -1.196  0.00  0.00    -0.153 OA
ATOM     13  O   UNL     1       2.551  -2.835   0.332  0.00  0.00    -0.153 OA
BRANCH  11  14
ATOM     14  N   UNL     1       0.260  -2.944   1.252  0.00  0.00    -0.187 NA
ATOM     15  H   UNL     1       0.726  -3.337   2.167  0.00  0.00    +0.148 HD
BRANCH  14  16
ATOM     16  C   UNL     1      -1.178  -2.664   1.224  0.00  0.00    +0.073 C 
ATOM     17  C   UNL     1      -1.921  -3.870   0.648  0.00  0.00    +0.025 C 
BRANCH  16  19
ATOM     18  C   UNL     1      -1.020  -1.114   3.178  0.00  0.00    +0.005 C 
ATOM     19  C   UNL     1      -1.672  -2.392   2.647  0.00  0.00    +0.017 C 
ENDBRANCH  16  19
ENDBRANCH  14  16
ENDBRANCH  11  14
ENDBRANCH   5  11
ENDBRANCH   1   8
BRANCH   2  20
ATOM     20  C   UNL     1       2.295   5.673   0.225  0.00  0.00    +0.173 C 
BRANCH  20  21
ATOM     21  S   UNL     1       3.995   6.298   0.332  0.00  0.00    -0.075 S 
BRANCH  21  22
ATOM     22  C   UNL     1       3.800   8.043   0.468  0.00  0.00    +0.211 A 
ATOM     23  N   UNL     1       4.809   8.958   0.576  0.00  0.00    -0.186 NA
ATOM     24  C   UNL     1       4.246  10.201   0.658  0.00  0.00    +0.232 A 
ATOM     25  N   UNL     1       2.943  10.060   0.602  0.00  0.00    -0.245 N 
ATOM     26  N   UNL     1       2.661   8.694   0.477  0.00  0.00    -0.144 NA
ATOM     27  N   UNL     1       4.931  11.401   0.777  0.00  0.00    -0.205 N 
ATOM     28  H   UNL     1       6.031  11.404   0.814  0.00  0.00    +0.177 HD
ATOM     29  H   UNL     1       2.292  10.945   0.656  0.00  0.00    +0.192 HD
BRANCH  27  30
ATOM     30  N   UNL     1       4.224  12.608   0.852  0.00  0.00    -0.184 NA
ATOM     31  C   UNL     1       4.867  13.733   0.964  0.00  0.00    +0.070 C 
ATOM     32  C   UNL     1       6.374  13.738   1.014  0.00  0.00    +0.068 C 
BRANCH  31  33
ATOM     33  C   UNL     1       4.127  14.997   1.041  0.00  0.00    +0.035 A 
ATOM     34  C   UNL     1       2.760  15.210   1.013  0.00  0.00    +0.017 A 
ATOM     35  C   UNL     1       2.298  16.503   1.103  0.00  0.00    +0.008 A 
ATOM     36  C   UNL     1       3.190  17.521   1.215  0.00  0.00    +0.046 A 
ATOM     37  S   UNL     1       4.753  16.661   1.205  0.00  0.00    -0.095 S 
ENDBRANCH  31  33
ENDBRANCH  27  30
ENDBRANCH  21  22
ENDBRANCH  20  21
ENDBRANCH   2  20
TORSDOF 10
