REMARK  Name = ZINC21456312
REMARK  10 active torsions:
REMARK  status: ('A' for Active; 'I' for Inactive)
REMARK    1  A    between atoms: C_1  and  C_2
REMARK    2  A    between atoms: C_5  and  N_8
REMARK    3  A    between atoms: C_9  and  C_29
REMARK    4  A    between atoms: C_12  and  S_13
REMARK    5  A    between atoms: S_13  and  C_14
REMARK    6  A    between atoms: C_14  and  C_16
REMARK    7  A    between atoms: C_14  and  C_17
REMARK    8  A    between atoms: N_22  and  C_23
REMARK    9  A    between atoms: C_34  and  O_35
REMARK   10  A    between atoms: O_35  and  C_36
REMARK                            x       y       z     vdW  Elec       q    Type
REMARK                         _______ _______ _______ _____ _____    ______ ____
ROOT
ATOM      1  N   UNL     1       9.908   0.157   1.407  0.00  0.00    -0.270 N 
ATOM      2  C   UNL     1      10.782   1.172   1.089  0.00  0.00    +0.173 A 
ATOM      3  N   UNL     1      10.071   2.269   0.969  0.00  0.00    -0.128 NA
ATOM      4  N   UNL     1       8.829   2.014   1.182  0.00  0.00    -0.122 NA
ATOM      5  C   UNL     1       8.670   0.740   1.460  0.00  0.00    +0.197 A 
ENDROOT
BRANCH   1  10
ATOM      6  C   UNL     1      11.171  -5.302   2.312  0.00  0.00    +0.044 C 
ATOM      7  C   UNL     1      10.835  -3.853   2.072  0.00  0.00    -0.050 A 
ATOM      8  C   UNL     1      10.081  -3.492   0.970  0.00  0.00    +0.005 A 
ATOM      9  C   UNL     1       9.772  -2.165   0.748  0.00  0.00    +0.026 A 
ATOM     10  C   UNL     1      10.219  -1.192   1.631  0.00  0.00    +0.051 A 
ATOM     11  C   UNL     1      10.981  -1.556   2.733  0.00  0.00    +0.026 A 
ATOM     12  C   UNL     1      11.282  -2.886   2.954  0.00  0.00    +0.005 A 
ENDBRANCH   1  10
BRANCH   2  13
ATOM     13  C   UNL     1      12.245   1.051   0.916  0.00  0.00    +0.061 A 
ATOM     14  C   UNL     1      12.775   0.020   0.139  0.00  0.00    +0.015 A 
ATOM     15  C   UNL     1      14.142  -0.088  -0.019  0.00  0.00    +0.001 A 
ATOM     16  C   UNL     1      14.989   0.822   0.590  0.00  0.00    +0.004 A 
ATOM     17  C   UNL     1      14.474   1.847   1.361  0.00  0.00    +0.046 A 
ATOM     18  C   UNL     1      13.105   1.972   1.526  0.00  0.00    +0.131 A 
BRANCH  18  19
ATOM     19  O   UNL     1      12.598   2.983   2.279  0.00  0.00    -0.494 OA
ATOM     20  C   UNL     1      13.536   3.885   2.870  0.00  0.00    +0.277 C 
ENDBRANCH  18  19
ENDBRANCH   2  13
BRANCH   5  21
ATOM     21  S   UNL     1       7.148  -0.069   1.824  0.00  0.00    -0.073 S 
BRANCH  21  22
ATOM     22  C   UNL     1       6.010   1.334   1.702  0.00  0.00    +0.137 C 
ATOM     23  C   UNL     1       6.328   2.346   2.804  0.00  0.00    +0.029 C 
BRANCH  22  24
ATOM     24  C   UNL     1       4.593   0.846   1.862  0.00  0.00    +0.233 C 
ATOM     25  O   UNL     1       4.370  -0.179   2.468  0.00  0.00    -0.274 OA
ATOM     26  N   UNL     1       3.574   1.550   1.330  0.00  0.00    -0.239 N 
ATOM     27  C   UNL     1       2.307   1.115   1.473  0.00  0.00    +0.306 C 
ATOM     28  O   UNL     1       2.083   0.086   2.081  0.00  0.00    -0.252 OA
ATOM     29  N   UNL     1       1.288   1.819   0.941  0.00  0.00    -0.296 N 
ATOM     30  H   UNL     1       3.777   2.481   0.779  0.00  0.00    +0.159 HD
ATOM     31  H   UNL     1       1.491   2.749   0.391  0.00  0.00    +0.151 HD
BRANCH  29  32
ATOM     32  C   UNL     1      -0.089   1.345   1.097  0.00  0.00    +0.074 C 
ATOM     33  C   UNL     1      -0.647   1.829   2.436  0.00  0.00    +0.022 C 
ATOM     34  C   UNL     1      -2.086   1.334   2.599  0.00  0.00    +0.002 C 
ATOM     35  C   UNL     1      -2.946   1.885   1.459  0.00  0.00    +0.000 C 
ATOM     36  C   UNL     1      -2.388   1.401   0.119  0.00  0.00    +0.002 C 
ATOM     37  C   UNL     1      -0.950   1.895  -0.043  0.00  0.00    +0.022 C 
ENDBRANCH  29  32
ENDBRANCH  22  24
ENDBRANCH  21  22
ENDBRANCH   5  21
TORSDOF 7
