REMARK  Name = ZINC43553757
REMARK  12 active torsions:
REMARK  status: ('A' for Active; 'I' for Inactive)
REMARK    1  A    between atoms: C_1  and  C_2
REMARK    2  A    between atoms: C_2  and  N_3
REMARK    3  A    between atoms: C_4  and  O_6
REMARK    4  A    between atoms: O_6  and  C_7
REMARK    5  A    between atoms: C_11  and  C_35
REMARK    6  A    between atoms: C_14  and  C_15
REMARK    7  A    between atoms: C_14  and  C_16
REMARK    8  A    between atoms: C_16  and  O_17
REMARK    9  A    between atoms: C_20  and  O_34
REMARK   10  A    between atoms: C_22  and  C_24
REMARK   11  A    between atoms: C_24  and  C_25
REMARK   12  A    between atoms: C_30  and  C_33
REMARK                            x       y       z     vdW  Elec       q    Type
REMARK                         _______ _______ _______ _____ _____    ______ ____
ROOT
ATOM      1  C   UNL     1       2.341  -3.738  -1.938  0.00  0.00    +0.186 C 
ATOM      2  C   UNL     1       3.747  -4.242  -1.637  0.00  0.00    +0.046 C 
ATOM      3  C   UNL     1       4.746  -3.579  -2.588  0.00  0.00    +0.011 C 
ATOM      4  C   UNL     1       4.418  -3.977  -4.028  0.00  0.00    -0.023 C 
ATOM      5  C   UNL     1       2.997  -3.568  -4.376  0.00  0.00    +0.007 C 
ATOM      6  C   UNL     1       1.933  -4.000  -3.387  0.00  0.00    +0.031 C 
ATOM      7  C   UNL     1       1.529  -5.464  -3.557  0.00  0.00    +0.017 C 
ATOM      8  C   UNL     1       2.663  -4.000  -5.804  0.00  0.00    +0.007 C 
ATOM      9  C   UNL     1       3.612  -3.273  -6.764  0.00  0.00    +0.032 C 
ATOM     10  C   UNL     1       5.061  -3.626  -6.441  0.00  0.00    +0.119 C 
ATOM     11  C   UNL     1       5.406  -3.305  -4.989  0.00  0.00    +0.032 C 
ATOM     12  C   UNL     1       4.624  -5.493  -4.164  0.00  0.00    +0.012 C 
ENDROOT
BRANCH  10  13
ATOM     13  O   UNL     1       5.926  -2.870  -7.301  0.00  0.00    -0.391 OA
ATOM     14  H   UNL     1       5.790  -3.039  -8.243  0.00  0.00    +0.210 HD
ENDBRANCH  10  13
BRANCH   1  15
ATOM     15  O   UNL     1       2.269  -2.333  -1.674  0.00  0.00    -0.446 OA
BRANCH  15  17
ATOM     16  N   UNL     1       1.856  -0.655  -0.106  0.00  0.00    -0.281 N 
ATOM     17  C   UNL     1       1.941  -1.962  -0.421  0.00  0.00    +0.401 C 
ATOM     18  O   UNL     1       1.723  -2.807   0.424  0.00  0.00    -0.226 OA
ATOM     19  H   UNL     1       2.031   0.019  -0.781  0.00  0.00    +0.152 HD
BRANCH  16  21
ATOM     20  C   UNL     1       1.473   1.275   1.347  0.00  0.00    +0.024 C 
ATOM     21  C   UNL     1       1.500  -0.252   1.257  0.00  0.00    +0.104 C 
ENDBRANCH  16  21
ENDBRANCH  15  17
ENDBRANCH   1  15
BRANCH   6  22
ATOM     22  C   UNL     1       0.667  -3.146  -3.647  0.00  0.00    +0.166 C 
BRANCH  22  23
ATOM     23  O   UNL     1      -0.368  -3.542  -2.744  0.00  0.00    -0.394 OA
ATOM     24  H   UNL     1      -1.193  -3.048  -2.851  0.00  0.00    +0.209 HD
ENDBRANCH  22  23
ENDBRANCH   6  22
BRANCH  11  25
ATOM     25  C   UNL     1       5.453  -1.794  -4.786  0.00  0.00    +0.102 C 
BRANCH  25  26
ATOM     26  C   UNL     1       6.666  -1.231  -5.480  0.00  0.00    +0.216 C 
ATOM     27  O   UNL     1       7.499  -1.978  -5.947  0.00  0.00    -0.276 OA
ATOM     28  N   UNL     1       6.826   0.104  -5.582  0.00  0.00    -0.301 N 
ATOM     29  C   UNL     1       5.829   1.022  -5.016  0.00  0.00    +0.108 C 
ATOM     30  C   UNL     1       5.377   1.995  -6.109  0.00  0.00    +0.022 C 
ATOM     31  C   UNL     1       6.603   2.689  -6.707  0.00  0.00    -0.011 C 
ATOM     32  C   UNL     1       7.525   1.644  -7.340  0.00  0.00    +0.022 C 
ATOM     33  C   UNL     1       8.003   0.668  -6.256  0.00  0.00    +0.108 C 
ATOM     34  C   UNL     1       6.153   3.687  -7.777  0.00  0.00    +0.007 C 
ENDBRANCH  25  26
ENDBRANCH  11  25
TORSDOF 8
