REMARK  Name = ZINC14467319
REMARK  6 active torsions:
REMARK  status: ('A' for Active; 'I' for Inactive)
REMARK    1  A    between atoms: C_1  and  N_2
REMARK    2  A    between atoms: N_2  and  C_3
REMARK    3  A    between atoms: N_2  and  S_4
REMARK    4  A    between atoms: S_4  and  C_7
REMARK    5  A    between atoms: C_20  and  C_23
REMARK    6  A    between atoms: C_28  and  O_29
REMARK                            x       y       z     vdW  Elec       q    Type
REMARK                         _______ _______ _______ _____ _____    ______ ____
ROOT
ATOM      1  C   UNL     1       4.829   0.602   1.945  0.00  0.00    +0.106 A 
ATOM      2  C   UNL     1       5.098   0.580   0.588  0.00  0.00    +0.030 A 
ATOM      3  C   UNL     1       4.663   1.618  -0.211  0.00  0.00    +0.025 A 
ATOM      4  C   UNL     1       3.962   2.680   0.346  0.00  0.00    +0.031 A 
ATOM      5  C   UNL     1       3.692   2.707   1.706  0.00  0.00    -0.018 A 
ATOM      6  C   UNL     1       4.132   1.656   2.499  0.00  0.00    +0.034 A 
ATOM      7  C   UNL     1       2.942   3.829   2.351  0.00  0.00    +0.049 C 
ATOM      8  C   UNL     1       1.527   3.425   2.690  0.00  0.00    -0.023 C 
ATOM      9  C   UNL     1       0.710   4.441   2.509  0.00  0.00    -0.030 C 
ATOM     10  C   UNL     1       1.474   5.660   2.029  0.00  0.00    +0.033 C 
ATOM     11  C   UNL     1       2.776   5.054   1.427  0.00  0.00    +0.029 C 
ATOM     12  C   UNL     1       2.447   4.590   0.005  0.00  0.00    +0.109 C 
ATOM     13  N   UNL     1       3.529   3.724  -0.477  0.00  0.00    -0.336 N 
ATOM     14  H   UNL     1       3.934   3.873  -1.346  0.00  0.00    +0.147 HD
ENDROOT
BRANCH  12  15
ATOM     15  C   UNL     1       1.151   3.821   0.012  0.00  0.00    +0.017 A 
ATOM     16  C   UNL     1       1.159   2.455   0.222  0.00  0.00    +0.029 A 
ATOM     17  C   UNL     1      -0.030   1.748   0.230  0.00  0.00    +0.043 A 
ATOM     18  C   UNL     1      -1.229   2.406   0.021  0.00  0.00    +0.043 A 
ATOM     19  C   UNL     1      -1.242   3.772  -0.184  0.00  0.00    +0.084 A 
ATOM     20  C   UNL     1      -0.049   4.483  -0.192  0.00  0.00    +0.140 A 
ATOM     21 CL   UNL     1      -2.748   4.599  -0.438  0.00  0.00    -0.080 Cl
ATOM     22 CL   UNL     1      -0.017   0.032   0.495  0.00  0.00    -0.083 Cl
BRANCH  20  23
ATOM     23  O   UNL     1      -0.059   5.827  -0.398  0.00  0.00    -0.505 OA
ATOM     24  H   UNL     1       0.013   6.082  -1.328  0.00  0.00    +0.292 HD
ENDBRANCH  20  23
ENDBRANCH  12  15
BRANCH   1  25
ATOM     25  S   UNL     1       5.379  -0.722   2.969  0.00  0.00    +0.060 S 
ATOM     26  O   UNL     1       6.482  -1.320   2.303  0.00  0.00    -0.153 OA
ATOM     27  O   UNL     1       5.477  -0.201   4.288  0.00  0.00    -0.153 OA
BRANCH  25  29
ATOM     28  C   UNL     1       4.149  -2.925   1.997  0.00  0.00    +0.131 C 
ATOM     29  N   UNL     1       4.171  -1.854   2.997  0.00  0.00    -0.183 NA
ATOM     30  C   UNL     1       3.125  -1.785   4.020  0.00  0.00    +0.131 C 
ENDBRANCH  25  29
ENDBRANCH   1  25
TORSDOF 4
