REMARK  Name = ZINC15294887
REMARK  12 active torsions:
REMARK  status: ('A' for Active; 'I' for Inactive)
REMARK    1  A    between atoms: C_1  and  C_2
REMARK    2  A    between atoms: C_2  and  C_3
REMARK    3  A    between atoms: C_8  and  N_9
REMARK    4  A    between atoms: C_10  and  C_12
REMARK    5  A    between atoms: C_12  and  N_57
REMARK    6  A    between atoms: C_13  and  N_57
REMARK    7  A    between atoms: C_14  and  C_16
REMARK    8  A    between atoms: C_14  and  C_17
REMARK    9  A    between atoms: C_14  and  N_57
REMARK   10  A    between atoms: N_19  and  C_20
REMARK   11  A    between atoms: C_20  and  C_21
REMARK   12  A    between atoms: N_23  and  C_24
REMARK                            x       y       z     vdW  Elec       q    Type
REMARK                         _______ _______ _______ _____ _____    ______ ____
ROOT
ATOM      1  C   UNL     1      -4.759   0.110   0.540  0.00  0.00    +0.016 C 
ATOM      2  C   UNL     1      -4.895  -0.834  -0.657  0.00  0.00    -0.004 C 
ENDROOT
BRANCH   1   3
ATOM      3  C   UNL     1      -4.519  -0.695   1.790  0.00  0.00    +0.200 C 
ATOM      4  O   UNL     1      -5.345  -0.699   2.678  0.00  0.00    -0.278 OA
ATOM      5  N   UNL     1      -3.385  -1.412   1.923  0.00  0.00    -0.308 N 
ATOM      6  H   UNL     1      -2.724  -1.409   1.213  0.00  0.00    +0.149 HD
BRANCH   5   7
ATOM      7  C   UNL     1      -3.151  -2.195   3.138  0.00  0.00    +0.200 C 
BRANCH   7   8
ATOM      8  C   UNL     1      -1.822  -2.897   3.035  0.00  0.00    +0.234 C 
ATOM      9  O   UNL     1      -1.137  -2.757   2.044  0.00  0.00    -0.274 OA
ATOM     10  N   UNL     1      -1.391  -3.676   4.047  0.00  0.00    -0.282 N 
ATOM     11  H   UNL     1      -1.908  -3.738   4.866  0.00  0.00    +0.155 HD
BRANCH  10  12
ATOM     12  C   UNL     1      -0.197  -4.398   3.917  0.00  0.00    +0.072 A 
ATOM     13  C   UNL     1       0.865  -3.861   3.200  0.00  0.00    +0.029 A 
ATOM     14  C   UNL     1       2.043  -4.571   3.076  0.00  0.00    +0.043 A 
ATOM     15  C   UNL     1       2.166  -5.822   3.657  0.00  0.00    +0.161 A 
ATOM     16  C   UNL     1       1.107  -6.364   4.369  0.00  0.00    +0.195 A 
ATOM     17  C   UNL     1      -0.074  -5.653   4.500  0.00  0.00    +0.182 A 
ATOM     18  F   UNL     1      -1.107  -6.180   5.195  0.00  0.00    -0.200 F 
ATOM     19  F   UNL     1       1.228  -7.584   4.935  0.00  0.00    -0.199 F 
ATOM     20  F   UNL     1       3.318  -6.515   3.530  0.00  0.00    -0.202 F 
ENDBRANCH  10  12
ENDBRANCH   7   8
ENDBRANCH   5   7
ENDBRANCH   1   3
BRANCH   1  22
ATOM     21  C   UNL     1      -6.120   1.890  -0.380  0.00  0.00    -0.094 C 
ATOM     22  N   UNL     1      -5.993   0.905   0.715  0.00  0.00    +0.391 N 
ATOM     23  H   UNL     1      -5.943   1.405   1.610  0.00  0.00    -0.080 HD
BRANCH  22  24
ATOM     24  C   UNL     1      -7.171   0.012   0.729  0.00  0.00    +0.020 C 
BRANCH  24  26
ATOM     25  N   UNL     1      -9.585   0.212   1.229  0.00  0.00    -0.287 N 
ATOM     26  C   UNL     1      -8.384   0.813   1.127  0.00  0.00    +0.201 C 
ATOM     27  O   UNL     1      -8.278   2.000   1.356  0.00  0.00    -0.278 OA
ATOM     28  H   UNL     1      -9.661  -0.746   1.098  0.00  0.00    +0.155 HD
BRANCH  25  34
ATOM     29  C   UNL     1     -11.978   0.523   1.131  0.00  0.00    -0.026 A 
ATOM     30  C   UNL     1     -13.101   1.272   1.424  0.00  0.00    +0.005 A 
ATOM     31  C   UNL     1     -12.976   2.466   2.110  0.00  0.00    +0.000 A 
ATOM     32  C   UNL     1     -11.728   2.913   2.505  0.00  0.00    +0.002 A 
ATOM     33  C   UNL     1     -10.603   2.166   2.219  0.00  0.00    +0.023 A 
ATOM     34  C   UNL     1     -10.724   0.969   1.525  0.00  0.00    +0.036 A 
BRANCH  29  36
ATOM     35  C   UNL     1     -12.180  -1.936   1.382  0.00  0.00    +0.009 C 
ATOM     36  C   UNL     1     -12.115  -0.779   0.383  0.00  0.00    +0.033 C 
ENDBRANCH  29  36
ENDBRANCH  25  34
ENDBRANCH  24  26
ENDBRANCH  22  24
ENDBRANCH   1  22
TORSDOF 9
