REMARK  Name = ZINC18195568
REMARK  9 active torsions:
REMARK  status: ('A' for Active; 'I' for Inactive)
REMARK    1  A    between atoms: C_1  and  C_2
REMARK    2  A    between atoms: C_2  and  C_35
REMARK    3  A    between atoms: C_6  and  C_16
REMARK    4  A    between atoms: C_13  and  O_14
REMARK    5  A    between atoms: C_19  and  O_30
REMARK    6  A    between atoms: C_20  and  O_22
REMARK    7  A    between atoms: O_22  and  C_23
REMARK    8  A    between atoms: C_23  and  C_24
REMARK    9  A    between atoms: O_30  and  C_31
REMARK                            x       y       z     vdW  Elec       q    Type
REMARK                         _______ _______ _______ _____ _____    ______ ____
ROOT
ATOM      1  C   UNL     1       3.272  11.940  -1.526  0.00  0.00    +0.011 C 
ATOM      2  C   UNL     1       3.480  12.506  -0.120  0.00  0.00    -0.023 C 
ATOM      3  C   UNL     1       2.273  13.358   0.276  0.00  0.00    +0.058 C 
ATOM      4  C   UNL     1       1.027  12.502   0.291  0.00  0.00    +0.017 C 
ATOM      5  C   UNL     1       1.092  11.190   0.600  0.00  0.00    +0.024 C 
ATOM      6  C   UNL     1      -0.133  10.302   0.640  0.00  0.00    +0.092 C 
ATOM      7  C   UNL     1      -1.373  11.150   0.622  0.00  0.00    +0.067 A 
ATOM      8  C   UNL     1      -1.346  12.482   0.304  0.00  0.00    +0.126 A 
ATOM      9  N   UNL     1      -2.608  12.947   0.375  0.00  0.00    -0.260 N 
ATOM     10  H   UNL     1      -2.902  13.885   0.193  0.00  0.00    +0.190 HD
ATOM     11  N   UNL     1      -3.438  11.877   0.749  0.00  0.00    -0.134 NA
ATOM     12  C   UNL     1      -2.692  10.803   0.896  0.00  0.00    +0.237 A 
ATOM     13  N   UNL     1      -0.157  13.126  -0.014  0.00  0.00    -0.303 N 
ATOM     14  C   UNL     1       2.324  10.580   0.903  0.00  0.00    +0.162 C 
ATOM     15  O   UNL     1       2.348   9.398   1.185  0.00  0.00    -0.292 OA
ATOM     16  C   UNL     1       3.610  11.357   0.886  0.00  0.00    +0.086 C 
ATOM     17  C   UNL     1       4.748  13.363  -0.091  0.00  0.00    +0.011 C 
ATOM     18  H   UNL     1      -0.163  13.996  -0.443  0.00  0.00    +0.153 HD
ENDROOT
BRANCH   6  19
ATOM     19  C   UNL     1      -0.131   9.390  -0.559  0.00  0.00    -0.032 A 
ATOM     20  C   UNL     1      -0.150   9.927  -1.833  0.00  0.00    +0.008 A 
ATOM     21  C   UNL     1      -0.149   9.094  -2.937  0.00  0.00    +0.050 A 
ATOM     22  C   UNL     1      -0.123   7.719  -2.768  0.00  0.00    +0.162 A 
ATOM     23  C   UNL     1      -0.110   7.179  -1.486  0.00  0.00    +0.163 A 
ATOM     24  C   UNL     1      -0.111   8.019  -0.384  0.00  0.00    +0.054 A 
BRANCH  22  25
ATOM     25  O   UNL     1      -0.116   6.899  -3.853  0.00  0.00    -0.491 OA
ATOM     26  C   UNL     1      -0.131   7.524  -5.138  0.00  0.00    +0.277 C 
ENDBRANCH  22  25
BRANCH  23  27
ATOM     27  O   UNL     1      -0.090   5.830  -1.315  0.00  0.00    -0.484 OA
BRANCH  27  28
ATOM     28  C   UNL     1      -0.070   5.347   0.030  0.00  0.00    +0.264 C 
BRANCH  28  29
ATOM     29  C   UNL     1      -0.050   3.840   0.022  0.00  0.00    -0.010 A 
ATOM     30  C   UNL     1       1.156   3.165   0.008  0.00  0.00    +0.007 A 
ATOM     31  C   UNL     1       1.175   1.783   0.000  0.00  0.00    +0.000 A 
ATOM     32  C   UNL     1      -0.013   1.076   0.008  0.00  0.00    +0.000 A 
ATOM     33  C   UNL     1      -1.219   1.751   0.017  0.00  0.00    +0.000 A 
ATOM     34  C   UNL     1      -1.238   3.133   0.030  0.00  0.00    +0.007 A 
ENDBRANCH  28  29
ENDBRANCH  27  28
ENDBRANCH  23  27
ENDBRANCH   6  19
BRANCH  12  35
ATOM     35  O   UNL     1      -3.135   9.568   1.254  0.00  0.00    -0.491 OA
ATOM     36  H   UNL     1      -4.125   9.596   1.391  0.00  0.00    +0.294 HD
ENDBRANCH  12  35
TORSDOF 6
