REMARK  Name = ZINC63245191
REMARK  13 active torsions:
REMARK  status: ('A' for Active; 'I' for Inactive)
REMARK    1  A    between atoms: C_1  and  O_2
REMARK    2  A    between atoms: O_2  and  C_3
REMARK    3  A    between atoms: C_6  and  C_11
REMARK    4  A    between atoms: C_7  and  O_9
REMARK    5  A    between atoms: O_9  and  C_10
REMARK    6  A    between atoms: C_11  and  C_13
REMARK    7  A    between atoms: C_13  and  O_14
REMARK    8  A    between atoms: O_14  and  C_15
REMARK    9  A    between atoms: C_15  and  C_17
REMARK   10  A    between atoms: C_17  and  C_19
REMARK   11  A    between atoms: C_17  and  N_29
REMARK   12  A    between atoms: C_19  and  C_20
REMARK   13  A    between atoms: C_30  and  C_32
REMARK                            x       y       z     vdW  Elec       q    Type
REMARK                         _______ _______ _______ _____ _____    ______ ____
ROOT
ATOM      1  C   UNL     1       5.041  -2.784   8.471  0.00  0.00    +0.186 C 
ENDROOT
BRANCH   1   2
ATOM      2  N   UNL     1       5.623  -1.911   9.494  0.00  0.00    -0.298 N 
ATOM      3  C   UNL     1       6.649  -2.349  10.249  0.00  0.00    +0.245 C 
ATOM      4  O   UNL     1       7.092  -3.469  10.082  0.00  0.00    -0.270 OA
ATOM      5  H   UNL     1       5.269  -1.018   9.627  0.00  0.00    +0.150 HD
BRANCH   3   6
ATOM      6  C   UNL     1       7.236  -1.469  11.280  0.00  0.00    +0.037 A 
ATOM      7  C   UNL     1       6.726  -0.184  11.478  0.00  0.00    +0.016 A 
ATOM      8  C   UNL     1       7.277   0.633  12.441  0.00  0.00    +0.039 A 
ATOM      9  C   UNL     1       8.337   0.182  13.213  0.00  0.00    +0.123 A 
ATOM     10  C   UNL     1       8.847  -1.093  13.021  0.00  0.00    +0.039 A 
ATOM     11  C   UNL     1       8.300  -1.921  12.065  0.00  0.00    +0.016 A 
ATOM     12  F   UNL     1       8.874   0.987  14.155  0.00  0.00    -0.205 F 
ENDBRANCH   3   6
ENDBRANCH   1   2
BRANCH   1  13
ATOM     13  C   UNL     1       4.393  -1.943   7.402  0.00  0.00    +0.328 C 
ATOM     14  O   UNL     1       4.416  -0.738   7.485  0.00  0.00    -0.249 OA
BRANCH  13  15
ATOM     15  O   UNL     1       3.792  -2.533   6.357  0.00  0.00    -0.455 OA
BRANCH  15  16
ATOM     16  C   UNL     1       3.199  -1.674   5.380  0.00  0.00    +0.311 C 
BRANCH  16  17
ATOM     17  C   UNL     1       2.576  -2.507   4.290  0.00  0.00    +0.204 C 
ATOM     18  O   UNL     1       2.635  -3.718   4.344  0.00  0.00    -0.288 OA
BRANCH  17  22
ATOM     19  C   UNL     1       0.625  -0.617   1.040  0.00  0.00    +0.124 A 
ATOM     20  C   UNL     1       1.202   0.147   2.051  0.00  0.00    +0.046 A 
ATOM     21  C   UNL     1       1.831  -0.458   3.100  0.00  0.00    +0.019 A 
ATOM     22  C   UNL     1       1.900  -1.856   3.165  0.00  0.00    +0.063 A 
ATOM     23  C   UNL     1       1.319  -2.631   2.146  0.00  0.00    +0.134 A 
ATOM     24  C   UNL     1       0.678  -2.003   1.091  0.00  0.00    +0.092 A 
BRANCH  19  26
ATOM     25  C   UNL     1      -0.017   1.425   0.010  0.00  0.00    +0.277 C 
ATOM     26  O   UNL     1       0.002  -0.004   0.002  0.00  0.00    -0.495 OA
ENDBRANCH  19  26
BRANCH  23  27
ATOM     27  O   UNL     1       1.380  -3.984   2.198  0.00  0.00    -0.494 OA
ATOM     28  C   UNL     1       0.766  -4.703   1.127  0.00  0.00    +0.277 C 
ENDBRANCH  23  27
ENDBRANCH  17  22
ENDBRANCH  16  17
ENDBRANCH  15  16
ENDBRANCH  13  15
ENDBRANCH   1  13
BRANCH   1  29
ATOM     29  C   UNL     1       3.989  -3.691   9.114  0.00  0.00    +0.067 C 
BRANCH  29  30
ATOM     30  C   UNL     1       4.657  -4.618  10.096  0.00  0.00    -0.039 C 
ATOM     31  C   UNL     1       4.783  -4.435  11.430  0.00  0.00    -0.001 A 
ATOM     32  C   UNL     1       4.353  -3.359  12.331  0.00  0.00    +0.010 A 
ATOM     33  C   UNL     1       4.631  -3.459  13.651  0.00  0.00    +0.001 A 
ATOM     34  C   UNL     1       5.317  -4.561  14.179  0.00  0.00    +0.002 A 
ATOM     35  C   UNL     1       5.744  -5.588  13.414  0.00  0.00    +0.026 A 
ATOM     36  C   UNL     1       5.506  -5.588  12.012  0.00  0.00    +0.043 A 
ATOM     37  N   UNL     1       5.815  -6.451  11.075  0.00  0.00    -0.380 N 
ATOM     38  C   UNL     1       5.317  -5.944   9.791  0.00  0.00    +0.144 C 
ATOM     39  H   UNL     1       6.290  -7.286  11.208  0.00  0.00    +0.160 HD
ENDBRANCH  29  30
ENDBRANCH   1  29
TORSDOF 11
