REMARK  Name = ZINC60361383
REMARK  6 active torsions:
REMARK  status: ('A' for Active; 'I' for Inactive)
REMARK    1  A    between atoms: C_1  and  C_2
REMARK    2  A    between atoms: C_2  and  C_4
REMARK    3  A    between atoms: C_2  and  N_17
REMARK    4  A    between atoms: N_6  and  C_7
REMARK    5  A    between atoms: C_10  and  S_13
REMARK    6  A    between atoms: S_13  and  N_16
REMARK                            x       y       z     vdW  Elec       q    Type
REMARK                         _______ _______ _______ _____ _____    ______ ____
ROOT
ATOM      1  C   UNL     1      -0.374   1.508  -0.032  0.00  0.00    -0.004 C 
ATOM      2  C   UNL     1      -0.003   0.024  -0.001  0.00  0.00    +0.017 C 
ENDROOT
BRANCH   2   3
ATOM      3  N   UNL     1      -1.227  -0.788  -0.030  0.00  0.00    +0.392 N 
ATOM      4  C   UNL     1      -0.863  -2.205  -0.026  0.00  0.00    -0.041 C 
ATOM      5  C   UNL     1      -0.361  -2.651  -1.370  0.00  0.00    -0.056 A 
ATOM      6  C   UNL     1       0.987  -2.815  -1.611  0.00  0.00    +0.002 A 
ATOM      7  C   UNL     1       1.419  -3.245  -2.853  0.00  0.00    +0.000 A 
ATOM      8  C   UNL     1       0.509  -3.516  -3.858  0.00  0.00    +0.001 A 
ATOM      9  C   UNL     1      -0.844  -3.349  -3.631  0.00  0.00    +0.009 A 
ATOM     10  C   UNL     1      -1.280  -2.908  -2.389  0.00  0.00    -0.016 A 
ATOM     11  C   UNL     1      -2.716  -2.666  -2.108  0.00  0.00    -0.016 A 
ATOM     12  C   UNL     1      -3.690  -3.602  -2.429  0.00  0.00    +0.009 A 
ATOM     13  C   UNL     1      -5.013  -3.338  -2.129  0.00  0.00    +0.001 A 
ATOM     14  C   UNL     1      -5.361  -2.150  -1.512  0.00  0.00    +0.000 A 
ATOM     15  C   UNL     1      -4.393  -1.212  -1.198  0.00  0.00    +0.002 A 
ATOM     16  C   UNL     1      -3.071  -1.460  -1.502  0.00  0.00    -0.056 A 
ATOM     17  C   UNL     1      -2.005  -0.440  -1.220  0.00  0.00    -0.041 C 
ATOM     18  H   UNL     1      -1.776  -0.587   0.793  0.00  0.00    -0.080 HD
ENDBRANCH   2   3
BRANCH   2  19
ATOM     19  C   UNL     1       0.769  -0.275   1.258  0.00  0.00    +0.203 C 
ATOM     20  O   UNL     1       0.214  -0.802   2.199  0.00  0.00    -0.277 OA
ATOM     21  N   UNL     1       2.076   0.043   1.339  0.00  0.00    -0.287 N 
ATOM     22  H   UNL     1       2.506   0.517   0.610  0.00  0.00    +0.155 HD
BRANCH  21  23
ATOM     23  C   UNL     1       2.813  -0.311   2.474  0.00  0.00    +0.033 A 
ATOM     24  C   UNL     1       4.150  -0.668   2.353  0.00  0.00    +0.025 A 
ATOM     25  C   UNL     1       4.875  -1.017   3.475  0.00  0.00    +0.030 A 
ATOM     26  C   UNL     1       4.271  -1.012   4.719  0.00  0.00    +0.105 A 
ATOM     27  C   UNL     1       2.940  -0.658   4.844  0.00  0.00    +0.030 A 
ATOM     28  C   UNL     1       2.211  -0.302   3.726  0.00  0.00    +0.025 A 
BRANCH  26  29
ATOM     29  S   UNL     1       5.200  -1.458   6.149  0.00  0.00    +0.056 S 
ATOM     30  O   UNL     1       4.262  -1.901   7.120  0.00  0.00    -0.153 OA
ATOM     31  O   UNL     1       6.272  -2.274   5.698  0.00  0.00    -0.153 OA
BRANCH  29  32
ATOM     32  N   UNL     1       5.878  -0.070   6.745  0.00  0.00    -0.204 NA
ATOM     33  H   UNL     1       6.047   0.018   7.696  0.00  0.00    +0.144 HD
ATOM     34  H   UNL     1       6.107   0.655   6.142  0.00  0.00    +0.144 HD
ENDBRANCH  29  32
ENDBRANCH  26  29
ENDBRANCH  21  23
ENDBRANCH   2  19
TORSDOF 5
