REMARK  Name = ZINC32878920
REMARK  11 active torsions:
REMARK  status: ('A' for Active; 'I' for Inactive)
REMARK    1  A    between atoms: C_1  and  C_2
REMARK    2  A    between atoms: C_2  and  O_3
REMARK    3  A    between atoms: O_3  and  C_4
REMARK    4  A    between atoms: C_7  and  C_12
REMARK    5  A    between atoms: C_9  and  O_10
REMARK    6  A    between atoms: O_10  and  C_11
REMARK    7  A    between atoms: C_12  and  N_13
REMARK    8  A    between atoms: N_13  and  C_14
REMARK    9  A    between atoms: N_13  and  C_15
REMARK   10  A    between atoms: C_15  and  C_16
REMARK   11  A    between atoms: C_29  and  C_31
REMARK                            x       y       z     vdW  Elec       q    Type
REMARK                         _______ _______ _______ _____ _____    ______ ____
ROOT
ATOM      1  C   UNL     1      -0.400  -6.636  -2.887  0.00  0.00    +0.204 C 
ATOM      2  O   UNL     1      -0.395  -5.807  -3.773  0.00  0.00    -0.277 OA
ATOM      3  N   UNL     1      -0.623  -7.932  -3.178  0.00  0.00    -0.259 N 
ATOM      4  C   UNL     1      -0.632  -8.900  -2.164  0.00  0.00    +0.058 A 
ATOM      5  C   UNL     1       0.546  -9.287  -1.546  0.00  0.00    +0.025 A 
ATOM      6  C   UNL     1       0.521 -10.259  -0.564  0.00  0.00    +0.002 A 
ATOM      7  C   UNL     1      -0.675 -10.849  -0.197  0.00  0.00    +0.002 A 
ATOM      8  C   UNL     1      -1.857 -10.463  -0.803  0.00  0.00    +0.025 A 
ATOM      9  C   UNL     1      -1.841  -9.481  -1.780  0.00  0.00    +0.055 A 
ATOM     10  N   UNL     1      -3.030  -9.034  -2.367  0.00  0.00    -0.284 N 
ATOM     11  C   UNL     1      -3.131  -8.922  -3.709  0.00  0.00    +0.219 C 
ATOM     12  O   UNL     1      -4.137  -8.455  -4.201  0.00  0.00    -0.275 OA
ATOM     13  C   UNL     1      -2.004  -9.373  -4.599  0.00  0.00    +0.128 C 
ATOM     14  C   UNL     1      -0.868  -8.355  -4.558  0.00  0.00    +0.194 C 
ATOM     15  H   UNL     1      -3.891  -8.771  -1.734  0.00  0.00    +0.155 HD
ENDROOT
BRANCH  14  16
ATOM     16  C   UNL     1       0.401  -8.993  -5.127  0.00  0.00    +0.409 C 
ATOM     17  F   UNL     1       0.752 -10.104  -4.353  0.00  0.00    -0.169 F 
ATOM     18  F   UNL     1       0.169  -9.398  -6.446  0.00  0.00    -0.169 F 
ATOM     19  F   UNL     1       1.443  -8.060  -5.102  0.00  0.00    -0.169 F 
ENDBRANCH  14  16
BRANCH   1  20
ATOM     20  C   UNL     1      -0.156  -6.215  -1.461  0.00  0.00    +0.019 C 
BRANCH  20  21
ATOM     21  N   UNL     1       0.059  -4.762  -1.409  0.00  0.00    +0.386 N 
ATOM     22  C   UNL     1       1.300  -4.389  -2.101  0.00  0.00    -0.095 C 
ATOM     23  H   UNL     1      -0.778  -4.278  -1.932  0.00  0.00    -0.081 HD
BRANCH  21  24
ATOM     24  C   UNL     1       0.065  -4.280  -0.021  0.00  0.00    -0.043 C 
BRANCH  24  28
ATOM     25  C   UNL     1       0.002  -0.004   0.002  0.00  0.00    +0.162 A 
ATOM     26  C   UNL     1       1.210  -0.682  -0.019  0.00  0.00    +0.049 A 
ATOM     27  C   UNL     1       1.227  -2.064  -0.020  0.00  0.00    +0.005 A 
ATOM     28  C   UNL     1       0.041  -2.773  -0.013  0.00  0.00    -0.060 A 
ATOM     29  C   UNL     1      -1.168  -2.103   0.002  0.00  0.00    +0.051 A 
ATOM     30  C   UNL     1      -1.192  -0.718   0.010  0.00  0.00    +0.162 A 
BRANCH  30  31
ATOM     31  O   UNL     1      -2.381  -0.057   0.025  0.00  0.00    -0.491 OA
ATOM     32  C   UNL     1      -3.567  -0.854   0.032  0.00  0.00    +0.277 C 
ENDBRANCH  30  31
BRANCH  25  33
ATOM     33  O   UNL     1      -0.016   1.356   0.009  0.00  0.00    -0.489 OA
BRANCH  33  35
ATOM     34  C   UNL     1       1.027   3.536   0.011  0.00  0.00    +0.048 C 
ATOM     35  C   UNL     1       1.248   2.022   0.001  0.00  0.00    +0.226 C 
ENDBRANCH  33  35
ENDBRANCH  25  33
ENDBRANCH  24  28
ENDBRANCH  21  24
ENDBRANCH  20  21
ENDBRANCH   1  20
TORSDOF 8
