REMARK  Name = ZINC36313964
REMARK  16 active torsions:
REMARK  status: ('A' for Active; 'I' for Inactive)
REMARK    1  A    between atoms: C_1  and  C_2
REMARK    2  A    between atoms: C_2  and  C_3
REMARK    3  A    between atoms: C_3  and  C_4
REMARK    4  A    between atoms: C_4  and  C_5
REMARK    5  A    between atoms: C_5  and  C_7
REMARK    6  A    between atoms: C_5  and  O_36
REMARK    7  A    between atoms: C_7  and  N_8
REMARK    8  A    between atoms: N_8  and  C_9
REMARK    9  A    between atoms: N_8  and  C_15
REMARK   10  A    between atoms: C_9  and  C_10
REMARK   11  A    between atoms: C_15  and  C_16
REMARK   12  A    between atoms: C_17  and  C_30
REMARK   13  A    between atoms: N_19  and  C_29
REMARK   14  A    between atoms: C_20  and  O_21
REMARK   15  A    between atoms: O_21  and  C_22
REMARK   16  A    between atoms: C_26  and  C_28
REMARK                            x       y       z     vdW  Elec       q    Type
REMARK                         _______ _______ _______ _____ _____    ______ ____
ROOT
ATOM      1  C   UNL     1      -6.020  -6.261   0.554  0.00  0.00    +0.025 A 
ATOM      2  C   UNL     1      -6.415  -6.548   1.874  0.00  0.00    +0.098 A 
ATOM      3  N   UNL     1      -7.657  -6.979   1.845  0.00  0.00    -0.168 NA
ATOM      4  N   UNL     1      -8.091  -6.981   0.513  0.00  0.00    -0.235 N 
ATOM      5  C   UNL     1      -7.071  -6.531  -0.262  0.00  0.00    +0.221 A 
ATOM      6  C   UNL     1      -9.415  -7.391   0.040  0.00  0.00    +0.176 C 
ENDROOT
BRANCH   2   7
ATOM      7  C   UNL     1      -5.575  -6.391   3.088  0.00  0.00    +0.002 A 
ATOM      8  C   UNL     1      -4.244  -6.803   3.075  0.00  0.00    +0.010 A 
ATOM      9  C   UNL     1      -3.468  -6.654   4.207  0.00  0.00    +0.001 A 
ATOM     10  C   UNL     1      -4.009  -6.098   5.352  0.00  0.00    +0.000 A 
ATOM     11  C   UNL     1      -5.329  -5.687   5.370  0.00  0.00    +0.001 A 
ATOM     12  C   UNL     1      -6.113  -5.826   4.242  0.00  0.00    +0.010 A 
ENDBRANCH   2   7
BRANCH   1  13
ATOM     13  C   UNL     1      -4.672  -5.741   0.123  0.00  0.00    -0.035 C 
BRANCH  13  14
ATOM     14  N   UNL     1      -4.732  -4.280  -0.013  0.00  0.00    +0.389 N 
ATOM     15  H   UNL     1      -5.490  -4.030  -0.630  0.00  0.00    -0.081 HD
BRANCH  14  16
ATOM     16  C   UNL     1      -4.954  -3.674   1.306  0.00  0.00    -0.046 C 
BRANCH  16  17
ATOM     17  C   UNL     1      -5.220  -2.176   1.141  0.00  0.00    +0.098 C 
BRANCH  17  18
ATOM     18  O   UNL     1      -4.028  -1.527   0.694  0.00  0.00    -0.394 OA
ATOM     19  H   UNL     1      -3.279  -1.619   1.300  0.00  0.00    +0.210 HD
ENDBRANCH  17  18
BRANCH  17  20
ATOM     20  C   UNL     1      -5.650  -1.583   2.485  0.00  0.00    +0.029 C 
BRANCH  20  21
ATOM     21  C   UNL     1      -6.035  -0.115   2.294  0.00  0.00    +0.002 C 
BRANCH  21  23
ATOM     22  C   UNL     1      -6.851   1.946   3.447  0.00  0.00    +0.004 C 
ATOM     23  C   UNL     1      -6.466   0.477   3.637  0.00  0.00    -0.003 C 
ENDBRANCH  21  23
ENDBRANCH  20  21
ENDBRANCH  17  20
ENDBRANCH  16  17
ENDBRANCH  14  16
BRANCH  14  24
ATOM     24  C   UNL     1      -3.465  -3.788  -0.571  0.00  0.00    -0.003 C 
BRANCH  24  25
ATOM     25  C   UNL     1      -3.257  -4.378  -1.942  0.00  0.00    +0.089 A 
ATOM     26  C   UNL     1      -3.612  -3.806  -3.107  0.00  0.00    +0.042 A 
ATOM     27  C   UNL     1      -3.233  -4.700  -4.135  0.00  0.00    +0.041 A 
ATOM     28  C   UNL     1      -2.669  -5.764  -3.537  0.00  0.00    +0.195 A 
ATOM     29  O   UNL     1      -2.682  -5.562  -2.209  0.00  0.00    -0.470 OA
ENDBRANCH  24  25
ENDBRANCH  14  24
ENDBRANCH  13  14
ENDBRANCH   1  13
BRANCH   5  30
ATOM     30  O   UNL     1      -7.097  -6.380  -1.611  0.00  0.00    -0.438 OA
BRANCH  30  31
ATOM     31  C   UNL     1      -6.791  -7.459  -2.379  0.00  0.00    +0.131 A 
ATOM     32  C   UNL     1      -6.571  -8.694  -1.786  0.00  0.00    +0.046 A 
ATOM     33  C   UNL     1      -6.261  -9.789  -2.569  0.00  0.00    +0.004 A 
ATOM     34  C   UNL     1      -6.168  -9.654  -3.942  0.00  0.00    +0.003 A 
ATOM     35  C   UNL     1      -6.385  -8.424  -4.535  0.00  0.00    -0.047 A 
ATOM     36  C   UNL     1      -6.702  -7.327  -3.757  0.00  0.00    +0.049 A 
ATOM     37  C   UNL     1      -6.282  -8.281  -6.032  0.00  0.00    +0.044 C 
ENDBRANCH  30  31
ENDBRANCH   5  30
TORSDOF 13
