REMARK  Name = ZINC43093173
REMARK  6 active torsions:
REMARK  status: ('A' for Active; 'I' for Inactive)
REMARK    1  A    between atoms: C_1  and  C_2
REMARK    2  A    between atoms: C_6  and  C_21
REMARK    3  A    between atoms: N_9  and  C_10
REMARK    4  A    between atoms: C_10  and  C_12
REMARK    5  A    between atoms: C_10  and  C_14
REMARK    6  A    between atoms: C_12  and  N_13
REMARK                            x       y       z     vdW  Elec       q    Type
REMARK                         _______ _______ _______ _____ _____    ______ ____
ROOT
ATOM      1  C   UNL     1       0.183   1.901   0.021  0.00  0.00    -0.013 C 
ATOM      2  C   UNL     1       0.187   0.371  -0.002  0.00  0.00    -0.071 C 
ATOM      3  C   UNL     1       0.884  -0.118  -1.273  0.00  0.00    -0.015 C 
ATOM      4  C   UNL     1       0.885  -1.649  -1.292  0.00  0.00    +0.009 C 
ATOM      5  C   UNL     1       1.567  -2.165  -0.021  0.00  0.00    +0.058 C 
ATOM      6  C   UNL     1       0.845  -1.600   1.204  0.00  0.00    -0.065 C 
ATOM      7  N   UNL     1       0.902  -0.134   1.177  0.00  0.00    +0.385 N 
ATOM      8  H   UNL     1       1.865   0.164   1.138  0.00  0.00    -0.081 HD
ENDROOT
BRANCH   5   9
ATOM      9  C   UNL     1       1.507  -3.670   0.007  0.00  0.00    +0.212 C 
ATOM     10  O   UNL     1       0.944  -4.237   0.920  0.00  0.00    -0.276 OA
ATOM     11  N   UNL     1       2.078  -4.386  -0.982  0.00  0.00    -0.329 N 
ATOM     12  H   UNL     1       2.528  -3.933  -1.711  0.00  0.00    +0.145 HD
ATOM     13  H   UNL     1       2.038  -5.355  -0.964  0.00  0.00    +0.145 HD
ENDBRANCH   5   9
BRANCH   7  14
ATOM     14  C   UNL     1       0.276   0.401   2.394  0.00  0.00    -0.054 C 
BRANCH  14  15
ATOM     15  C   UNL     1       1.249   0.308   3.541  0.00  0.00    -0.049 A 
ATOM     16  C   UNL     1       2.328  -0.552   3.464  0.00  0.00    +0.003 A 
ATOM     17  C   UNL     1       3.220  -0.638   4.517  0.00  0.00    +0.000 A 
ATOM     18  C   UNL     1       3.034   0.137   5.646  0.00  0.00    +0.001 A 
ATOM     19  C   UNL     1       1.955   0.998   5.724  0.00  0.00    +0.015 A 
ATOM     20  C   UNL     1       1.064   1.087   4.669  0.00  0.00    +0.019 A 
ATOM     21 BR   UNL     1      -0.408   2.269   4.771  0.00  0.00    -0.050 Br
ENDBRANCH  14  15
BRANCH  14  22
ATOM     22  C   UNL     1      -0.979  -0.411   2.721  0.00  0.00    -0.097 C 
BRANCH  22  23
ATOM     23  N   UNL     1      -1.889  -0.392   1.568  0.00  0.00    +0.377 N 
ATOM     24  H   UNL     1      -2.810  -0.680   1.862  0.00  0.00    -0.090 HD
ATOM     25  H   UNL     1      -1.934   0.543   1.190  0.00  0.00    -0.090 HD
ATOM     26  H   UNL     1      -1.548  -1.024   0.860  0.00  0.00    -0.090 HD
ENDBRANCH  22  23
ENDBRANCH  14  22
ENDBRANCH   7  14
TORSDOF 5
