REMARK  Name = ZINC14475661
REMARK  8 active torsions:
REMARK  status: ('A' for Active; 'I' for Inactive)
REMARK    1  A    between atoms: C_1  and  C_2
REMARK    2  A    between atoms: C_5  and  N_9
REMARK    3  A    between atoms: C_7  and  C_8
REMARK    4  A    between atoms: N_9  and  S_10
REMARK    5  A    between atoms: S_10  and  C_13
REMARK    6  A    between atoms: C_26  and  C_29
REMARK    7  A    between atoms: C_31  and  N_36
REMARK    8  A    between atoms: C_34  and  O_35
REMARK                            x       y       z     vdW  Elec       q    Type
REMARK                         _______ _______ _______ _____ _____    ______ ____
ROOT
ATOM      1  C   UNL     1       2.725  -4.602  -0.542  0.00  0.00    +0.109 A 
ATOM      2  C   UNL     1       3.379  -3.507  -1.078  0.00  0.00    +0.030 A 
ATOM      3  C   UNL     1       4.666  -3.207  -0.682  0.00  0.00    +0.025 A 
ATOM      4  C   UNL     1       5.316  -4.003   0.254  0.00  0.00    +0.031 A 
ATOM      5  C   UNL     1       4.652  -5.116   0.782  0.00  0.00    -0.018 A 
ATOM      6  C   UNL     1       3.361  -5.399   0.391  0.00  0.00    +0.034 A 
ATOM      7  C   UNL     1       5.394  -5.959   1.745  0.00  0.00    +0.049 C 
ATOM      8  C   UNL     1       4.698  -6.761   2.784  0.00  0.00    -0.023 C 
ATOM      9  C   UNL     1       5.485  -6.849   3.849  0.00  0.00    -0.030 C 
ATOM     10  C   UNL     1       6.778  -6.068   3.610  0.00  0.00    +0.033 C 
ATOM     11  C   UNL     1       6.305  -5.024   2.595  0.00  0.00    +0.029 C 
ATOM     12  C   UNL     1       7.353  -4.495   1.633  0.00  0.00    +0.108 C 
ATOM     13  N   UNL     1       6.615  -3.667   0.655  0.00  0.00    -0.336 N 
ATOM     14  H   UNL     1       7.038  -2.877   0.285  0.00  0.00    +0.147 HD
ENDROOT
BRANCH  12  15
ATOM     15  C   UNL     1       8.363  -3.656   2.373  0.00  0.00    +0.017 A 
ATOM     16  C   UNL     1       8.209  -2.285   2.436  0.00  0.00    +0.041 A 
ATOM     17  C   UNL     1       9.134  -1.514   3.115  0.00  0.00    +0.127 A 
ATOM     18  C   UNL     1      10.217  -2.114   3.732  0.00  0.00    +0.036 A 
ATOM     19  C   UNL     1      10.375  -3.485   3.672  0.00  0.00    +0.048 A 
ATOM     20  C   UNL     1       9.444  -4.261   2.996  0.00  0.00    +0.122 A 
BRANCH  17  21
ATOM     21  N   UNL     1       8.967  -0.045   3.181  0.00  0.00    +0.056 N 
ATOM     22  O   UNL     1       8.021   0.480   2.641  0.00  0.00    -0.126 OA
ATOM     23  O   UNL     1       9.776   0.629   3.774  0.00  0.00    -0.126 OA
ENDBRANCH  17  21
BRANCH  20  24
ATOM     24  O   UNL     1       9.596  -5.610   2.940  0.00  0.00    -0.506 OA
ATOM     25  H   UNL     1      10.113  -5.917   2.183  0.00  0.00    +0.292 HD
ENDBRANCH  20  24
ENDBRANCH  12  15
BRANCH   1  26
ATOM     26  S   UNL     1       1.078  -4.976  -1.044  0.00  0.00    +0.072 S 
ATOM     27  O   UNL     1       0.884  -6.362  -0.799  0.00  0.00    -0.150 OA
ATOM     28  O   UNL     1       0.904  -4.399  -2.331  0.00  0.00    -0.150 OA
BRANCH  26  29
ATOM     29  N   UNL     1       0.058  -4.167  -0.021  0.00  0.00    -0.216 N 
ATOM     30  H   UNL     1      -0.526  -4.663   0.573  0.00  0.00    +0.174 HD
BRANCH  29  35
ATOM     31  C   UNL     1      -0.018   1.503   0.010  0.00  0.00    +0.044 C 
ATOM     32  C   UNL     1       0.002  -0.004   0.002  0.00  0.00    -0.047 A 
ATOM     33  C   UNL     1       0.006  -0.687  -1.200  0.00  0.00    +0.005 A 
ATOM     34  C   UNL     1       0.024  -2.068  -1.212  0.00  0.00    +0.025 A 
ATOM     35  C   UNL     1       0.040  -2.771  -0.013  0.00  0.00    +0.048 A 
ATOM     36  C   UNL     1       0.036  -2.081   1.192  0.00  0.00    +0.028 A 
ATOM     37  C   UNL     1       0.023  -0.700   1.196  0.00  0.00    -0.046 A 
ATOM     38  C   UNL     1       0.025   0.049   2.504  0.00  0.00    +0.044 C 
ENDBRANCH  29  35
ENDBRANCH  26  29
ENDBRANCH   1  26
TORSDOF 6
