REMARK  Name = ZINC40398918
REMARK  7 active torsions:
REMARK  status: ('A' for Active; 'I' for Inactive)
REMARK    1  A    between atoms: C_1  and  C_2
REMARK    2  A    between atoms: C_2  and  S_3
REMARK    3  A    between atoms: S_3  and  C_4
REMARK    4  A    between atoms: N_23  and  C_26
REMARK    5  A    between atoms: C_26  and  C_27
REMARK    6  A    between atoms: C_27  and  O_28
REMARK    7  A    between atoms: O_28  and  C_29
REMARK                            x       y       z     vdW  Elec       q    Type
REMARK                         _______ _______ _______ _____ _____    ______ ____
ROOT
ATOM      1  C   UNL     1      -1.508  -2.383   0.004  0.00  0.00    +0.210 A 
ATOM      2  N   UNL     1      -2.505  -3.274   0.003  0.00  0.00    -0.185 NA
ATOM      3  C   UNL     1      -2.010  -4.493  -0.007  0.00  0.00    +0.234 A 
ATOM      4  N   UNL     1      -0.665  -4.397  -0.013  0.00  0.00    -0.243 N 
ATOM      5  H   UNL     1      -0.030  -5.131  -0.021  0.00  0.00    +0.192 HD
ATOM      6  N   UNL     1      -0.364  -3.025  -0.011  0.00  0.00    -0.144 NA
ATOM      7  N   UNL     1      -2.745  -5.673  -0.011  0.00  0.00    -0.252 N 
ATOM      8  C   UNL     1      -2.079  -6.866  -0.016  0.00  0.00    +0.100 A 
ATOM      9  C   UNL     1      -2.715  -8.048  -0.020  0.00  0.00    +0.047 A 
ATOM     10  C   UNL     1      -4.180  -8.082  -0.019  0.00  0.00    +0.078 A 
ATOM     11  C   UNL     1      -4.873  -6.842  -0.014  0.00  0.00    +0.066 A 
ATOM     12  C   UNL     1      -4.091  -5.602  -0.004  0.00  0.00    +0.267 A 
ATOM     13  O   UNL     1      -4.651  -4.521   0.005  0.00  0.00    -0.267 OA
ATOM     14  C   UNL     1      -6.266  -6.830  -0.013  0.00  0.00    +0.030 A 
ATOM     15  C   UNL     1      -6.923  -8.059  -0.017  0.00  0.00    +0.066 A 
ATOM     16  C   UNL     1      -6.168  -9.261  -0.023  0.00  0.00    +0.078 A 
ATOM     17  N   UNL     1      -4.841  -9.231  -0.023  0.00  0.00    -0.246 NA
ATOM     18  C   UNL     1      -6.900 -10.529  -0.027  0.00  0.00    +0.046 A 
ATOM     19  C   UNL     1      -8.243 -10.520  -0.025  0.00  0.00    +0.091 A 
ATOM     20  N   UNL     1      -8.969  -9.366  -0.020  0.00  0.00    -0.312 N 
ATOM     21  C   UNL     1      -8.386  -8.151  -0.016  0.00  0.00    +0.261 A 
ATOM     22  O   UNL     1      -9.067  -7.141  -0.011  0.00  0.00    -0.267 OA
ENDROOT
BRANCH   1  23
ATOM     23  S   UNL     1      -1.700  -0.632   0.015  0.00  0.00    -0.085 S 
BRANCH  23  25
ATOM     24  C   UNL     1      -0.019   1.526   0.010  0.00  0.00    +0.016 C 
ATOM     25  C   UNL     1       0.002  -0.004   0.002  0.00  0.00    +0.074 C 
ENDBRANCH  23  25
ENDBRANCH   1  23
BRANCH  20  26
ATOM     26  C   UNL     1     -10.432  -9.450  -0.020  0.00  0.00    +0.153 C 
BRANCH  26  27
ATOM     27  C   UNL     1     -10.940  -9.485   1.423  0.00  0.00    +0.181 C 
BRANCH  27  28
ATOM     28  O   UNL     1     -10.632  -8.247   2.067  0.00  0.00    -0.381 OA
ATOM     29  C   UNL     1     -11.066  -8.175   3.426  0.00  0.00    +0.194 C 
ENDBRANCH  27  28
ENDBRANCH  26  27
ENDBRANCH  20  26
TORSDOF 5
