REMARK  Name = ZINC37974206
REMARK  4 active torsions:
REMARK  status: ('A' for Active; 'I' for Inactive)
REMARK    1  A    between atoms: C_3  and  N_21
REMARK    2  A    between atoms: C_6  and  C_7
REMARK    3  A    between atoms: N_11  and  C_12
REMARK    4  A    between atoms: C_12  and  C_13
REMARK                            x       y       z     vdW  Elec       q    Type
REMARK                         _______ _______ _______ _____ _____    ______ ____
ROOT
ATOM      1  C   UNL     1      -1.260  -0.832   0.089  0.00  0.00    +0.119 A 
ATOM      2  N   UNL     1      -2.353  -0.511   0.744  0.00  0.00    -0.346 N 
ATOM      3  C   UNL     1      -3.338  -1.350   0.398  0.00  0.00    +0.102 A 
ATOM      4  C   UNL     1      -2.852  -2.227  -0.503  0.00  0.00    +0.105 A 
ATOM      5  N   UNL     1      -1.537  -1.903  -0.710  0.00  0.00    -0.328 N 
ATOM      6  H   UNL     1      -2.434   0.218   1.379  0.00  0.00    +0.167 HD
ENDROOT
BRANCH   1  12
ATOM      7  C   UNL     1       0.097   1.244   0.314  0.00  0.00    +0.013 A 
ATOM      8  C   UNL     1       1.315   1.881   0.412  0.00  0.00    +0.023 A 
ATOM      9  C   UNL     1       2.492   1.141   0.391  0.00  0.00    +0.025 A 
ATOM     10  C   UNL     1       2.443  -0.244   0.271  0.00  0.00    +0.023 A 
ATOM     11  C   UNL     1       1.229  -0.886   0.173  0.00  0.00    +0.013 A 
ATOM     12  C   UNL     1       0.045  -0.146   0.194  0.00  0.00    +0.016 A 
BRANCH   9  13
ATOM     13  N   UNL     1       3.723   1.788   0.490  0.00  0.00    -0.358 N 
ATOM     14  H   UNL     1       3.758   2.754   0.574  0.00  0.00    +0.142 HD
ATOM     15  H   UNL     1       4.545   1.273   0.476  0.00  0.00    +0.142 HD
ENDBRANCH   9  13
ENDBRANCH   1  12
BRANCH   5  16
ATOM     16  C   UNL     1      -0.605  -2.580  -1.615  0.00  0.00    +0.158 C 
BRANCH  16  17
ATOM     17  C   UNL     1      -0.498  -1.802  -2.900  0.00  0.00    -0.027 A 
ATOM     18  C   UNL     1      -1.431  -1.992  -3.903  0.00  0.00    +0.008 A 
ATOM     19  C   UNL     1      -1.334  -1.278  -5.082  0.00  0.00    +0.040 A 
ATOM     20  C   UNL     1      -0.303  -0.372  -5.260  0.00  0.00    +0.137 A 
ATOM     21  C   UNL     1       0.631  -0.181  -4.255  0.00  0.00    +0.053 A 
ATOM     22  C   UNL     1       0.529  -0.893  -3.074  0.00  0.00    +0.023 A 
ATOM     23 BR   UNL     1       2.041   1.056  -4.496  0.00  0.00    -0.047 Br
ATOM     24  F   UNL     1      -0.207   0.326  -6.413  0.00  0.00    -0.204 F 
ENDBRANCH  16  17
ENDBRANCH   5  16
TORSDOF 4
