REMARK  Name = ZINC46171955
REMARK  9 active torsions:
REMARK  status: ('A' for Active; 'I' for Inactive)
REMARK    1  A    between atoms: C_1  and  C_2
REMARK    2  A    between atoms: C_2  and  C_3
REMARK    3  A    between atoms: C_3  and  C_5
REMARK    4  A    between atoms: C_3  and  N_6
REMARK    5  A    between atoms: C_7  and  S_9
REMARK    6  A    between atoms: S_9  and  C_10
REMARK    7  A    between atoms: C_10  and  C_11
REMARK    8  A    between atoms: C_13  and  O_14
REMARK    9  A    between atoms: C_23  and  C_25
REMARK                            x       y       z     vdW  Elec       q    Type
REMARK                         _______ _______ _______ _____ _____    ______ ____
ROOT
ATOM      1  C   UNL     1       6.467   1.067  -4.221  0.00  0.00    -0.020 A 
ATOM      2  C   UNL     1       6.864   2.339  -3.859  0.00  0.00    +0.092 A 
ATOM      3  C   UNL     1       8.215   2.644  -3.775  0.00  0.00    +0.285 A 
ATOM      4  O   UNL     1       9.153   1.729  -4.037  0.00  0.00    -0.425 OA
ATOM      5  C   UNL     1       8.821   0.471  -4.395  0.00  0.00    +0.141 A 
ATOM      6  C   UNL     1       7.460   0.103  -4.492  0.00  0.00    +0.022 A 
ATOM      7  C   UNL     1       7.110  -1.209  -4.859  0.00  0.00    +0.013 A 
ATOM      8  C   UNL     1       8.081  -2.123  -5.117  0.00  0.00    +0.024 A 
ATOM      9  C   UNL     1       9.438  -1.767  -5.018  0.00  0.00    +0.037 A 
ATOM     10  C   UNL     1       9.802  -0.467  -4.665  0.00  0.00    +0.070 A 
ATOM     11  N   UNL     1      10.402  -2.693  -5.277  0.00  0.00    -0.286 N 
ATOM     12  C   UNL     1      11.644  -2.478  -4.890  0.00  0.00    +0.214 C 
ATOM     13  O   UNL     1      11.907  -1.513  -4.195  0.00  0.00    -0.276 OA
ATOM     14  C   UNL     1      12.738  -3.427  -5.307  0.00  0.00    +0.109 C 
ATOM     15  H   UNL     1      10.175  -3.510  -5.748  0.00  0.00    +0.155 HD
ENDROOT
BRANCH   3  16
ATOM     16  O   UNL     1       8.588   3.889  -3.421  0.00  0.00    -0.480 OA
ATOM     17  H   UNL     1       9.546   4.017  -3.386  0.00  0.00    +0.295 HD
ENDBRANCH   3  16
BRANCH   1  18
ATOM     18  C   UNL     1       5.005   0.715  -4.319  0.00  0.00    +0.113 C 
BRANCH  18  19
ATOM     19  S   UNL     1       4.312   0.542  -2.651  0.00  0.00    -0.088 S 
BRANCH  19  21
ATOM     20  N   UNL     1       1.821  -0.061  -1.921  0.00  0.00    -0.366 N 
ATOM     21  C   UNL     1       2.621   0.135  -2.932  0.00  0.00    +0.126 C 
ATOM     22  N   UNL     1       2.144   0.025  -4.218  0.00  0.00    -0.339 N 
ATOM     23  H   UNL     1       1.213  -0.198  -4.373  0.00  0.00    +0.144 HD
ATOM     24  H   UNL     1       2.740   0.172  -4.970  0.00  0.00    +0.144 HD
ATOM     25  H   UNL     1       2.156   0.016  -1.015  0.00  0.00    +0.162 HD
BRANCH  20  26
ATOM     26  C   UNL     1       0.414  -0.399  -2.155  0.00  0.00    +0.078 C 
ATOM     27  C   UNL     1       0.281  -1.909  -2.366  0.00  0.00    +0.030 C 
BRANCH  26  29
ATOM     28  C   UNL     1      -0.387   1.546  -0.807  0.00  0.00    +0.006 C 
ATOM     29  C   UNL     1      -0.420   0.022  -0.944  0.00  0.00    +0.021 C 
ENDBRANCH  26  29
ENDBRANCH  20  26
ENDBRANCH  19  21
ENDBRANCH  18  19
ENDBRANCH   1  18
TORSDOF 6
