REMARK  Name = ZINC39362108
REMARK  8 active torsions:
REMARK  status: ('A' for Active; 'I' for Inactive)
REMARK    1  A    between atoms: C_1  and  O_2
REMARK    2  A    between atoms: O_2  and  C_3
REMARK    3  A    between atoms: C_7  and  N_9
REMARK    4  A    between atoms: C_10  and  C_24
REMARK    5  A    between atoms: C_14  and  S_15
REMARK    6  A    between atoms: S_15  and  C_16
REMARK    7  A    between atoms: C_16  and  C_17
REMARK    8  A    between atoms: C_24  and  C_25
REMARK                            x       y       z     vdW  Elec       q    Type
REMARK                         _______ _______ _______ _____ _____    ______ ____
ROOT
ATOM      1  N   UNL     1      -2.543  -4.062   0.017  0.00  0.00    -0.258 N 
ATOM      2  C   UNL     1      -3.755  -4.892   0.122  0.00  0.00    +0.187 C 
ATOM      3  N   UNL     1      -3.244  -6.273   0.070  0.00  0.00    -0.246 N 
ATOM      4  N   UNL     1      -1.853  -6.170  -0.056  0.00  0.00    -0.162 NA
ATOM      5  C   UNL     1      -1.472  -4.938  -0.090  0.00  0.00    +0.180 C 
ATOM      6  H   UNL     1      -3.766  -7.089   0.114  0.00  0.00    +0.170 HD
ENDROOT
BRANCH   1  11
ATOM      7  C   UNL     1      -2.972  -0.562  -1.032  0.00  0.00    +0.122 A 
ATOM      8  C   UNL     1      -2.364   0.102   0.024  0.00  0.00    +0.046 A 
ATOM      9  C   UNL     1      -1.818  -0.616   1.072  0.00  0.00    +0.005 A 
ATOM     10  C   UNL     1      -1.876  -1.996   1.072  0.00  0.00    +0.024 A 
ATOM     11  C   UNL     1      -2.485  -2.666   0.017  0.00  0.00    +0.041 A 
ATOM     12  C   UNL     1      -3.038  -1.946  -1.033  0.00  0.00    +0.069 A 
BRANCH   7  14
ATOM     13  C   UNL     1      -3.403   1.569  -1.994  0.00  0.00    +0.277 C 
ATOM     14  O   UNL     1      -3.508   0.145  -2.061  0.00  0.00    -0.495 OA
ENDBRANCH   7  14
ENDBRANCH   1  11
BRANCH   5  15
ATOM     15  S   UNL     1       0.207  -4.428  -0.248  0.00  0.00    -0.084 S 
BRANCH  15  16
ATOM     16  C   UNL     1       1.131  -5.986  -0.344  0.00  0.00    +0.112 C 
BRANCH  16  17
ATOM     17  C   UNL     1       2.602  -5.690  -0.483  0.00  0.00    -0.034 A 
ATOM     18  C   UNL     1       3.162  -5.543  -1.739  0.00  0.00    +0.004 A 
ATOM     19  C   UNL     1       4.511  -5.271  -1.868  0.00  0.00    +0.003 A 
ATOM     20  C   UNL     1       5.302  -5.146  -0.742  0.00  0.00    +0.038 A 
ATOM     21  C   UNL     1       4.743  -5.294   0.516  0.00  0.00    +0.124 A 
ATOM     22  C   UNL     1       3.390  -5.560   0.644  0.00  0.00    +0.042 A 
ATOM     23  F   UNL     1       5.516  -5.173   1.617  0.00  0.00    -0.205 F 
ENDBRANCH  16  17
ENDBRANCH  15  16
ENDBRANCH   5  15
BRANCH   2  24
ATOM     24  C   UNL     1      -4.470  -4.631   1.450  0.00  0.00    +0.097 C 
BRANCH  24  25
ATOM     25  C   UNL     1      -5.705  -5.492   1.533  0.00  0.00    +0.029 A 
ATOM     26  N   UNL     1      -6.876  -5.070   0.965  0.00  0.00    -0.311 N 
ATOM     27  C   UNL     1      -7.984  -5.831   1.033  0.00  0.00    +0.327 A 
ATOM     28  O   UNL     1      -9.014  -5.437   0.521  0.00  0.00    -0.247 OA
ATOM     29  N   UNL     1      -7.967  -7.022   1.659  0.00  0.00    -0.275 N 
ATOM     30  C   UNL     1      -6.833  -7.474   2.232  0.00  0.00    +0.254 A 
ATOM     31  O   UNL     1      -6.817  -8.551   2.799  0.00  0.00    -0.268 OA
ATOM     32  C   UNL     1      -5.659  -6.685   2.163  0.00  0.00    +0.091 A 
ATOM     33  H   UNL     1      -8.774  -7.558   1.699  0.00  0.00    +0.173 HD
ATOM     34  H   UNL     1      -6.908  -4.215   0.509  0.00  0.00    +0.170 HD
ENDBRANCH  24  25
ENDBRANCH   2  24
TORSDOF 7
