REMARK  Name = ZINC57577633
REMARK  9 active torsions:
REMARK  status: ('A' for Active; 'I' for Inactive)
REMARK    1  A    between atoms: C_1  and  C_2
REMARK    2  A    between atoms: C_4  and  S_28
REMARK    3  A    between atoms: C_6  and  N_9
REMARK    4  A    between atoms: C_7  and  C_8
REMARK    5  A    between atoms: C_10  and  C_12
REMARK    6  A    between atoms: C_13  and  C_14
REMARK    7  A    between atoms: C_15  and  C_27
REMARK    8  A    between atoms: N_17  and  C_20
REMARK    9  A    between atoms: S_28  and  N_31
REMARK                            x       y       z     vdW  Elec       q    Type
REMARK                         _______ _______ _______ _____ _____    ______ ____
ROOT
ATOM      1  N   UNL     1       0.050  -2.797   2.392  0.00  0.00    -0.282 N 
ATOM      2  C   UNL     1      -0.034  -4.142   2.384  0.00  0.00    +0.241 C 
ATOM      3  O   UNL     1      -0.031  -4.747   1.327  0.00  0.00    -0.270 OA
ATOM      4  H   UNL     1       0.129  -2.321   3.233  0.00  0.00    +0.155 HD
ENDROOT
BRANCH   1  10
ATOM      5  C   UNL     1       1.207   1.235  -0.172  0.00  0.00    +0.044 C 
ATOM      6  C   UNL     1       0.578  -0.132  -0.085  0.00  0.00    -0.044 A 
ATOM      7  C   UNL     1      -0.027  -0.686  -1.198  0.00  0.00    +0.032 A 
ATOM      8  C   UNL     1      -0.606  -1.939  -1.122  0.00  0.00    +0.107 A 
ATOM      9  C   UNL     1      -0.582  -2.642   0.067  0.00  0.00    +0.052 A 
ATOM     10  C   UNL     1       0.025  -2.088   1.187  0.00  0.00    +0.039 A 
ATOM     11  C   UNL     1       0.610  -0.831   1.105  0.00  0.00    -0.026 A 
ATOM     12  C   UNL     1       1.275  -0.229   2.317  0.00  0.00    +0.046 C 
BRANCH   8  13
ATOM     13  S   UNL     1      -1.375  -2.641  -2.544  0.00  0.00    +0.056 S 
ATOM     14  O   UNL     1      -2.320  -3.590  -2.068  0.00  0.00    -0.153 OA
ATOM     15  O   UNL     1      -1.743  -1.555  -3.384  0.00  0.00    -0.153 OA
BRANCH  13  16
ATOM     16  N   UNL     1      -0.214  -3.496  -3.357  0.00  0.00    -0.204 NA
ATOM     17  H   UNL     1      -0.461  -4.277  -3.877  0.00  0.00    +0.144 HD
ATOM     18  H   UNL     1       0.714  -3.217  -3.314  0.00  0.00    +0.144 HD
ENDBRANCH  13  16
ENDBRANCH   8  13
ENDBRANCH   1  10
BRANCH   2  19
ATOM     19  C   UNL     1      -0.126  -4.853   3.607  0.00  0.00    +0.068 C 
ATOM     20  C   UNL     1      -0.210  -6.202   3.599  0.00  0.00    +0.018 C 
BRANCH  20  21
ATOM     21  C   UNL     1      -0.306  -6.938   4.866  0.00  0.00    +0.035 A 
ATOM     22  C   UNL     1      -1.252  -7.941   5.187  0.00  0.00    +0.069 A 
ATOM     23  N   UNL     1      -1.010  -8.352   6.401  0.00  0.00    -0.170 NA
ATOM     24  N   UNL     1       0.085  -7.648   6.912  0.00  0.00    -0.221 N 
ATOM     25  C   UNL     1       0.518  -6.787   5.970  0.00  0.00    +0.140 A 
ATOM     26 CL   UNL     1       1.855  -5.690   6.114  0.00  0.00    -0.061 Cl
ATOM     27  C   UNL     1      -2.348  -8.445   4.284  0.00  0.00    +0.068 C 
BRANCH  24  28
ATOM     28  C   UNL     1       0.642  -7.812   8.188  0.00  0.00    +0.067 A 
ATOM     29  C   UNL     1       2.011  -7.675   8.373  0.00  0.00    +0.030 A 
ATOM     30  C   UNL     1       2.558  -7.837   9.630  0.00  0.00    +0.040 A 
ATOM     31  C   UNL     1       1.741  -8.137  10.708  0.00  0.00    +0.124 A 
ATOM     32  C   UNL     1       0.375  -8.274  10.526  0.00  0.00    +0.040 A 
ATOM     33  C   UNL     1      -0.176  -8.107   9.271  0.00  0.00    +0.030 A 
ATOM     34  F   UNL     1       2.277  -8.296  11.938  0.00  0.00    -0.205 F 
ENDBRANCH  24  28
ENDBRANCH  20  21
ENDBRANCH   2  19
TORSDOF 6
