REMARK  Name = ZINC40044783
REMARK  12 active torsions:
REMARK  status: ('A' for Active; 'I' for Inactive)
REMARK    1  A    between atoms: C_1  and  C_2
REMARK    2  A    between atoms: C_2  and  C_3
REMARK    3  A    between atoms: C_3  and  C_4
REMARK    4  A    between atoms: C_4  and  O_5
REMARK    5  A    between atoms: O_5  and  C_6
REMARK    6  A    between atoms: C_9  and  C_15
REMARK    7  A    between atoms: C_11  and  O_12
REMARK    8  A    between atoms: O_12  and  C_13
REMARK    9  A    between atoms: C_13  and  C_14
REMARK   10  A    between atoms: C_22  and  C_39
REMARK   11  A    between atoms: C_24  and  C_38
REMARK   12  A    between atoms: C_34  and  C_37
REMARK                            x       y       z     vdW  Elec       q    Type
REMARK                         _______ _______ _______ _____ _____    ______ ____
ROOT
ATOM      1  C   UNL     1      -3.411  -8.156  -0.009  0.00  0.00    +0.151 C 
ATOM      2  C   UNL     1      -3.196  -8.705   1.363  0.00  0.00    +0.072 A 
ATOM      3  C   UNL     1      -3.897  -8.451   2.627  0.00  0.00    +0.199 A 
ATOM      4  O   UNL     1      -4.939  -7.823   2.697  0.00  0.00    -0.287 OA
ATOM      5  C   UNL     1      -3.215  -9.031   3.811  0.00  0.00    +0.065 A 
ATOM      6  C   UNL     1      -3.643  -8.711   5.099  0.00  0.00    +0.018 A 
ATOM      7  C   UNL     1      -3.002  -9.249   6.180  0.00  0.00    -0.049 A 
ATOM      8  C   UNL     1      -1.929 -10.111   5.998  0.00  0.00    +0.010 A 
ATOM      9  C   UNL     1      -1.494 -10.439   4.734  0.00  0.00    -0.007 A 
ATOM     10  C   UNL     1      -2.133  -9.905   3.615  0.00  0.00    +0.142 A 
ATOM     11  O   UNL     1      -1.696 -10.248   2.382  0.00  0.00    -0.449 OA
ATOM     12  C   UNL     1      -2.143  -9.574   1.304  0.00  0.00    +0.199 A 
ATOM     13  C   UNL     1      -1.649  -9.607  -0.083  0.00  0.00    +0.288 C 
ATOM     14  O   UNL     1      -0.715 -10.279  -0.472  0.00  0.00    -0.266 OA
ATOM     15  N   UNL     1      -2.385  -8.783  -0.858  0.00  0.00    -0.238 N 
ATOM     16  C   UNL     1      -2.207  -8.563  -2.222  0.00  0.00    +0.129 A 
ATOM     17  C   UNL     1      -2.973  -7.601  -2.871  0.00  0.00    +0.044 A 
ATOM     18  C   UNL     1      -2.785  -7.394  -4.226  0.00  0.00    +0.008 A 
ATOM     19  C   UNL     1      -1.834  -8.159  -4.888  0.00  0.00    -0.032 A 
ATOM     20  C   UNL     1      -1.109  -9.097  -4.180  0.00  0.00    +0.116 A 
ATOM     21  N   UNL     1      -1.305  -9.269  -2.887  0.00  0.00    -0.240 NA
ATOM     22  C   UNL     1      -1.596  -7.968  -6.364  0.00  0.00    +0.045 C 
ATOM     23  C   UNL     1      -0.327 -11.375   4.559  0.00  0.00    +0.047 C 
ATOM     24  C   UNL     1      -3.462  -8.907   7.574  0.00  0.00    +0.044 C 
ENDROOT
BRANCH   1  28
ATOM     25  C   UNL     1      -2.913  -3.909   0.009  0.00  0.00    +0.162 A 
ATOM     26  C   UNL     1      -1.804  -4.739  -0.000  0.00  0.00    +0.050 A 
ATOM     27  C   UNL     1      -1.968  -6.112  -0.006  0.00  0.00    +0.009 A 
ATOM     28  C   UNL     1      -3.238  -6.659  -0.002  0.00  0.00    -0.018 A 
ATOM     29  C   UNL     1      -4.348  -5.836   0.006  0.00  0.00    +0.055 A 
ATOM     30  C   UNL     1      -4.191  -4.460   0.018  0.00  0.00    +0.162 A 
BRANCH  25  31
ATOM     31  O   UNL     1      -2.753  -2.558   0.015  0.00  0.00    -0.488 OA
BRANCH  31  32
ATOM     32  C   UNL     1      -1.413  -2.063   0.004  0.00  0.00    +0.229 C 
BRANCH  32  33
ATOM     33  C   UNL     1      -1.433  -0.534   0.013  0.00  0.00    +0.041 C 
BRANCH  33  35
ATOM     34  C   UNL     1      -0.019   1.526   0.010  0.00  0.00    +0.004 C 
ATOM     35  C   UNL     1       0.002  -0.004   0.002  0.00  0.00    -0.000 C 
ENDBRANCH  33  35
ENDBRANCH  32  33
ENDBRANCH  31  32
ENDBRANCH  25  31
BRANCH  30  36
ATOM     36  O   UNL     1      -5.282  -3.649   0.033  0.00  0.00    -0.489 OA
BRANCH  36  37
ATOM     37  C   UNL     1      -6.562  -4.284   0.042  0.00  0.00    +0.226 C 
ATOM     38  C   UNL     1      -7.660  -3.219   0.058  0.00  0.00    +0.048 C 
ENDBRANCH  36  37
ENDBRANCH  30  36
ENDBRANCH   1  28
TORSDOF 7
