REMARK  Name = ZINC08552466
REMARK  6 active torsions:
REMARK  status: ('A' for Active; 'I' for Inactive)
REMARK    1  A    between atoms: C_1  and  C_2
REMARK    2  A    between atoms: C_2  and  C_4
REMARK    3  A    between atoms: C_10  and  C_31
REMARK    4  A    between atoms: C_18  and  O_30
REMARK    5  A    between atoms: C_22  and  C_29
REMARK    6  A    between atoms: C_25  and  O_28
REMARK                            x       y       z     vdW  Elec       q    Type
REMARK                         _______ _______ _______ _____ _____    ______ ____
ROOT
ATOM      1  C   UNL     1      -0.187   1.208   2.606  0.00  0.00    +0.061 C 
ATOM      2  C   UNL     1      -0.752  -0.164   3.054  0.00  0.00    +0.012 C 
ATOM      3  C   UNL     1      -1.715   0.117   4.238  0.00  0.00    +0.005 C 
ATOM      4  C   UNL     1      -2.028   1.614   4.093  0.00  0.00    -0.001 C 
ATOM      5  C   UNL     1      -0.653   2.191   3.683  0.00  0.00    -0.019 C 
ATOM      6  C   UNL     1      -0.845   3.630   3.274  0.00  0.00    +0.008 C 
ATOM      7  C   UNL     1      -1.429   4.433   4.438  0.00  0.00    +0.005 C 
ATOM      8  C   UNL     1      -2.635   3.809   5.124  0.00  0.00    -0.001 C 
ATOM      9  C   UNL     1      -2.514   2.312   5.337  0.00  0.00    -0.001 C 
ATOM     10  C   UNL     1      -3.785   1.664   5.875  0.00  0.00    +0.035 C 
ATOM     11  C   UNL     1      -5.012   2.100   5.075  0.00  0.00    +0.119 C 
ATOM     12  C   UNL     1      -5.128   3.619   5.193  0.00  0.00    +0.026 C 
ATOM     13  C   UNL     1      -3.941   4.283   4.496  0.00  0.00    -0.024 C 
ATOM     14  C   UNL     1      -4.060   5.802   4.705  0.00  0.00    +0.010 C 
ATOM     15  C   UNL     1      -5.382   6.327   4.155  0.00  0.00    +0.032 C 
ATOM     16  C   UNL     1      -6.565   5.621   4.813  0.00  0.00    +0.115 C 
ATOM     17  C   UNL     1      -6.450   4.108   4.614  0.00  0.00    +0.038 C 
ATOM     18  C   UNL     1      -3.980   3.998   2.997  0.00  0.00    +0.012 C 
ATOM     19  C   UNL     1       0.354   2.117   4.838  0.00  0.00    +0.012 C 
ENDROOT
BRANCH   1  21
ATOM     20  C   UNL     1      -0.013   1.086   0.008  0.00  0.00    +0.086 C 
ATOM     21  C   UNL     1      -0.718   1.572   1.248  0.00  0.00    +0.134 C 
ATOM     22  O   UNL     1      -1.710   2.253   1.150  0.00  0.00    -0.297 OA
ENDBRANCH   1  21
BRANCH  16  23
ATOM     23  O   UNL     1      -6.588   5.918   6.211  0.00  0.00    -0.392 OA
ATOM     24  H   UNL     1      -6.673   6.861   6.411  0.00  0.00    +0.210 HD
ENDBRANCH  16  23
BRANCH  11  25
ATOM     25  O   UNL     1      -6.179   1.488   5.635  0.00  0.00    -0.391 OA
ATOM     26  H   UNL     1      -6.158   0.521   5.627  0.00  0.00    +0.210 HD
ENDBRANCH  11  25
TORSDOF 3
