REMARK  Name = ZINC35433325
REMARK  3 active torsions:
REMARK  status: ('A' for Active; 'I' for Inactive)
REMARK    1  A    between atoms: C_8  and  N_15
REMARK    2  A    between atoms: C_9  and  C_10
REMARK    3  A    between atoms: C_11  and  C_12
REMARK                            x       y       z     vdW  Elec       q    Type
REMARK                         _______ _______ _______ _____ _____    ______ ____
ROOT
ATOM      1  C   UNL     1      -0.016   1.359   0.009  0.00  0.00    +0.005 A 
ATOM      2  C   UNL     1       1.192   2.069   0.002  0.00  0.00    +0.018 A 
ATOM      3  C   UNL     1       2.370   1.403  -0.013  0.00  0.00    +0.093 A 
ATOM      4  N   UNL     1       2.397   0.043  -0.021  0.00  0.00    -0.298 N 
ATOM      5  C   UNL     1       1.236  -0.677  -0.013  0.00  0.00    +0.140 A 
ATOM      6  C   UNL     1       0.002  -0.004   0.002  0.00  0.00    +0.047 A 
ATOM      7  N   UNL     1       1.539  -1.976  -0.023  0.00  0.00    -0.214 NA
ATOM      8  C   UNL     1       2.851  -2.131  -0.037  0.00  0.00    +0.132 A 
ATOM      9  C   UNL     1       3.437  -0.870  -0.036  0.00  0.00    +0.087 A 
ENDROOT
BRANCH   8  10
ATOM     10  N   UNL     1       3.532  -3.352  -0.050  0.00  0.00    -0.378 NA
ATOM     11  C   UNL     1       3.212  -4.060  -1.305  0.00  0.00    +0.086 C 
ATOM     12  C   UNL     1       4.338  -5.016  -1.609  0.00  0.00    +0.017 C 
ATOM     13  C   UNL     1       4.024  -6.436  -1.103  0.00  0.00    +0.002 C 
ATOM     14  C   UNL     1       3.348  -6.413   0.283  0.00  0.00    +0.002 C 
ATOM     15  C   UNL     1       3.967  -5.396   1.207  0.00  0.00    +0.017 C 
ATOM     16  C   UNL     1       3.184  -4.071   1.095  0.00  0.00    +0.086 C 
ATOM     17  H   UNL     1       4.524  -3.169  -0.027  0.00  0.00    +0.128 HD
ENDBRANCH   8  10
BRANCH   9  18
ATOM     18  C   UNL     1       4.814  -0.579  -0.048  0.00  0.00    +0.037 C 
ATOM     19  C   UNL     1       5.316   0.311  -0.954  0.00  0.00    +0.098 C 
BRANCH  19  20
ATOM     20  C   UNL     1       6.688   0.600  -0.966  0.00  0.00    +0.380 C 
ATOM     21  O   UNL     1       7.503   0.006  -0.092  0.00  0.00    -0.241 OA
ATOM     22  O   UNL     1       7.179   1.470  -1.851  0.00  0.00    -0.241 OA
ENDBRANCH  19  20
ENDBRANCH   9  18
TORSDOF 3
