REMARK  Name = ZINC09554159
REMARK  5 active torsions:
REMARK  status: ('A' for Active; 'I' for Inactive)
REMARK    1  A    between atoms: C_4  and  C_7
REMARK    2  A    between atoms: C_12  and  C_30
REMARK    3  A    between atoms: C_18  and  C_22
REMARK    4  A    between atoms: C_22  and  C_24
REMARK    5  A    between atoms: C_34  and  N_36
REMARK                            x       y       z     vdW  Elec       q    Type
REMARK                         _______ _______ _______ _____ _____    ______ ____
ROOT
ATOM      1  C   UNL     1      -4.487  -2.122  -0.906  0.00  0.00    +0.032 C 
ATOM      2  C   UNL     1      -4.022  -1.527   0.422  0.00  0.00    +0.059 C 
ATOM      3  C   UNL     1      -2.507  -1.594   0.517  0.00  0.00    +0.017 C 
ATOM      4  C   UNL     1      -1.832  -2.603  -0.061  0.00  0.00    +0.036 C 
ATOM      5  C   UNL     1      -0.334  -2.792  -0.040  0.00  0.00    +0.136 C 
ATOM      6  N   UNL     1       0.368  -1.931   0.887  0.00  0.00    -0.331 N 
ATOM      7  C   UNL     1       0.381  -0.555   0.715  0.00  0.00    +0.049 A 
ATOM      8  C   UNL     1       1.555   0.122   0.406  0.00  0.00    +0.025 A 
ATOM      9  C   UNL     1       1.517   1.479   0.166  0.00  0.00    +0.013 A 
ATOM     10  C   UNL     1       0.305   2.174   0.240  0.00  0.00    +0.024 A 
ATOM     11  C   UNL     1      -0.872   1.494   0.579  0.00  0.00    +0.036 A 
ATOM     12  C   UNL     1      -0.820   0.138   0.822  0.00  0.00    +0.053 A 
ATOM     13  N   UNL     1      -1.936  -0.587   1.226  0.00  0.00    -0.316 N 
ATOM     14  C   UNL     1      -2.526  -3.605  -0.779  0.00  0.00    +0.163 C 
ATOM     15  O   UNL     1      -1.893  -4.519  -1.271  0.00  0.00    -0.292 OA
ATOM     16  C   UNL     1      -4.014  -3.579  -0.956  0.00  0.00    +0.088 C 
ATOM     17  H   UNL     1       0.837  -2.322   1.640  0.00  0.00    +0.147 HD
ATOM     18  H   UNL     1      -2.337  -0.355   2.078  0.00  0.00    +0.152 HD
ENDROOT
BRANCH   1  22
ATOM     19  C   UNL     1      -8.750  -1.970  -1.145  0.00  0.00    +0.000 A 
ATOM     20  C   UNL     1      -7.981  -1.313  -2.087  0.00  0.00    +0.000 A 
ATOM     21  C   UNL     1      -6.602  -1.362  -2.010  0.00  0.00    +0.004 A 
ATOM     22  C   UNL     1      -5.991  -2.068  -0.990  0.00  0.00    -0.044 A 
ATOM     23  C   UNL     1      -6.760  -2.730  -0.051  0.00  0.00    +0.004 A 
ATOM     24  C   UNL     1      -8.139  -2.677  -0.126  0.00  0.00    +0.000 A 
ENDBRANCH   1  22
BRANCH   5  25
ATOM     25  C   UNL     1       0.199  -2.532  -1.426  0.00  0.00    -0.021 A 
ATOM     26  C   UNL     1       0.066  -1.278  -1.993  0.00  0.00    +0.006 A 
ATOM     27  C   UNL     1       0.559  -1.038  -3.262  0.00  0.00    +0.003 A 
ATOM     28  C   UNL     1       1.177  -2.055  -3.967  0.00  0.00    +0.033 A 
ATOM     29  C   UNL     1       1.304  -3.309  -3.402  0.00  0.00    +0.127 A 
ATOM     30  C   UNL     1       0.816  -3.548  -2.131  0.00  0.00    +0.038 A 
BRANCH  29  31
ATOM     31  N   UNL     1       1.965  -4.398  -4.157  0.00  0.00    +0.056 N 
ATOM     32  O   UNL     1       2.078  -5.503  -3.659  0.00  0.00    -0.126 OA
ATOM     33  O   UNL     1       2.395  -4.188  -5.277  0.00  0.00    -0.126 OA
ENDBRANCH  29  31
ENDBRANCH   5  25
BRANCH  10  34
ATOM     34  C   UNL     1       0.266   3.621  -0.038  0.00  0.00    +0.193 C 
ATOM     35  O   UNL     1       1.191   4.332   0.307  0.00  0.00    -0.287 OA
BRANCH  34  36
ATOM     36  C   UNL     1      -0.896   4.208  -0.737  0.00  0.00    +0.022 A 
ATOM     37  C   UNL     1      -1.882   3.380  -1.276  0.00  0.00    +0.012 A 
ATOM     38  C   UNL     1      -2.967   3.935  -1.924  0.00  0.00    +0.001 A 
ATOM     39  C   UNL     1      -3.073   5.309  -2.048  0.00  0.00    +0.000 A 
ATOM     40  C   UNL     1      -2.097   6.136  -1.521  0.00  0.00    +0.001 A 
ATOM     41  C   UNL     1      -1.010   5.594  -0.867  0.00  0.00    +0.012 A 
ENDBRANCH  34  36
ENDBRANCH  10  34
TORSDOF 5
