REMARK  Name = ZINC16690146
REMARK  8 active torsions:
REMARK  status: ('A' for Active; 'I' for Inactive)
REMARK    1  A    between atoms: C_1  and  C_2
REMARK    2  A    between atoms: C_2  and  C_3
REMARK    3  A    between atoms: C_8  and  O_30
REMARK    4  A    between atoms: C_9  and  C_11
REMARK    5  A    between atoms: C_11  and  C_13
REMARK    6  A    between atoms: C_11  and  N_20
REMARK    7  A    between atoms: C_22  and  C_29
REMARK    8  A    between atoms: C_25  and  C_28
REMARK                            x       y       z     vdW  Elec       q    Type
REMARK                         _______ _______ _______ _____ _____    ______ ____
ROOT
ATOM      1  C   UNL     1      -1.293  -0.775   0.010  0.00  0.00    +0.130 C 
ENDROOT
BRANCH   1   8
ATOM      2  C   UNL     1      -2.830  -2.126  -5.591  0.00  0.00    +0.152 A 
ATOM      3  N   UNL     1      -1.893  -2.873  -5.011  0.00  0.00    -0.205 NA
ATOM      4  C   UNL     1      -1.684  -2.438  -3.798  0.00  0.00    +0.199 A 
ATOM      5  N   UNL     1      -2.497  -1.374  -3.548  0.00  0.00    -0.173 N 
ATOM      6  N   UNL     1      -3.229  -1.207  -4.753  0.00  0.00    -0.147 NA
ATOM      7  C   UNL     1      -2.410  -0.794  -2.305  0.00  0.00    +0.228 A 
ATOM      8  C   UNL     1      -1.549  -1.261  -1.394  0.00  0.00    +0.076 A 
ATOM      9  S   UNL     1      -0.787  -2.616  -2.275  0.00  0.00    -0.047 S 
BRANCH   2  11
ATOM     10  C   UNL     1      -2.506  -1.480  -7.963  0.00  0.00    +0.012 C 
ATOM     11  C   UNL     1      -3.349  -2.311  -6.994  0.00  0.00    +0.075 C 
ENDBRANCH   2  11
BRANCH   7  12
ATOM     12  O   UNL     1      -3.204   0.267  -2.000  0.00  0.00    -0.492 OA
ATOM     13  H   UNL     1      -3.139   0.736  -1.007  0.00  0.00    +0.294 HD
ENDBRANCH   7  12
ENDBRANCH   1   8
BRANCH   1  14
ATOM     14  N   UNL     1      -1.262  -1.922   0.927  0.00  0.00    -0.286 NA
ATOM     15  C   UNL     1      -2.515  -2.689   0.853  0.00  0.00    +0.116 C 
ATOM     16  C   UNL     1      -2.417  -3.905   1.778  0.00  0.00    +0.130 C 
ATOM     17  O   UNL     1      -2.130  -3.465   3.108  0.00  0.00    -0.371 OA
ATOM     18  C   UNL     1      -0.916  -2.715   3.216  0.00  0.00    +0.130 C 
ATOM     19  C   UNL     1      -0.999  -1.487   2.306  0.00  0.00    +0.116 C 
ATOM     20  C   UNL     1       0.264  -3.590   2.789  0.00  0.00    +0.039 C 
ATOM     21  C   UNL     1      -3.746  -4.663   1.767  0.00  0.00    +0.039 C 
ENDBRANCH   1  14
BRANCH   1  22
ATOM     22  C   UNL     1       0.031  -0.057   0.059  0.00  0.00    -0.024 A 
ATOM     23  C   UNL     1       1.210  -0.777   0.004  0.00  0.00    +0.005 A 
ATOM     24  C   UNL     1       2.425  -0.120   0.049  0.00  0.00    +0.002 A 
ATOM     25  C   UNL     1       2.462   1.259   0.149  0.00  0.00    +0.020 A 
ATOM     26  C   UNL     1       1.283   1.980   0.204  0.00  0.00    +0.041 A 
ATOM     27  C   UNL     1       0.067   1.321   0.159  0.00  0.00    +0.025 A 
ATOM     28 CL   UNL     1       1.328   3.711   0.329  0.00  0.00    -0.084 Cl
ENDBRANCH   1  22
TORSDOF 5
