REMARK  Name = ZINC35334674
REMARK  7 active torsions:
REMARK  status: ('A' for Active; 'I' for Inactive)
REMARK    1  A    between atoms: C_1  and  C_2
REMARK    2  A    between atoms: C_5  and  C_33
REMARK    3  A    between atoms: C_6  and  N_8
REMARK    4  A    between atoms: C_9  and  C_11
REMARK    5  A    between atoms: N_16  and  S_17
REMARK    6  A    between atoms: S_17  and  C_20
REMARK    7  A    between atoms: C_29  and  C_32
REMARK                            x       y       z     vdW  Elec       q    Type
REMARK                         _______ _______ _______ _____ _____    ______ ____
ROOT
ATOM      1  C   UNL     1       0.302  -2.917   4.863  0.00  0.00    +0.166 C 
ATOM      2  C   UNL     1      -0.893  -3.882   5.011  0.00  0.00    +0.031 C 
ATOM      3  C   UNL     1      -1.236  -3.781   6.521  0.00  0.00    +0.019 C 
ATOM      4  C   UNL     1      -0.942  -2.288   6.808  0.00  0.00    +0.110 C 
ATOM      5  N   UNL     1       0.246  -1.972   5.988  0.00  0.00    -0.165 NA
ENDROOT
BRANCH   1   7
ATOM      6  N   UNL     1       0.684  -2.717   2.428  0.00  0.00    -0.284 N 
ATOM      7  C   UNL     1       0.199  -2.169   3.559  0.00  0.00    +0.236 C 
ATOM      8  O   UNL     1      -0.321  -1.074   3.528  0.00  0.00    -0.274 OA
ATOM      9  H   UNL     1       1.036  -3.621   2.438  0.00  0.00    +0.155 HD
BRANCH   6  15
ATOM     10  C   UNL     1       0.478   1.628   0.137  0.00  0.00    +0.044 C 
ATOM     11  C   UNL     1       0.581   0.125   0.097  0.00  0.00    -0.049 A 
ATOM     12  C   UNL     1       0.671  -0.530  -1.118  0.00  0.00    +0.004 A 
ATOM     13  C   UNL     1       0.765  -1.909  -1.159  0.00  0.00    +0.005 A 
ATOM     14  C   UNL     1       0.770  -2.637   0.015  0.00  0.00    -0.029 A 
ATOM     15  C   UNL     1       0.680  -1.983   1.237  0.00  0.00    +0.037 A 
ATOM     16  C   UNL     1       0.590  -0.597   1.274  0.00  0.00    +0.027 A 
ATOM     17  C   UNL     1       0.873  -4.140  -0.030  0.00  0.00    +0.045 C 
ENDBRANCH   6  15
ENDBRANCH   1   7
BRANCH   5  18
ATOM     18  S   UNL     1       1.333  -0.758   6.284  0.00  0.00    +0.062 S 
ATOM     19  O   UNL     1       2.002  -0.504   5.056  0.00  0.00    -0.153 OA
ATOM     20  O   UNL     1       0.629   0.254   6.991  0.00  0.00    -0.153 OA
BRANCH  18  21
ATOM     21  C   UNL     1       2.541  -1.400   7.393  0.00  0.00    +0.107 A 
ATOM     22  C   UNL     1       2.305  -1.381   8.756  0.00  0.00    +0.032 A 
ATOM     23  C   UNL     1       3.249  -1.884   9.633  0.00  0.00    +0.049 A 
ATOM     24  C   UNL     1       4.434  -2.408   9.146  0.00  0.00    +0.143 A 
ATOM     25  C   UNL     1       4.672  -2.425   7.773  0.00  0.00    +0.078 A 
ATOM     26  C   UNL     1       3.721  -1.926   6.899  0.00  0.00    +0.055 A 
ATOM     27  N   UNL     1       5.878  -2.956   7.293  0.00  0.00    -0.279 N 
ATOM     28  C   UNL     1       6.633  -3.714   8.118  0.00  0.00    +0.258 C 
ATOM     29  O   UNL     1       7.695  -4.158   7.734  0.00  0.00    -0.271 OA
ATOM     30  C   UNL     1       6.152  -4.006   9.516  0.00  0.00    +0.256 C 
ATOM     31  O   UNL     1       5.372  -2.907   9.995  0.00  0.00    -0.478 OA
ATOM     32  C   UNL     1       5.293  -5.272   9.505  0.00  0.00    +0.062 C 
ATOM     33  H   UNL     1       6.165  -2.782   6.383  0.00  0.00    +0.155 HD
ENDBRANCH  18  21
ENDBRANCH   5  18
TORSDOF 4
