REMARK  Name = ZINC59402883
REMARK  11 active torsions:
REMARK  status: ('A' for Active; 'I' for Inactive)
REMARK    1  A    between atoms: C_4  and  C_7
REMARK    2  A    between atoms: C_7  and  N_8
REMARK    3  A    between atoms: C_9  and  N_36
REMARK    4  A    between atoms: C_10  and  N_17
REMARK    5  A    between atoms: N_17  and  C_18
REMARK    6  A    between atoms: N_17  and  C_29
REMARK    7  A    between atoms: C_18  and  C_19
REMARK    8  A    between atoms: C_19  and  O_20
REMARK    9  A    between atoms: O_20  and  C_21
REMARK   10  A    between atoms: C_25  and  C_27
REMARK   11  A    between atoms: C_29  and  C_30
REMARK                            x       y       z     vdW  Elec       q    Type
REMARK                         _______ _______ _______ _____ _____    ______ ____
ROOT
ATOM      1  N   UNL     1       4.779  -1.637   1.481  0.00  0.00    -0.276 N 
ATOM      2  C   UNL     1       5.673  -0.800   2.111  0.00  0.00    +0.127 A 
ATOM      3  C   UNL     1       5.305  -0.179   3.273  0.00  0.00    +0.134 A 
ATOM      4  C   UNL     1       4.021  -0.413   3.796  0.00  0.00    +0.277 A 
ATOM      5  O   UNL     1       3.671   0.129   4.830  0.00  0.00    -0.266 OA
ATOM      6  N   UNL     1       3.179  -1.240   3.146  0.00  0.00    -0.273 N 
ATOM      7  H   UNL     1       2.292  -1.403   3.504  0.00  0.00    +0.173 HD
ATOM      8  C   UNL     1       3.554  -1.839   2.001  0.00  0.00    +0.331 A 
ATOM      9  O   UNL     1       2.776  -2.578   1.429  0.00  0.00    -0.246 OA
ENDROOT
BRANCH   2  10
ATOM     10  N   UNL     1       6.923  -0.590   1.576  0.00  0.00    -0.343 N 
ATOM     11  H   UNL     1       7.206  -1.089   0.794  0.00  0.00    +0.144 HD
ATOM     12  H   UNL     1       7.522   0.057   1.981  0.00  0.00    +0.144 HD
ENDBRANCH   2  10
BRANCH   1  13
ATOM     13  C   UNL     1       5.162  -2.306   0.236  0.00  0.00    +0.163 C 
BRANCH  13  17
ATOM     14  C   UNL     1       4.122   0.166  -3.090  0.00  0.00    +0.000 A 
ATOM     15  C   UNL     1       5.367   0.287  -2.500  0.00  0.00    +0.000 A 
ATOM     16  C   UNL     1       5.703  -0.512  -1.424  0.00  0.00    +0.005 A 
ATOM     17  C   UNL     1       4.795  -1.433  -0.937  0.00  0.00    -0.028 A 
ATOM     18  C   UNL     1       3.550  -1.554  -1.526  0.00  0.00    +0.005 A 
ATOM     19  C   UNL     1       3.214  -0.755  -2.603  0.00  0.00    +0.000 A 
ENDBRANCH  13  17
ENDBRANCH   1  13
BRANCH   3  20
ATOM     20  N   UNL     1       6.205   0.685   3.940  0.00  0.00    -0.316 N 
BRANCH  20  21
ATOM     21  C   UNL     1       6.604   1.950   3.317  0.00  0.00    +0.146 C 
BRANCH  21  22
ATOM     22  C   UNL     1       5.653   3.062   3.763  0.00  0.00    +0.248 C 
BRANCH  22  23
ATOM     23  O   UNL     1       5.793   3.273   5.170  0.00  0.00    -0.490 OA
BRANCH  23  24
ATOM     24  C   UNL     1       5.013   4.234   5.730  0.00  0.00    +0.122 A 
ATOM     25  C   UNL     1       4.126   4.955   4.941  0.00  0.00    +0.046 A 
ATOM     26  C   UNL     1       3.329   5.934   5.506  0.00  0.00    +0.005 A 
ATOM     27  C   UNL     1       3.410   6.201   6.857  0.00  0.00    +0.019 A 
ATOM     28  C   UNL     1       4.299   5.482   7.658  0.00  0.00    +0.055 A 
ATOM     29  C   UNL     1       5.098   4.490   7.088  0.00  0.00    +0.064 A 
BRANCH  28  30
ATOM     30  C   UNL     1       4.386   5.756   9.061  0.00  0.00    +0.099 C 
ATOM     31  N   UNL     1       4.455   5.974  10.174  0.00  0.00    -0.191 NA
ENDBRANCH  28  30
ENDBRANCH  23  24
ENDBRANCH  22  23
ENDBRANCH  21  22
ENDBRANCH  20  21
BRANCH  20  32
ATOM     32  C   UNL     1       6.736   0.317   5.255  0.00  0.00    +0.140 C 
BRANCH  32  33
ATOM     33  C   UNL     1       7.948  -0.562   5.078  0.00  0.00    -0.030 A 
ATOM     34  C   UNL     1       7.795  -1.927   4.924  0.00  0.00    +0.005 A 
ATOM     35  C   UNL     1       8.906  -2.734   4.762  0.00  0.00    +0.000 A 
ATOM     36  C   UNL     1      10.170  -2.175   4.753  0.00  0.00    +0.000 A 
ATOM     37  C   UNL     1      10.323  -0.809   4.906  0.00  0.00    +0.000 A 
ATOM     38  C   UNL     1       9.212  -0.003   5.064  0.00  0.00    +0.005 A 
ENDBRANCH  32  33
ENDBRANCH  20  32
ENDBRANCH   3  20
TORSDOF 11
