REMARK  Name = ZINC39672915
REMARK  6 active torsions:
REMARK  status: ('A' for Active; 'I' for Inactive)
REMARK    1  A    between atoms: C_1  and  C_2
REMARK    2  A    between atoms: C_7  and  C_8
REMARK    3  A    between atoms: C_12  and  C_21
REMARK    4  A    between atoms: N_23  and  C_24
REMARK    5  A    between atoms: C_24  and  C_25
REMARK    6  A    between atoms: C_25  and  N_31
REMARK                            x       y       z     vdW  Elec       q    Type
REMARK                         _______ _______ _______ _____ _____    ______ ____
ROOT
ATOM      1  C   UNL     1       1.378   1.584   2.788  0.00  0.00    +0.247 C 
ATOM      2  O   UNL     1       1.407   2.718   3.223  0.00  0.00    -0.270 OA
ATOM      3  N   UNL     1       1.268   0.540   3.634  0.00  0.00    -0.296 N 
ATOM      4  C   UNL     1       1.270  -0.904   3.300  0.00  0.00    +0.121 C 
ATOM      5  C   UNL     1       2.091  -1.564   4.431  0.00  0.00    +0.100 C 
ATOM      6  C   UNL     1       1.985  -0.588   5.614  0.00  0.00    -0.004 C 
ATOM      7  C   UNL     1       1.123   0.578   5.109  0.00  0.00    +0.115 C 
ATOM      8  C   UNL     1       3.369  -0.081   6.007  0.00  0.00    -0.010 C 
ATOM      9  C   UNL     1       3.243   0.843   7.222  0.00  0.00    -0.082 C 
ATOM     10  N   UNL     1       2.635   0.107   8.337  0.00  0.00    +0.379 N 
ATOM     11  C   UNL     1       1.268  -0.297   7.985  0.00  0.00    -0.082 C 
ATOM     12  C   UNL     1       1.311  -1.269   6.802  0.00  0.00    -0.010 C 
ATOM     13  H   UNL     1       3.186  -0.714   8.537  0.00  0.00    -0.086 HD
ATOM     14  H   UNL     1       2.609   0.699   9.154  0.00  0.00    -0.086 HD
ENDROOT
BRANCH   1  21
ATOM     15  C   UNL     1       2.395   3.669   1.060  0.00  0.00    +0.044 C 
ATOM     16  C   UNL     1       1.953   2.347   0.488  0.00  0.00    -0.038 A 
ATOM     17  C   UNL     1       2.037   2.120  -0.871  0.00  0.00    +0.007 A 
ATOM     18  C   UNL     1       1.632   0.908  -1.399  0.00  0.00    +0.038 A 
ATOM     19  C   UNL     1       1.141  -0.087  -0.569  0.00  0.00    +0.124 A 
ATOM     20  C   UNL     1       1.052   0.128   0.793  0.00  0.00    +0.051 A 
ATOM     21  C   UNL     1       1.464   1.348   1.331  0.00  0.00    +0.043 A 
ATOM     22  F   UNL     1       0.747  -1.269  -1.092  0.00  0.00    -0.205 F 
ENDBRANCH   1  21
BRANCH   5  23
ATOM     23  C   UNL     1       3.529  -1.726   4.009  0.00  0.00    +0.218 C 
ATOM     24  O   UNL     1       4.007  -0.977   3.183  0.00  0.00    -0.275 OA
ATOM     25  N   UNL     1       4.284  -2.703   4.550  0.00  0.00    -0.313 N 
ATOM     26  H   UNL     1       3.884  -3.346   5.156  0.00  0.00    +0.149 HD
BRANCH  25  27
ATOM     27  C   UNL     1       5.709  -2.793   4.223  0.00  0.00    +0.126 C 
BRANCH  27  28
ATOM     28  C   UNL     1       6.278  -4.100   4.779  0.00  0.00    +0.038 C 
ATOM     29  C   UNL     1       6.038  -4.158   6.289  0.00  0.00    +0.024 C 
ATOM     30  C   UNL     1       6.731  -2.972   6.963  0.00  0.00    +0.002 C 
ATOM     31  C   UNL     1       8.234  -3.034   6.683  0.00  0.00    +0.000 C 
ATOM     32  C   UNL     1       8.475  -2.975   5.173  0.00  0.00    +0.002 C 
ATOM     33  C   UNL     1       7.781  -4.161   4.500  0.00  0.00    +0.024 C 
BRANCH  28  34
ATOM     34  N   UNL     1       5.613  -5.239   4.133  0.00  0.00    -0.291 NA
ATOM     35  C   UNL     1       5.807  -5.204   2.676  0.00  0.00    +0.113 C 
ATOM     36  C   UNL     1       5.150  -6.438   2.050  0.00  0.00    +0.175 C 
ATOM     37  O   UNL     1       3.767  -6.470   2.412  0.00  0.00    -0.377 OA
ATOM     38  C   UNL     1       3.541  -6.504   3.823  0.00  0.00    +0.175 C 
ATOM     39  C   UNL     1       4.182  -5.272   4.467  0.00  0.00    +0.113 C 
ENDBRANCH  28  34
ENDBRANCH  27  28
ENDBRANCH  25  27
ENDBRANCH   5  23
TORSDOF 5
