REMARK  Name = ZINC00734105
REMARK  6 active torsions:
REMARK  status: ('A' for Active; 'I' for Inactive)
REMARK    1  A    between atoms: C_1  and  C_2
REMARK    2  A    between atoms: C_9  and  C_11
REMARK    3  A    between atoms: C_21  and  S_23
REMARK    4  A    between atoms: S_23  and  C_24
REMARK    5  A    between atoms: C_24  and  C_25
REMARK    6  A    between atoms: C_30  and  C_33
REMARK                            x       y       z     vdW  Elec       q    Type
REMARK                         _______ _______ _______ _____ _____    ______ ____
ROOT
ATOM      1  C   UNL     1      -1.334   5.083   0.137  0.00  0.00    +0.029 C 
ATOM      2  C   UNL     1      -1.635   3.589   0.005  0.00  0.00    +0.090 C 
ATOM      3  C   UNL     1      -1.095   2.845   1.232  0.00  0.00    +0.128 C 
ATOM      4  N   UNL     1      -1.248   1.398   1.029  0.00  0.00    -0.312 N 
ATOM      5  C   UNL     1      -0.451   0.933  -0.114  0.00  0.00    +0.125 C 
ATOM      6  C   UNL     1      -0.964   1.598  -1.395  0.00  0.00    +0.127 C 
ATOM      7  N   UNL     1      -0.972   3.055  -1.194  0.00  0.00    -0.295 N 
ATOM      8  C   UNL     1      -0.386   3.880  -2.085  0.00  0.00    +0.219 C 
ATOM      9  O   UNL     1      -0.464   5.082  -1.942  0.00  0.00    -0.275 OA
ATOM     10  C   UNL     1      -0.921   0.698   2.180  0.00  0.00    +0.127 A 
ATOM     11  C   UNL     1       0.399   0.655   2.632  0.00  0.00    +0.083 A 
ATOM     12  C   UNL     1       0.678  -0.051   3.788  0.00  0.00    +0.135 A 
ATOM     13  N   UNL     1      -0.308  -0.670   4.422  0.00  0.00    -0.210 NA
ATOM     14  C   UNL     1      -1.551  -0.616   3.967  0.00  0.00    +0.192 A 
ATOM     15  N   UNL     1      -1.860   0.054   2.866  0.00  0.00    -0.207 NA
ATOM     16 CL   UNL     1       2.302  -0.131   4.397  0.00  0.00    -0.062 Cl
ENDROOT
BRANCH   8  17
ATOM     17  C   UNL     1       0.366   3.308  -3.259  0.00  0.00    +0.075 C 
ATOM     18  C   UNL     1       1.578   2.522  -2.755  0.00  0.00    +0.013 C 
ATOM     19  C   UNL     1       2.342   1.942  -3.947  0.00  0.00    +0.001 C 
ATOM     20  C   UNL     1       2.814   3.080  -4.853  0.00  0.00    +0.000 C 
ATOM     21  C   UNL     1       1.602   3.866  -5.358  0.00  0.00    +0.001 C 
ATOM     22  C   UNL     1       0.838   4.447  -4.166  0.00  0.00    +0.013 C 
ENDBRANCH   8  17
BRANCH  14  23
ATOM     23  S   UNL     1      -2.825  -1.457   4.846  0.00  0.00    -0.077 S 
BRANCH  23  24
ATOM     24  C   UNL     1      -1.858  -2.164   6.202  0.00  0.00    +0.173 C 
BRANCH  24  25
ATOM     25  C   UNL     1      -2.767  -2.951   7.111  0.00  0.00    +0.226 C 
ATOM     26  O   UNL     1      -3.952  -3.026   6.867  0.00  0.00    -0.275 OA
ATOM     27  N   UNL     1      -2.262  -3.571   8.196  0.00  0.00    -0.301 N 
ATOM     28  C   UNL     1      -0.827  -3.495   8.503  0.00  0.00    +0.108 C 
ATOM     29  C   UNL     1      -0.278  -4.911   8.669  0.00  0.00    +0.032 C 
ATOM     30  C   UNL     1      -1.106  -5.657   9.718  0.00  0.00    +0.078 C 
ATOM     31  C   UNL     1      -2.559  -5.753   9.249  0.00  0.00    +0.032 C 
ATOM     32  C   UNL     1      -3.135  -4.342   9.092  0.00  0.00    +0.108 C 
BRANCH  30  33
ATOM     33  C   UNL     1      -0.546  -7.043   9.906  0.00  0.00    +0.214 C 
ATOM     34  O   UNL     1      -1.241  -8.013   9.686  0.00  0.00    -0.276 OA
ATOM     35  N   UNL     1       0.727  -7.206  10.318  0.00  0.00    -0.329 N 
ATOM     36  H   UNL     1       1.135  -8.218  10.456  0.00  0.00    +0.145 HD
ATOM     37  H   UNL     1       1.357  -6.327  10.517  0.00  0.00    +0.145 HD
ENDBRANCH  30  33
ENDBRANCH  24  25
ENDBRANCH  23  24
ENDBRANCH  14  23
TORSDOF 5
