REMARK  Name = ZINC14992644
REMARK  9 active torsions:
REMARK  status: ('A' for Active; 'I' for Inactive)
REMARK    1  A    between atoms: C_1  and  C_2
REMARK    2  A    between atoms: C_2  and  O_3
REMARK    3  A    between atoms: O_3  and  C_4
REMARK    4  A    between atoms: C_4  and  C_6
REMARK    5  A    between atoms: C_14  and  C_24
REMARK    6  A    between atoms: C_24  and  N_25
REMARK    7  A    between atoms: N_25  and  C_26
REMARK    8  A    between atoms: C_26  and  C_27
REMARK    9  A    between atoms: C_27  and  O_33
REMARK                            x       y       z     vdW  Elec       q    Type
REMARK                         _______ _______ _______ _____ _____    ______ ____
ROOT
ATOM      1  C   UNL     1      -6.311  -0.552  -0.607  0.00  0.00    +0.115 C 
ATOM      2  C   UNL     1      -6.355  -1.323   0.715  0.00  0.00    +0.018 C 
ATOM      3  C   UNL     1      -6.069  -0.358   1.869  0.00  0.00    +0.020 C 
ATOM      4  C   UNL     1      -4.707   0.305   1.648  0.00  0.00    +0.106 C 
ATOM      5  N   UNL     1      -4.716   1.030   0.371  0.00  0.00    -0.314 N 
ATOM      6  C   UNL     1      -4.942   0.117  -0.756  0.00  0.00    +0.121 C 
ATOM      7  C   UNL     1      -3.544   1.750   0.200  0.00  0.00    +0.123 A 
ATOM      8  C   UNL     1      -3.611   3.144   0.058  0.00  0.00    -0.024 A 
ATOM      9  C   UNL     1      -2.466   3.865  -0.098  0.00  0.00    +0.015 A 
ATOM     10  C   UNL     1      -1.238   3.173  -0.131  0.00  0.00    +0.001 A 
ATOM     11  C   UNL     1      -0.023   3.853  -0.307  0.00  0.00    +0.011 A 
ATOM     12  C   UNL     1       1.144   3.151  -0.333  0.00  0.00    +0.021 A 
ATOM     13  C   UNL     1       1.148   1.765  -0.187  0.00  0.00    +0.043 A 
ATOM     14  C   UNL     1      -0.014   1.074  -0.015  0.00  0.00    +0.048 A 
ATOM     15  C   UNL     1      -1.238   1.764   0.012  0.00  0.00    +0.074 A 
ATOM     16  N   UNL     1      -2.393   1.109   0.175  0.00  0.00    -0.232 NA
ATOM     17 CL   UNL     1       2.656   0.906  -0.225  0.00  0.00    -0.083 Cl
ENDROOT
BRANCH   1  18
ATOM     18  C   UNL     1      -6.533  -1.505  -1.753  0.00  0.00    +0.312 C 
ATOM     19  O   UNL     1      -5.684  -1.636  -2.603  0.00  0.00    -0.250 OA
BRANCH  18  20
ATOM     20  O   UNL     1      -7.674  -2.207  -1.830  0.00  0.00    -0.465 OA
BRANCH  20  22
ATOM     21  C   UNL     1      -9.174  -3.814  -2.879  0.00  0.00    +0.048 C 
ATOM     22  C   UNL     1      -7.820  -3.106  -2.962  0.00  0.00    +0.229 C 
ENDBRANCH  20  22
ENDBRANCH  18  20
ENDBRANCH   1  18
BRANCH   8  23
ATOM     23  C   UNL     1      -4.945   3.843   0.091  0.00  0.00    -0.043 C 
BRANCH  23  24
ATOM     24  N   UNL     1      -5.415   3.934   1.480  0.00  0.00    +0.384 N 
ATOM     25  H   UNL     1      -5.520   2.923   1.899  0.00  0.00    -0.085 HD
ATOM     26  H   UNL     1      -4.687   4.504   2.077  0.00  0.00    -0.085 HD
BRANCH  24  27
ATOM     27  C   UNL     1      -6.716   4.612   1.552  0.00  0.00    -0.047 C 
BRANCH  27  28
ATOM     28  C   UNL     1      -7.172   4.688   3.011  0.00  0.00    +0.051 C 
ATOM     29  C   UNL     1      -7.181   3.283   3.616  0.00  0.00    +0.033 C 
ATOM     30  C   UNL     1      -7.637   3.359   5.075  0.00  0.00    +0.003 C 
ATOM     31  C   UNL     1      -9.046   3.951   5.138  0.00  0.00    +0.000 C 
ATOM     32  C   UNL     1      -9.037   5.356   4.533  0.00  0.00    +0.003 C 
ATOM     33  C   UNL     1      -8.581   5.280   3.075  0.00  0.00    +0.033 C 
BRANCH  28  34
ATOM     34  O   UNL     1      -6.273   5.518   3.748  0.00  0.00    -0.390 OA
ATOM     35  H   UNL     1      -6.439   5.692   4.821  0.00  0.00    +0.210 HD
ENDBRANCH  28  34
ENDBRANCH  27  28
ENDBRANCH  24  27
ENDBRANCH  23  24
ENDBRANCH   8  23
TORSDOF 8
