REMARK  Name = ZINC39686280
REMARK  7 active torsions:
REMARK  status: ('A' for Active; 'I' for Inactive)
REMARK    1  A    between atoms: C_1  and  C_2
REMARK    2  A    between atoms: C_2  and  C_3
REMARK    3  A    between atoms: C_2  and  C_4
REMARK    4  A    between atoms: C_4  and  C_5
REMARK    5  A    between atoms: C_10  and  N_13
REMARK    6  A    between atoms: C_14  and  C_16
REMARK    7  A    between atoms: C_27  and  C_29
REMARK                            x       y       z     vdW  Elec       q    Type
REMARK                         _______ _______ _______ _____ _____    ______ ____
ROOT
ATOM      1  C   UNL     1      -7.634  -6.412   3.060  0.00  0.00    +0.100 C 
ATOM      2  C   UNL     1      -6.544  -6.830   4.072  0.00  0.00    +0.121 C 
ATOM      3  N   UNL     1      -6.959  -8.174   4.536  0.00  0.00    -0.296 N 
ATOM      4  C   UNL     1      -7.476  -8.842   3.318  0.00  0.00    +0.115 C 
ATOM      5  C   UNL     1      -8.243  -7.735   2.567  0.00  0.00    -0.004 C 
ATOM      6  C   UNL     1      -8.041  -7.881   1.062  0.00  0.00    -0.010 C 
ATOM      7  C   UNL     1      -8.706  -9.176   0.586  0.00  0.00    -0.082 C 
ATOM      8  N   UNL     1     -10.138  -9.139   0.906  0.00  0.00    +0.379 N 
ATOM      9  C   UNL     1     -10.325  -9.092   2.361  0.00  0.00    -0.082 C 
ATOM     10  C   UNL     1      -9.728  -7.794   2.912  0.00  0.00    -0.010 C 
ATOM     11  C   UNL     1      -6.885  -8.677   5.785  0.00  0.00    +0.249 C 
ATOM     12  O   UNL     1      -7.181  -9.837   5.992  0.00  0.00    -0.270 OA
ATOM     13  H   UNL     1     -10.554  -8.320   0.488  0.00  0.00    -0.086 HD
ATOM     14  H   UNL     1     -10.585  -9.965   0.537  0.00  0.00    -0.086 HD
ENDROOT
BRANCH  11  15
ATOM     15  C   UNL     1      -6.442  -7.817   6.901  0.00  0.00    +0.073 A 
ATOM     16  C   UNL     1      -5.468  -6.839   6.691  0.00  0.00    +0.036 A 
ATOM     17  C   UNL     1      -5.060  -6.039   7.738  0.00  0.00    +0.042 A 
ATOM     18  C   UNL     1      -5.613  -6.204   8.997  0.00  0.00    +0.023 A 
ATOM     19  C   UNL     1      -6.577  -7.169   9.215  0.00  0.00    +0.040 A 
ATOM     20  C   UNL     1      -7.001  -7.975   8.173  0.00  0.00    +0.136 A 
ATOM     21  F   UNL     1      -7.947  -8.915   8.386  0.00  0.00    -0.205 F 
ATOM     22 CL   UNL     1      -3.848  -4.823   7.477  0.00  0.00    -0.084 Cl
ENDBRANCH  11  15
BRANCH   1  24
ATOM     23  N   UNL     1      -7.744  -4.729   1.251  0.00  0.00    -0.312 N 
ATOM     24  C   UNL     1      -7.021  -5.655   1.910  0.00  0.00    +0.218 C 
ATOM     25  O   UNL     1      -5.877  -5.881   1.578  0.00  0.00    -0.275 OA
ATOM     26  H   UNL     1      -8.659  -4.549   1.517  0.00  0.00    +0.149 HD
BRANCH  23  32
ATOM     27  C   UNL     1      -6.913  -0.429  -1.895  0.00  0.00    +0.216 C 
ATOM     28  O   UNL     1      -6.187   0.443  -1.466  0.00  0.00    -0.276 OA
ATOM     29  N   UNL     1      -6.758  -1.701  -1.477  0.00  0.00    -0.301 N 
ATOM     30  C   UNL     1      -7.626  -2.769  -1.991  0.00  0.00    +0.109 C 
ATOM     31  C   UNL     1      -8.255  -3.507  -0.805  0.00  0.00    +0.041 C 
ATOM     32  C   UNL     1      -7.148  -3.994   0.133  0.00  0.00    +0.076 C 
ATOM     33  C   UNL     1      -6.368  -2.792   0.671  0.00  0.00    +0.041 C 
ATOM     34  C   UNL     1      -5.714  -2.046  -0.502  0.00  0.00    +0.109 C 
BRANCH  27  35
ATOM     35  C   UNL     1      -7.989  -0.090  -2.894  0.00  0.00    +0.099 C 
BRANCH  35  37
ATOM     36  C   UNL     1      -8.957   1.733  -4.302  0.00  0.00    +0.008 C 
ATOM     37  C   UNL     1      -7.950   1.409  -3.197  0.00  0.00    -0.008 C 
ATOM     38  C   UNL     1      -8.310   2.194  -1.933  0.00  0.00    +0.008 C 
ENDBRANCH  35  37
ENDBRANCH  27  35
ENDBRANCH  23  32
ENDBRANCH   1  24
TORSDOF 5
