REMARK  Name = ZINC09059257
REMARK  7 active torsions:
REMARK  status: ('A' for Active; 'I' for Inactive)
REMARK    1  A    between atoms: C_1  and  C_2
REMARK    2  A    between atoms: C_2  and  C_23
REMARK    3  A    between atoms: N_3  and  N_4
REMARK    4  A    between atoms: C_10  and  C_13
REMARK    5  A    between atoms: N_15  and  C_16
REMARK    6  A    between atoms: C_26  and  O_29
REMARK    7  A    between atoms: O_29  and  C_30
REMARK                            x       y       z     vdW  Elec       q    Type
REMARK                         _______ _______ _______ _____ _____    ______ ____
ROOT
ATOM      1  N   UNL     1       2.502   3.675   0.448  0.00  0.00    -0.126 NA
ATOM      2  C   UNL     1       1.335   3.167   0.111  0.00  0.00    +0.183 C 
ATOM      3  N   UNL     1       1.161   1.802   0.013  0.00  0.00    -0.264 N 
ATOM      4  C   UNL     1      -0.022   1.200   0.013  0.00  0.00    +0.220 C 
ATOM      5  O   UNL     1      -0.011  -0.012   0.002  0.00  0.00    -0.275 OA
ATOM      6  C   UNL     1      -1.365   1.851   0.018  0.00  0.00    +0.120 C 
ATOM      7  C   UNL     1      -1.320   3.251   0.637  0.00  0.00    +0.149 C 
ATOM      8  S   UNL     1      -0.048   4.216  -0.227  0.00  0.00    -0.075 S 
ATOM      9  H   UNL     1       1.952   1.246  -0.061  0.00  0.00    +0.157 HD
ENDROOT
BRANCH   7  10
ATOM     10  C   UNL     1      -2.660   3.921   0.477  0.00  0.00    +0.231 C 
ATOM     11  O   UNL     1      -3.373   3.637  -0.462  0.00  0.00    -0.274 OA
ATOM     12  N   UNL     1      -3.067   4.837   1.378  0.00  0.00    -0.285 N 
ATOM     13  H   UNL     1      -2.529   5.016   2.165  0.00  0.00    +0.155 HD
BRANCH  12  14
ATOM     14  C   UNL     1      -4.267   5.530   1.179  0.00  0.00    +0.033 A 
ATOM     15  C   UNL     1      -4.380   6.855   1.579  0.00  0.00    +0.024 A 
ATOM     16  C   UNL     1      -5.563   7.538   1.377  0.00  0.00    +0.017 A 
ATOM     17  C   UNL     1      -6.638   6.901   0.784  0.00  0.00    +0.018 A 
ATOM     18  C   UNL     1      -6.530   5.579   0.389  0.00  0.00    +0.017 A 
ATOM     19  C   UNL     1      -5.348   4.893   0.585  0.00  0.00    +0.024 A 
ATOM     20 BR   UNL     1      -8.259   7.837   0.515  0.00  0.00    -0.050 Br
ENDBRANCH  12  14
ENDBRANCH   7  10
BRANCH   1  23
ATOM     21  C   UNL     1       4.970   4.546   1.154  0.00  0.00    +0.068 C 
ATOM     22  C   UNL     1       3.804   5.458   0.870  0.00  0.00    +0.068 C 
ATOM     23  N   UNL     1       2.647   4.954   0.535  0.00  0.00    -0.152 NA
BRANCH  22  24
ATOM     24  C   UNL     1       3.970   6.917   0.969  0.00  0.00    -0.002 A 
ATOM     25  C   UNL     1       5.207   7.459   1.332  0.00  0.00    +0.013 A 
ATOM     26  C   UNL     1       5.359   8.826   1.418  0.00  0.00    +0.046 A 
ATOM     27  C   UNL     1       4.282   9.664   1.156  0.00  0.00    +0.120 A 
ATOM     28  C   UNL     1       3.050   9.130   0.800  0.00  0.00    +0.046 A 
ATOM     29  C   UNL     1       2.890   7.765   0.706  0.00  0.00    +0.013 A 
BRANCH  27  30
ATOM     30  O   UNL     1       4.436  11.011   1.247  0.00  0.00    -0.495 OA
ATOM     31  C   UNL     1       5.729  11.493   1.618  0.00  0.00    +0.277 C 
ENDBRANCH  27  30
ENDBRANCH  22  24
ENDBRANCH   1  23
TORSDOF 5
