REMARK  Name = ZINC09194416
REMARK  11 active torsions:
REMARK  status: ('A' for Active; 'I' for Inactive)
REMARK    1  A    between atoms: C_1  and  O_2
REMARK    2  A    between atoms: O_2  and  C_3
REMARK    3  A    between atoms: C_5  and  C_19
REMARK    4  A    between atoms: C_8  and  O_9
REMARK    5  A    between atoms: O_9  and  C_10
REMARK    6  A    between atoms: C_10  and  C_11
REMARK    7  A    between atoms: C_19  and  N_51
REMARK    8  A    between atoms: C_20  and  C_21
REMARK    9  A    between atoms: C_20  and  N_51
REMARK   10  A    between atoms: C_21  and  N_22
REMARK   11  A    between atoms: C_23  and  C_25
REMARK                            x       y       z     vdW  Elec       q    Type
REMARK                         _______ _______ _______ _____ _____    ______ ____
ROOT
ATOM      1  C   UNL     1      -0.787   2.893   1.346  0.00  0.00    +0.163 A 
ATOM      2  C   UNL     1      -0.254   3.751   0.398  0.00  0.00    +0.051 A 
ATOM      3  C   UNL     1      -0.367   5.119   0.561  0.00  0.00    -0.060 A 
ATOM      4  C   UNL     1      -1.002   5.635   1.676  0.00  0.00    +0.021 A 
ATOM      5  C   UNL     1      -1.532   4.784   2.629  0.00  0.00    +0.063 A 
ATOM      6  C   UNL     1      -1.426   3.411   2.468  0.00  0.00    +0.176 A 
ATOM      7 BR   UNL     1      -2.400   5.494   4.152  0.00  0.00    -0.046 Br
ENDROOT
BRANCH   1   9
ATOM      8  C   UNL     1      -0.013   1.086   0.008  0.00  0.00    +0.277 C 
ATOM      9  O   UNL     1      -0.682   1.547   1.184  0.00  0.00    -0.491 OA
ENDBRANCH   1   9
BRANCH   6  10
ATOM     10  O   UNL     1      -1.947   2.573   3.404  0.00  0.00    -0.483 OA
BRANCH  10  11
ATOM     11  C   UNL     1      -1.087   2.184   4.477  0.00  0.00    +0.267 C 
BRANCH  11  12
ATOM     12  C   UNL     1      -1.830   1.262   5.408  0.00  0.00    +0.025 A 
ATOM     13  C   UNL     1      -3.146   0.930   5.147  0.00  0.00    +0.010 A 
ATOM     14  C   UNL     1      -3.827   0.079   5.998  0.00  0.00    +0.001 A 
ATOM     15  C   UNL     1      -3.196  -0.431   7.117  0.00  0.00    +0.003 A 
ATOM     16  C   UNL     1      -1.882  -0.096   7.384  0.00  0.00    +0.039 A 
ATOM     17  C   UNL     1      -1.198   0.752   6.529  0.00  0.00    +0.130 A 
ATOM     18  F   UNL     1       0.087   1.081   6.789  0.00  0.00    -0.205 F 
ENDBRANCH  11  12
ENDBRANCH  10  11
ENDBRANCH   6  10
BRANCH   3  19
ATOM     19  C   UNL     1       0.209   6.050  -0.474  0.00  0.00    -0.047 C 
BRANCH  19  20
ATOM     20  N   UNL     1       1.607   6.361  -0.121  0.00  0.00    +0.383 N 
ATOM     21  H   UNL     1       2.151   5.491  -0.093  0.00  0.00    -0.085 HD
ATOM     22  H   UNL     1       1.631   6.809   0.803  0.00  0.00    -0.085 HD
BRANCH  20  23
ATOM     23  C   UNL     1       2.197   7.273  -1.119  0.00  0.00    -0.063 C 
BRANCH  23  24
ATOM     24  C   UNL     1       3.644   7.577  -0.727  0.00  0.00    +0.085 C 
BRANCH  24  25
ATOM     25  N   UNL     1       4.237   8.482  -1.714  0.00  0.00    -0.312 N 
ATOM     26  C   UNL     1       5.514   8.890  -1.573  0.00  0.00    +0.269 C 
ATOM     27  O   UNL     1       6.173   8.507  -0.626  0.00  0.00    -0.268 OA
ATOM     28  H   UNL     1       3.711   8.788  -2.470  0.00  0.00    +0.149 HD
BRANCH  26  29
ATOM     29  C   UNL     1       6.114   9.805  -2.571  0.00  0.00    +0.209 A 
ATOM     30  C   UNL     1       7.483  10.369  -2.606  0.00  0.00    +0.192 A 
ATOM     31  N   UNL     1       7.462  11.102  -3.696  0.00  0.00    -0.033 NA
ATOM     32  O   UNL     1       6.372  11.023  -4.213  0.00  0.00    -0.240 OA
ATOM     33  N   UNL     1       5.567  10.317  -3.652  0.00  0.00    -0.042 NA
ATOM     34  N   UNL     1       8.526  10.173  -1.712  0.00  0.00    -0.339 N 
ATOM     35  H   UNL     1       8.402   9.599  -0.940  0.00  0.00    +0.144 HD
ATOM     36  H   UNL     1       9.380  10.610  -1.859  0.00  0.00    +0.144 HD
ENDBRANCH  26  29
ENDBRANCH  24  25
ENDBRANCH  23  24
ENDBRANCH  20  23
ENDBRANCH  19  20
ENDBRANCH   3  19
TORSDOF 10
