REMARK  Name = ZINC57991821
REMARK  2 active torsions:
REMARK  status: ('A' for Active; 'I' for Inactive)
REMARK    1  A    between atoms: C_1  and  C_2
REMARK    2  A    between atoms: C_8  and  C_10
REMARK                            x       y       z     vdW  Elec       q    Type
REMARK                         _______ _______ _______ _____ _____    ______ ____
ROOT
ATOM      1  C   UNL     1      -0.287  -4.015   3.116  0.00  0.00    +0.110 C 
ATOM      2  C   UNL     1       0.003  -2.903   4.160  0.00  0.00    +0.034 C 
ATOM      3  C   UNL     1      -1.315  -2.881   4.971  0.00  0.00    +0.059 C 
ATOM      4  C   UNL     1      -1.022  -2.398   6.401  0.00  0.00    +0.020 C 
ATOM      5  C   UNL     1      -1.316  -3.615   7.308  0.00  0.00    +0.017 C 
ATOM      6  C   UNL     1      -1.165  -4.813   6.339  0.00  0.00    +0.086 C 
ATOM      7  N   UNL     1      -1.738  -4.304   5.046  0.00  0.00    -0.282 NA
ATOM      8  C   UNL     1      -1.139  -5.019   3.907  0.00  0.00    +0.137 C 
ATOM      9  C   UNL     1      -2.193  -5.637   3.028  0.00  0.00    +0.004 A 
ATOM     10  C   UNL     1      -3.248  -5.117   2.312  0.00  0.00    +0.008 A 
ATOM     11  C   UNL     1      -4.067  -5.958   1.579  0.00  0.00    +0.000 A 
ATOM     12  C   UNL     1      -3.823  -7.319   1.568  0.00  0.00    +0.002 A 
ATOM     13  C   UNL     1      -2.767  -7.843   2.284  0.00  0.00    +0.023 A 
ATOM     14  C   UNL     1      -1.938  -7.004   3.025  0.00  0.00    +0.039 A 
ATOM     15  N   UNL     1      -0.825  -7.289   3.819  0.00  0.00    -0.283 N 
ATOM     16  C   UNL     1      -0.298  -6.181   4.372  0.00  0.00    +0.243 C 
ATOM     17  O   UNL     1       0.668  -6.128   5.104  0.00  0.00    -0.273 OA
ATOM     18  H   UNL     1      -0.473  -8.182   3.956  0.00  0.00    +0.155 HD
ENDROOT
BRANCH   1  26
ATOM     19  C   UNL     1       0.731  -4.397  -3.113  0.00  0.00    +0.007 C 
ATOM     20  C   UNL     1      -0.143  -4.632  -1.880  0.00  0.00    -0.011 C 
ATOM     21  C   UNL     1      -0.951  -3.367  -1.579  0.00  0.00    +0.022 C 
ATOM     22  C   UNL     1      -1.850  -3.618  -0.364  0.00  0.00    +0.108 C 
ATOM     23  N   UNL     1      -1.017  -4.083   0.753  0.00  0.00    -0.301 N 
ATOM     24  C   UNL     1      -0.134  -5.238   0.543  0.00  0.00    +0.108 C 
ATOM     25  C   UNL     1       0.747  -4.969  -0.681  0.00  0.00    +0.022 C 
ATOM     26  C   UNL     1      -1.063  -3.461   1.948  0.00  0.00    +0.221 C 
ATOM     27  O   UNL     1      -1.727  -2.456   2.084  0.00  0.00    -0.275 OA
ENDBRANCH   1  26
TORSDOF 1
