REMARK  Name = ZINC39687537
REMARK  3 active torsions:
REMARK  status: ('A' for Active; 'I' for Inactive)
REMARK    1  A    between atoms: C_10  and  N_13
REMARK    2  A    between atoms: C_14  and  C_16
REMARK    3  A    between atoms: C_27  and  C_29
REMARK                            x       y       z     vdW  Elec       q    Type
REMARK                         _______ _______ _______ _____ _____    ______ ____
ROOT
ATOM      1  C   UNL     1       0.774  -7.970  -2.998  0.00  0.00    +0.100 C 
ATOM      2  C   UNL     1       2.216  -8.484  -3.209  0.00  0.00    +0.121 C 
ATOM      3  N   UNL     1       2.312  -9.691  -2.354  0.00  0.00    -0.296 N 
ATOM      4  C   UNL     1       0.999 -10.359  -2.510  0.00  0.00    +0.115 C 
ATOM      5  C   UNL     1      -0.022  -9.204  -2.543  0.00  0.00    -0.004 C 
ATOM      6  C   UNL     1      -1.136  -9.512  -3.539  0.00  0.00    -0.010 C 
ATOM      7  C   UNL     1      -1.950 -10.707  -3.035  0.00  0.00    -0.082 C 
ATOM      8  N   UNL     1      -2.518 -10.394  -1.718  0.00  0.00    +0.379 N 
ATOM      9  C   UNL     1      -1.439 -10.191  -0.743  0.00  0.00    -0.082 C 
ATOM     10  C   UNL     1      -0.603  -8.974  -1.151  0.00  0.00    -0.010 C 
ATOM     11  C   UNL     1       3.359 -10.090  -1.604  0.00  0.00    +0.252 C 
ATOM     12  O   UNL     1       3.284 -11.113  -0.951  0.00  0.00    -0.270 OA
ATOM     13  H   UNL     1      -3.073  -9.554  -1.783  0.00  0.00    -0.086 HD
ATOM     14  H   UNL     1      -3.103 -11.158  -1.415  0.00  0.00    -0.086 HD
ENDROOT
BRANCH  11  15
ATOM     15  C   UNL     1       4.595  -9.285  -1.575  0.00  0.00    +0.108 A 
ATOM     16  C   UNL     1       4.755  -8.275  -0.620  0.00  0.00    +0.138 A 
ATOM     17  C   UNL     1       5.917  -7.527  -0.599  0.00  0.00    +0.041 A 
ATOM     18  C   UNL     1       6.920  -7.772  -1.519  0.00  0.00    +0.026 A 
ATOM     19  C   UNL     1       6.770  -8.769  -2.468  0.00  0.00    +0.077 A 
ATOM     20  C   UNL     1       5.616  -9.532  -2.499  0.00  0.00    +0.156 A 
ATOM     21  F   UNL     1       5.474 -10.508  -3.421  0.00  0.00    -0.203 F 
ATOM     22 CL   UNL     1       8.036  -9.067  -3.617  0.00  0.00    -0.081 Cl
ATOM     23  F   UNL     1       3.777  -8.033   0.280  0.00  0.00    -0.205 F 
ENDBRANCH  11  15
BRANCH   1  25
ATOM     24  N   UNL     1      -0.197  -5.944  -1.962  0.00  0.00    -0.312 N 
ATOM     25  C   UNL     1       0.748  -6.906  -1.932  0.00  0.00    +0.218 C 
ATOM     26  O   UNL     1       1.576  -6.914  -1.046  0.00  0.00    -0.275 OA
ATOM     27  H   UNL     1      -0.859  -5.938  -2.671  0.00  0.00    +0.149 HD
BRANCH  24  37
ATOM     28  C   UNL     1      -4.023  -0.545   1.587  0.00  0.00    +0.005 A 
ATOM     29  C   UNL     1      -4.640  -1.165   2.665  0.00  0.00    +0.018 A 
ATOM     30  C   UNL     1      -4.191  -2.402   3.082  0.00  0.00    +0.084 A 
ATOM     31  N   UNL     1      -3.185  -2.998   2.470  0.00  0.00    -0.350 N 
ATOM     32  C   UNL     1      -2.570  -2.439   1.439  0.00  0.00    +0.099 A 
ATOM     33  C   UNL     1      -2.971  -1.194   0.966  0.00  0.00    +0.042 A 
ATOM     34  N   UNL     1      -1.515  -3.103   0.825  0.00  0.00    -0.317 N 
ATOM     35  C   UNL     1      -0.903  -2.565  -0.399  0.00  0.00    +0.108 C 
ATOM     36  C   UNL     1      -0.909  -3.656  -1.474  0.00  0.00    +0.041 C 
ATOM     37  C   UNL     1      -0.222  -4.910  -0.926  0.00  0.00    +0.076 C 
ATOM     38  C   UNL     1      -0.994  -5.426   0.291  0.00  0.00    +0.041 C 
ATOM     39  C   UNL     1      -0.985  -4.351   1.389  0.00  0.00    +0.108 C 
ATOM     40  H   UNL     1      -2.889  -3.867   2.784  0.00  0.00    +0.166 HD
ENDBRANCH  24  37
ENDBRANCH   1  25
TORSDOF 3
