REMARK  Name = ZINC39486285
REMARK  6 active torsions:
REMARK  status: ('A' for Active; 'I' for Inactive)
REMARK    1  A    between atoms: C_4  and  O_40
REMARK    2  A    between atoms: C_5  and  C_7
REMARK    3  A    between atoms: C_11  and  C_13
REMARK    4  A    between atoms: C_25  and  C_27
REMARK    5  A    between atoms: C_27  and  C_29
REMARK    6  A    between atoms: C_34  and  O_35
REMARK                            x       y       z     vdW  Elec       q    Type
REMARK                         _______ _______ _______ _____ _____    ______ ____
ROOT
ATOM      1  C   UNL     1      -0.303  -5.042   1.887  0.00  0.00    +0.062 C 
ATOM      2  C   UNL     1       0.617  -5.877   2.735  0.00  0.00    -0.025 A 
ATOM      3  C   UNL     1       1.845  -5.361   3.100  0.00  0.00    +0.054 A 
ATOM      4  C   UNL     1       2.716  -6.104   3.884  0.00  0.00    +0.167 A 
ATOM      5  C   UNL     1       2.357  -7.384   4.312  0.00  0.00    +0.167 A 
ATOM      6  C   UNL     1       1.132  -7.910   3.954  0.00  0.00    +0.061 A 
ATOM      7  C   UNL     1       0.257  -7.159   3.161  0.00  0.00    +0.026 A 
ATOM      8  C   UNL     1      -1.045  -7.728   2.772  0.00  0.00    +0.182 C 
ATOM      9  O   UNL     1      -1.295  -8.902   2.951  0.00  0.00    -0.290 OA
ATOM     10  C   UNL     1      -2.060  -6.798   2.141  0.00  0.00    +0.163 C 
ATOM     11  C   UNL     1      -1.308  -5.913   1.138  0.00  0.00    +0.097 C 
ATOM     12 CL   UNL     1      -3.323  -7.760   1.286  0.00  0.00    -0.113 Cl
ATOM     13  O   UNL     1       3.377  -7.896   5.061  0.00  0.00    -0.453 OA
ATOM     14  C   UNL     1       4.526  -7.087   4.746  0.00  0.00    +0.466 C 
ATOM     15  O   UNL     1       3.959  -5.819   4.365  0.00  0.00    -0.453 OA
ENDROOT
BRANCH   1  20
ATOM     16  C   UNL     1       1.244  -2.166  -0.022  0.00  0.00    -0.014 A 
ATOM     17  C   UNL     1       2.026  -2.846  -0.954  0.00  0.00    +0.008 A 
ATOM     18  C   UNL     1       2.047  -4.226  -0.957  0.00  0.00    +0.001 A 
ATOM     19  C   UNL     1       1.293  -4.934  -0.038  0.00  0.00    +0.004 A 
ATOM     20  C   UNL     1       0.515  -4.264   0.889  0.00  0.00    -0.039 A 
ATOM     21  C   UNL     1       0.491  -2.884   0.905  0.00  0.00    +0.013 A 
BRANCH  16  26
ATOM     22  C   UNL     1      -0.017   1.376   0.010  0.00  0.00    +0.001 A 
ATOM     23  C   UNL     1       1.169   2.089   0.002  0.00  0.00    +0.004 A 
ATOM     24  C   UNL     1       2.382   1.426  -0.013  0.00  0.00    +0.046 A 
ATOM     25  C   UNL     1       2.415   0.040  -0.021  0.00  0.00    +0.125 A 
ATOM     26  C   UNL     1       1.219  -0.683  -0.013  0.00  0.00    +0.024 A 
ATOM     27  C   UNL     1       0.002  -0.004   0.002  0.00  0.00    +0.012 A 
BRANCH  25  28
ATOM     28  O   UNL     1       3.606  -0.613  -0.037  0.00  0.00    -0.506 OA
ATOM     29  H   UNL     1       3.960  -0.806   0.842  0.00  0.00    +0.292 HD
ENDBRANCH  25  28
ENDBRANCH  16  26
ENDBRANCH   1  20
BRANCH  11  30
ATOM     30  C   UNL     1      -2.291  -5.035   0.409  0.00  0.00    +0.172 C 
ATOM     31  O   UNL     1      -2.507  -3.908   0.804  0.00  0.00    -0.292 OA
BRANCH  30  32
ATOM     32  C   UNL     1      -2.987  -5.542  -0.780  0.00  0.00    +0.059 A 
ATOM     33  C   UNL     1      -2.746  -6.843  -1.236  0.00  0.00    +0.015 A 
ATOM     34  C   UNL     1      -3.404  -7.312  -2.352  0.00  0.00    +0.001 A 
ATOM     35  C   UNL     1      -4.304  -6.501  -3.026  0.00  0.00    +0.004 A 
ATOM     36  C   UNL     1      -4.552  -5.216  -2.588  0.00  0.00    +0.046 A 
ATOM     37  C   UNL     1      -3.905  -4.727  -1.463  0.00  0.00    +0.127 A 
BRANCH  37  38
ATOM     38  O   UNL     1      -4.152  -3.466  -1.029  0.00  0.00    -0.506 OA
ATOM     39  H   UNL     1      -3.571  -2.796  -1.415  0.00  0.00    +0.292 HD
ENDBRANCH  37  38
ENDBRANCH  30  32
ENDBRANCH  11  30
TORSDOF 6
