REMARK  Name = ZINC39856894
REMARK  6 active torsions:
REMARK  status: ('A' for Active; 'I' for Inactive)
REMARK    1  A    between atoms: C_4  and  C_7
REMARK    2  A    between atoms: C_10  and  N_13
REMARK    3  A    between atoms: N_13  and  C_14
REMARK    4  A    between atoms: C_26  and  N_28
REMARK    5  A    between atoms: N_28  and  S_29
REMARK    6  A    between atoms: S_29  and  C_32
REMARK                            x       y       z     vdW  Elec       q    Type
REMARK                         _______ _______ _______ _____ _____    ______ ____
ROOT
ATOM      1  C   UNL     1       7.269  -4.271   0.499  0.00  0.00    +0.124 C 
ATOM      2  C   UNL     1       6.657  -4.455  -0.869  0.00  0.00    -0.017 A 
ATOM      3  C   UNL     1       5.416  -4.264  -1.395  0.00  0.00    +0.006 A 
ATOM      4  C   UNL     1       5.171  -4.538  -2.742  0.00  0.00    +0.001 A 
ATOM      5  C   UNL     1       6.143  -5.003  -3.581  0.00  0.00    +0.008 A 
ATOM      6  C   UNL     1       7.434  -5.213  -3.071  0.00  0.00    -0.017 A 
ATOM      7  C   UNL     1       7.657  -4.929  -1.711  0.00  0.00    -0.008 A 
ATOM      8  C   UNL     1       8.896  -5.100  -1.101  0.00  0.00    -0.019 A 
ATOM      9  C   UNL     1       9.925  -5.562  -1.863  0.00  0.00    +0.006 A 
ATOM     10  C   UNL     1       9.727  -5.850  -3.216  0.00  0.00    +0.001 A 
ATOM     11  C   UNL     1       8.518  -5.687  -3.828  0.00  0.00    +0.008 A 
ATOM     12  C   UNL     1       8.746  -4.697   0.348  0.00  0.00    +0.131 C 
ENDROOT
BRANCH   1  13
ATOM     13  N   UNL     1       7.185  -2.867   0.907  0.00  0.00    -0.335 N 
ATOM     14  H   UNL     1       7.132  -2.169   0.236  0.00  0.00    +0.147 HD
BRANCH  13  18
ATOM     15  C   UNL     1       7.173  -1.872   4.953  0.00  0.00    -0.018 A 
ATOM     16  C   UNL     1       7.097  -0.869   3.988  0.00  0.00    +0.010 A 
ATOM     17  C   UNL     1       7.102  -1.200   2.650  0.00  0.00    +0.023 A 
ATOM     18  C   UNL     1       7.181  -2.533   2.263  0.00  0.00    +0.028 A 
ATOM     19  C   UNL     1       7.257  -3.535   3.224  0.00  0.00    +0.023 A 
ATOM     20  C   UNL     1       7.259  -3.207   4.563  0.00  0.00    +0.010 A 
BRANCH  15  24
ATOM     21  C   UNL     1       7.159  -0.856   9.082  0.00  0.00    +0.000 A 
ATOM     22  C   UNL     1       7.078   0.141   8.127  0.00  0.00    +0.001 A 
ATOM     23  C   UNL     1       7.082  -0.183   6.785  0.00  0.00    +0.008 A 
ATOM     24  C   UNL     1       7.169  -1.517   6.394  0.00  0.00    -0.018 A 
ATOM     25  C   UNL     1       7.250  -2.518   7.360  0.00  0.00    +0.008 A 
ATOM     26  C   UNL     1       7.245  -2.183   8.699  0.00  0.00    +0.001 A 
ENDBRANCH  15  24
ENDBRANCH  13  18
ENDBRANCH   1  13
BRANCH  12  27
ATOM     27  N   UNL     1       9.633  -3.573   0.658  0.00  0.00    -0.180 NA
ATOM     28  H   UNL     1       9.526  -2.728   0.193  0.00  0.00    +0.149 HD
BRANCH  27  29
ATOM     29  S   UNL     1      10.818  -3.744   1.801  0.00  0.00    +0.059 S 
ATOM     30  O   UNL     1      11.515  -2.507   1.852  0.00  0.00    -0.153 OA
ATOM     31  O   UNL     1      10.200  -4.318   2.945  0.00  0.00    -0.153 OA
BRANCH  29  32
ATOM     32  C   UNL     1      11.960  -4.941   1.192  0.00  0.00    +0.105 A 
ATOM     33  C   UNL     1      11.772  -6.281   1.474  0.00  0.00    +0.028 A 
ATOM     34  C   UNL     1      12.668  -7.220   0.997  0.00  0.00    +0.002 A 
ATOM     35  C   UNL     1      13.751  -6.819   0.237  0.00  0.00    +0.000 A 
ATOM     36  C   UNL     1      13.938  -5.478  -0.045  0.00  0.00    +0.002 A 
ATOM     37  C   UNL     1      13.040  -4.540   0.428  0.00  0.00    +0.028 A 
ENDBRANCH  29  32
ENDBRANCH  27  29
ENDBRANCH  12  27
TORSDOF 6
