REMARK  Name = ZINC19892687
REMARK  17 active torsions:
REMARK  status: ('A' for Active; 'I' for Inactive)
REMARK    1  A    between atoms: C_1  and  C_2
REMARK    2  A    between atoms: C_2  and  C_3
REMARK    3  A    between atoms: C_3  and  C_5
REMARK    4  A    between atoms: C_3  and  O_6
REMARK    5  A    between atoms: O_6  and  C_7
REMARK    6  A    between atoms: C_7  and  C_9
REMARK    7  A    between atoms: C_10  and  C_42
REMARK    8  A    between atoms: C_14  and  C_16
REMARK    9  A    between atoms: C_19  and  O_24
REMARK   10  A    between atoms: C_21  and  O_22
REMARK   11  A    between atoms: O_22  and  C_23
REMARK   12  A    between atoms: O_24  and  C_25
REMARK   13  A    between atoms: C_29  and  C_32
REMARK   14  A    between atoms: C_35  and  O_40
REMARK   15  A    between atoms: C_36  and  O_38
REMARK   16  A    between atoms: O_38  and  C_39
REMARK   17  A    between atoms: O_40  and  C_41
REMARK                            x       y       z     vdW  Elec       q    Type
REMARK                         _______ _______ _______ _____ _____    ______ ____
ROOT
ATOM      1  C   UNL     1      -9.769  -3.708   1.441  0.00  0.00    +0.065 C 
ATOM      2  C   UNL     1      -9.061  -3.414   2.545  0.00  0.00    +0.016 C 
ATOM      3  N   UNL     1      -7.713  -3.201   2.467  0.00  0.00    -0.321 N 
ATOM      4  C   UNL     1      -7.125  -2.886   1.271  0.00  0.00    +0.016 C 
ATOM      5  C   UNL     1      -7.751  -3.159   0.107  0.00  0.00    +0.024 C 
ATOM      6  C   UNL     1      -9.108  -3.818   0.098  0.00  0.00    +0.096 C 
ATOM      7  C   UNL     1      -7.158  -2.843  -1.127  0.00  0.00    +0.162 C 
ATOM      8  O   UNL     1      -7.755  -3.087  -2.157  0.00  0.00    -0.292 OA
ATOM      9  C   UNL     1      -5.794  -2.212  -1.200  0.00  0.00    +0.088 C 
ATOM     10  C   UNL     1      -4.987  -2.627   0.035  0.00  0.00    +0.032 C 
ATOM     11  C   UNL     1      -5.769  -2.226   1.288  0.00  0.00    +0.059 C 
ATOM     12  C   UNL     1      -9.758  -3.320   3.878  0.00  0.00    +0.061 C 
ATOM     13  H   UNL     1      -7.090  -3.282   3.370  0.00  0.00    +0.152 HD
ENDROOT
BRANCH   6  14
ATOM     14  C   UNL     1      -8.948  -5.274  -0.256  0.00  0.00    +0.007 A 
ATOM     15  C   UNL     1      -8.198  -6.104   0.556  0.00  0.00    +0.012 A 
ATOM     16  C   UNL     1      -8.054  -7.441   0.237  0.00  0.00    +0.046 A 
ATOM     17  C   UNL     1      -8.654  -7.951  -0.906  0.00  0.00    +0.124 A 
ATOM     18  C   UNL     1      -9.402  -7.120  -1.725  0.00  0.00    +0.091 A 
ATOM     19  C   UNL     1      -9.550  -5.780  -1.399  0.00  0.00    +0.128 A 
BRANCH  19  20
ATOM     20  O   UNL     1     -10.282  -4.962  -2.200  0.00  0.00    -0.495 OA
ATOM     21  C   UNL     1     -10.873  -5.550  -3.361  0.00  0.00    +0.277 C 
ENDBRANCH  19  20
BRANCH  17  22
ATOM     22  O   UNL     1      -8.507  -9.264  -1.222  0.00  0.00    -0.495 OA
ATOM     23  C   UNL     1      -7.723 -10.062  -0.333  0.00  0.00    +0.277 C 
ENDBRANCH  17  22
ENDBRANCH   6  14
BRANCH  10  24
ATOM     24  C   UNL     1      -3.652  -1.928   0.026  0.00  0.00    -0.040 A 
ATOM     25  C   UNL     1      -3.596  -0.546   0.034  0.00  0.00    +0.008 A 
ATOM     26  C   UNL     1      -2.374   0.099   0.031  0.00  0.00    +0.049 A 
ATOM     27  C   UNL     1      -1.201  -0.638   0.010  0.00  0.00    +0.161 A 
ATOM     28  C   UNL     1      -1.257  -2.028   0.003  0.00  0.00    +0.162 A 
ATOM     29  C   UNL     1      -2.485  -2.669   0.011  0.00  0.00    +0.053 A 
BRANCH  28  30
ATOM     30  O   UNL     1      -0.108  -2.756  -0.011  0.00  0.00    -0.491 OA
ATOM     31  C   UNL     1      -0.242  -4.179  -0.018  0.00  0.00    +0.277 C 
ENDBRANCH  28  30
BRANCH  27  32
ATOM     32  O   UNL     1       0.002  -0.004   0.002  0.00  0.00    -0.491 OA
ATOM     33  C   UNL     1      -0.017   1.425   0.010  0.00  0.00    +0.277 C 
ENDBRANCH  27  32
ENDBRANCH  10  24
BRANCH   1  34
ATOM     34  C   UNL     1     -11.164  -3.915   1.546  0.00  0.00    +0.338 C 
ATOM     35  O   UNL     1     -11.713  -3.828   2.629  0.00  0.00    -0.245 OA
BRANCH  34  36
ATOM     36  O   UNL     1     -11.887  -4.210   0.445  0.00  0.00    -0.458 OA
BRANCH  36  37
ATOM     37  C   UNL     1     -13.291  -4.408   0.625  0.00  0.00    +0.173 C 
ATOM     38  C   UNL     1     -13.566  -5.884   0.917  0.00  0.00    +0.052 C 
BRANCH  37  40
ATOM     39  C   UNL     1     -13.859  -2.490  -0.873  0.00  0.00    +0.007 C 
ATOM     40  C   UNL     1     -14.032  -3.994  -0.648  0.00  0.00    +0.041 C 
ENDBRANCH  37  40
ENDBRANCH  36  37
ENDBRANCH  34  36
ENDBRANCH   1  34
TORSDOF 10
