REMARK  Name = ZINC36684721
REMARK  11 active torsions:
REMARK  status: ('A' for Active; 'I' for Inactive)
REMARK    1  A    between atoms: C_1  and  C_2
REMARK    2  A    between atoms: C_2  and  N_3
REMARK    3  A    between atoms: N_3  and  C_4
REMARK    4  A    between atoms: N_3  and  C_6
REMARK    5  A    between atoms: C_4  and  C_5
REMARK    6  A    between atoms: C_6  and  C_8
REMARK    7  A    between atoms: C_6  and  C_26
REMARK    8  A    between atoms: C_8  and  N_9
REMARK    9  A    between atoms: C_10  and  C_12
REMARK   10  A    between atoms: C_12  and  N_13
REMARK   11  A    between atoms: C_19  and  C_22
REMARK                            x       y       z     vdW  Elec       q    Type
REMARK                         _______ _______ _______ _____ _____    ______ ____
ROOT
ATOM      1  N   UNL     1       1.388  -2.017  -3.086  0.00  0.00    -0.315 N 
ATOM      2  C   UNL     1       2.457  -2.743  -3.469  0.00  0.00    +0.231 C 
ATOM      3  O   UNL     1       3.441  -2.188  -3.909  0.00  0.00    -0.274 OA
ATOM      4  H   UNL     1       0.640  -2.450  -2.647  0.00  0.00    +0.149 HD
ENDROOT
BRANCH   1   5
ATOM      5  C   UNL     1       1.358  -0.573  -3.332  0.00  0.00    +0.093 C 
BRANCH   5   6
ATOM      6  C   UNL     1       0.046   0.007  -2.800  0.00  0.00    -0.019 C 
BRANCH   6   7
ATOM      7  C   UNL     1       0.083   1.510  -2.903  0.00  0.00    -0.041 A 
ATOM      8  C   UNL     1       1.041   2.227  -2.210  0.00  0.00    +0.003 A 
ATOM      9  C   UNL     1       1.076   3.606  -2.304  0.00  0.00    +0.000 A 
ATOM     10  C   UNL     1       0.152   4.269  -3.091  0.00  0.00    +0.001 A 
ATOM     11  C   UNL     1      -0.805   3.554  -3.784  0.00  0.00    +0.020 A 
ATOM     12  C   UNL     1      -0.837   2.173  -3.695  0.00  0.00    +0.043 A 
ATOM     13 CL   UNL     1      -2.036   1.273  -4.571  0.00  0.00    -0.083 Cl
ENDBRANCH   6   7
BRANCH   6  14
ATOM     14  N   UNL     1      -0.129  -0.383  -1.395  0.00  0.00    +0.385 N 
ATOM     15  H   UNL     1      -0.408  -1.351  -1.347  0.00  0.00    -0.081 HD
BRANCH  14  17
ATOM     16  C   UNL     1       1.251  -1.254   0.431  0.00  0.00    -0.017 C 
ATOM     17  C   UNL     1       1.139  -0.204  -0.676  0.00  0.00    -0.081 C 
ENDBRANCH  14  17
BRANCH  14  18
ATOM     18  C   UNL     1      -1.165   0.457  -0.778  0.00  0.00    -0.081 C 
ATOM     19  C   UNL     1      -2.523   0.129  -1.401  0.00  0.00    -0.017 C 
ENDBRANCH  14  18
ENDBRANCH   6  14
ENDBRANCH   5   6
ENDBRANCH   1   5
BRANCH   2  20
ATOM     20  C   UNL     1       2.428  -4.245  -3.352  0.00  0.00    +0.213 C 
BRANCH  20  21
ATOM     21  N   UNL     1       3.738  -4.789  -3.719  0.00  0.00    -0.215 N 
ATOM     22  C   UNL     1       4.087  -5.143  -4.973  0.00  0.00    +0.247 C 
ATOM     23  O   UNL     1       3.404  -5.074  -5.972  0.00  0.00    -0.273 OA
ATOM     24  C   UNL     1       5.510  -5.643  -4.870  0.00  0.00    +0.113 C 
ATOM     25  C   UNL     1       6.439  -4.779  -5.716  0.00  0.00    +0.035 C 
ATOM     26  C   UNL     1       7.878  -5.283  -5.574  0.00  0.00    +0.006 C 
ATOM     27  C   UNL     1       7.954  -6.742  -6.029  0.00  0.00    -0.014 C 
ATOM     28  C   UNL     1       7.034  -7.598  -5.156  0.00  0.00    +0.006 C 
ATOM     29  C   UNL     1       5.593  -7.104  -5.297  0.00  0.00    +0.035 C 
ATOM     30  C   UNL     1       9.393  -7.243  -5.898  0.00  0.00    +0.007 C 
ATOM     31  N   UNL     1       5.834  -5.503  -3.445  0.00  0.00    -0.285 N 
ATOM     32  C   UNL     1       4.738  -4.992  -2.853  0.00  0.00    +0.310 C 
ATOM     33  O   UNL     1       4.664  -4.745  -1.665  0.00  0.00    -0.252 OA
ATOM     34  H   UNL     1       6.673  -5.732  -3.015  0.00  0.00    +0.151 HD
ENDBRANCH  20  21
ENDBRANCH   2  20
TORSDOF 8
