REMARK  Name = ZINC14963250
REMARK  13 active torsions:
REMARK  status: ('A' for Active; 'I' for Inactive)
REMARK    1  A    between atoms: C_1  and  N_2
REMARK    2  A    between atoms: N_2  and  C_3
REMARK    3  A    between atoms: N_2  and  C_10
REMARK    4  A    between atoms: C_3  and  C_4
REMARK    5  A    between atoms: C_10  and  C_11
REMARK    6  A    between atoms: C_11  and  C_13
REMARK    7  A    between atoms: C_11  and  O_33
REMARK    8  A    between atoms: C_13  and  O_14
REMARK    9  A    between atoms: O_14  and  C_15
REMARK   10  A    between atoms: C_18  and  C_21
REMARK   11  A    between atoms: C_21  and  N_22
REMARK   12  A    between atoms: N_22  and  C_23
REMARK   13  A    between atoms: C_23  and  C_24
REMARK                            x       y       z     vdW  Elec       q    Type
REMARK                         _______ _______ _______ _____ _____    ______ ____
ROOT
ATOM      1  C   UNL     1      -5.361  -0.617   2.814  0.00  0.00    +0.121 A 
ATOM      2  C   UNL     1      -5.990  -1.430   1.883  0.00  0.00    +0.046 A 
ATOM      3  C   UNL     1      -7.262  -1.909   2.132  0.00  0.00    +0.008 A 
ATOM      4  C   UNL     1      -7.908  -1.578   3.309  0.00  0.00    -0.033 A 
ATOM      5  C   UNL     1      -7.284  -0.767   4.239  0.00  0.00    +0.008 A 
ATOM      6  C   UNL     1      -6.010  -0.291   3.997  0.00  0.00    +0.046 A 
ENDROOT
BRANCH   1   7
ATOM      7  O   UNL     1      -4.110  -0.146   2.572  0.00  0.00    -0.489 OA
BRANCH   7   8
ATOM      8  C   UNL     1      -3.504  -0.522   1.334  0.00  0.00    +0.258 C 
BRANCH   8   9
ATOM      9  C   UNL     1      -2.109   0.099   1.239  0.00  0.00    +0.135 C 
BRANCH   9  10
ATOM     10  O   UNL     1      -2.224   1.522   1.187  0.00  0.00    -0.390 OA
ATOM     11  H   UNL     1      -2.733   1.848   0.432  0.00  0.00    +0.210 HD
ENDBRANCH   9  10
BRANCH   9  12
ATOM     12  C   UNL     1      -1.411  -0.404  -0.026  0.00  0.00    -0.044 C 
BRANCH  12  14
ATOM     13  C   UNL     1       0.589  -0.253  -1.341  0.00  0.00    -0.096 C 
ATOM     14  N   UNL     1      -0.032   0.100  -0.058  0.00  0.00    +0.382 N 
ATOM     15  H   UNL     1      -0.037   1.103   0.049  0.00  0.00    -0.082 HD
BRANCH  14  16
ATOM     16  C   UNL     1       0.735  -0.506   1.040  0.00  0.00    -0.043 C 
BRANCH  16  17
ATOM     17  C   UNL     1       2.114   0.101   1.083  0.00  0.00    -0.064 A 
ATOM     18  C   UNL     1       3.142  -0.465   0.353  0.00  0.00    +0.002 A 
ATOM     19  C   UNL     1       4.407   0.092   0.393  0.00  0.00    +0.000 A 
ATOM     20  C   UNL     1       4.643   1.215   1.163  0.00  0.00    +0.000 A 
ATOM     21  C   UNL     1       3.615   1.782   1.892  0.00  0.00    +0.000 A 
ATOM     22  C   UNL     1       2.349   1.228   1.849  0.00  0.00    +0.002 A 
ENDBRANCH  16  17
ENDBRANCH  14  16
ENDBRANCH  12  14
ENDBRANCH   9  12
ENDBRANCH   8   9
ENDBRANCH   7   8
ENDBRANCH   1   7
BRANCH   4  23
ATOM     23  C   UNL     1      -9.296  -2.101   3.578  0.00  0.00    +0.116 C 
BRANCH  23  24
ATOM     24  N   UNL     1      -9.206  -3.389   4.277  0.00  0.00    -0.308 NA
ATOM     25  H   UNL     1      -8.652  -4.048   3.751  0.00  0.00    +0.123 HD
BRANCH  24  26
ATOM     26  C   UNL     1     -10.543  -3.931   4.557  0.00  0.00    +0.116 C 
BRANCH  26  27
ATOM     27  C   UNL     1     -10.411  -5.250   5.273  0.00  0.00    -0.031 A 
ATOM     28  C   UNL     1     -10.334  -6.428   4.520  0.00  0.00    +0.007 A 
ATOM     29  C   UNL     1     -10.215  -7.643   5.104  0.00  0.00    +0.034 A 
ATOM     30  C   UNL     1     -10.164  -7.739   6.519  0.00  0.00    +0.134 A 
ATOM     31  C   UNL     1     -10.244  -6.498   7.312  0.00  0.00    +0.134 A 
ATOM     32  C   UNL     1     -10.364  -5.262   6.625  0.00  0.00    +0.038 A 
ATOM     33  N   UNL     1     -10.179  -6.821   8.583  0.00  0.00    -0.049 NA
ATOM     34  O   UNL     1     -10.059  -8.230   8.670  0.00  0.00    -0.242 OA
ATOM     35  N   UNL     1     -10.055  -8.749   7.351  0.00  0.00    -0.049 NA
ENDBRANCH  26  27
ENDBRANCH  24  26
ENDBRANCH  23  24
ENDBRANCH   4  23
TORSDOF 12
