REMARK  Name = ZINC06436848
REMARK  5 active torsions:
REMARK  status: ('A' for Active; 'I' for Inactive)
REMARK    1  A    between atoms: C_1  and  C_2
REMARK    2  A    between atoms: C_2  and  C_4
REMARK    3  A    between atoms: C_2  and  S_17
REMARK    4  A    between atoms: N_6  and  C_7
REMARK    5  A    between atoms: S_17  and  C_18
REMARK                            x       y       z     vdW  Elec       q    Type
REMARK                         _______ _______ _______ _____ _____    ______ ____
ROOT
ATOM      1  C   UNL     1      -2.906   7.708   0.013  0.00  0.00    +0.029 C 
ATOM      2  C   UNL     1      -1.875   7.313  -1.046  0.00  0.00    +0.134 C 
ENDROOT
BRANCH   2   3
ATOM      3  C   UNL     1      -1.526   5.856  -0.887  0.00  0.00    +0.226 C 
ATOM      4  O   UNL     1      -2.033   5.028  -1.614  0.00  0.00    -0.275 OA
ATOM      5  N   UNL     1      -0.649   5.472   0.061  0.00  0.00    -0.309 N 
ATOM      6  H   UNL     1      -0.243   6.134   0.642  0.00  0.00    +0.149 HD
BRANCH   5   7
ATOM      7  C   UNL     1      -0.309   4.055   0.215  0.00  0.00    +0.035 C 
ATOM      8  C   UNL     1       0.303   3.533  -1.087  0.00  0.00    +0.029 C 
ATOM      9  C   UNL     1       0.658   2.054  -0.926  0.00  0.00    -0.008 C 
ATOM     10  C   UNL     1       1.667   1.892   0.213  0.00  0.00    +0.007 C 
ATOM     11  C   UNL     1       1.054   2.413   1.514  0.00  0.00    -0.008 C 
ATOM     12  C   UNL     1       0.700   3.893   1.354  0.00  0.00    +0.029 C 
ATOM     13  C   UNL     1      -0.212   1.618   1.837  0.00  0.00    +0.007 C 
ATOM     14  C   UNL     1      -1.220   1.780   0.699  0.00  0.00    -0.008 C 
ATOM     15  C   UNL     1      -0.609   1.258  -0.603  0.00  0.00    +0.007 C 
ATOM     16  C   UNL     1      -1.575   3.259   0.538  0.00  0.00    +0.029 C 
ENDBRANCH   5   7
ENDBRANCH   2   3
BRANCH   2  17
ATOM     17  S   UNL     1      -2.568   7.593  -2.699  0.00  0.00    -0.113 S 
BRANCH  17  18
ATOM     18  C   UNL     1      -2.717   9.345  -2.807  0.00  0.00    +0.012 A 
ATOM     19  C   UNL     1      -1.635  10.110  -3.222  0.00  0.00    +0.018 A 
ATOM     20  C   UNL     1      -1.748  11.485  -3.309  0.00  0.00    +0.050 A 
ATOM     21  C   UNL     1      -2.946  12.099  -2.981  0.00  0.00    +0.162 A 
ATOM     22  C   UNL     1      -4.029  11.338  -2.566  0.00  0.00    +0.163 A 
ATOM     23  C   UNL     1      -3.920   9.961  -2.482  0.00  0.00    +0.064 A 
ATOM     24  O   UNL     1      -5.204  11.956  -2.246  0.00  0.00    -0.488 OA
ATOM     25  C   UNL     1      -5.184  12.762  -1.066  0.00  0.00    +0.232 C 
ATOM     26  C   UNL     1      -4.665  14.158  -1.376  0.00  0.00    +0.082 C 
ATOM     27  C   UNL     1      -3.212  14.149  -1.823  0.00  0.00    +0.232 C 
ATOM     28  O   UNL     1      -3.068  13.457  -3.065  0.00  0.00    -0.488 OA
ENDBRANCH  17  18
ENDBRANCH   2  17
TORSDOF 4
