REMARK  Name = ZINC23106322
REMARK  9 active torsions:
REMARK  status: ('A' for Active; 'I' for Inactive)
REMARK    1  A    between atoms: C_1  and  C_2
REMARK    2  A    between atoms: C_5  and  C_8
REMARK    3  A    between atoms: C_8  and  C_10
REMARK    4  A    between atoms: C_8  and  S_19
REMARK    5  A    between atoms: C_10  and  C_12
REMARK    6  A    between atoms: C_15  and  C_18
REMARK    7  A    between atoms: S_19  and  C_20
REMARK    8  A    between atoms: C_22  and  C_27
REMARK    9  A    between atoms: C_24  and  N_26
REMARK                            x       y       z     vdW  Elec       q    Type
REMARK                         _______ _______ _______ _____ _____    ______ ____
ROOT
ATOM      1  C   UNL     1      -2.514   0.980   0.019  0.00  0.00    +0.155 C 
ENDROOT
BRANCH   1   6
ATOM      2  C   UNL     1       2.451   3.937  -0.001  0.00  0.00    +0.044 C 
ATOM      3  C   UNL     1       1.156   3.165   0.008  0.00  0.00    -0.050 A 
ATOM      4  C   UNL     1       1.175   1.783   0.000  0.00  0.00    +0.003 A 
ATOM      5  C   UNL     1      -0.013   1.076   0.008  0.00  0.00    +0.005 A 
ATOM      6  C   UNL     1      -1.219   1.751   0.017  0.00  0.00    -0.027 A 
ATOM      7  C   UNL     1      -1.238   3.133   0.030  0.00  0.00    +0.005 A 
ATOM      8  C   UNL     1      -0.050   3.840   0.022  0.00  0.00    +0.003 A 
ENDBRANCH   1   6
BRANCH   1   9
ATOM      9  C   UNL     1      -3.303   1.326   1.255  0.00  0.00    +0.181 C 
ATOM     10  O   UNL     1      -4.153   2.190   1.210  0.00  0.00    -0.291 OA
BRANCH   9  11
ATOM     11  C   UNL     1      -3.042   0.617   2.518  0.00  0.00    +0.019 A 
ATOM     12  C   UNL     1      -2.066  -0.384   2.574  0.00  0.00    +0.011 A 
ATOM     13  C   UNL     1      -1.823  -1.040   3.762  0.00  0.00    +0.004 A 
ATOM     14  C   UNL     1      -2.550  -0.719   4.895  0.00  0.00    -0.050 A 
ATOM     15  C   UNL     1      -3.522   0.266   4.847  0.00  0.00    +0.004 A 
ATOM     16  C   UNL     1      -3.772   0.935   3.667  0.00  0.00    +0.011 A 
ATOM     17  C   UNL     1      -2.283  -1.445   6.188  0.00  0.00    +0.044 C 
ENDBRANCH   9  11
ENDBRANCH   1   9
BRANCH   1  18
ATOM     18  S   UNL     1      -3.476   1.412  -1.452  0.00  0.00    -0.070 S 
BRANCH  18  19
ATOM     19  C   UNL     1      -2.415   0.779  -2.708  0.00  0.00    +0.191 A 
ATOM     20  N   UNL     1      -2.773   0.901  -3.978  0.00  0.00    -0.227 NA
ATOM     21  C   UNL     1      -2.002   0.438  -4.951  0.00  0.00    +0.044 A 
ATOM     22  C   UNL     1      -0.808  -0.180  -4.631  0.00  0.00    +0.066 A 
ATOM     23  C   UNL     1      -0.457  -0.294  -3.284  0.00  0.00    +0.121 A 
ATOM     24  N   UNL     1      -1.276   0.198  -2.360  0.00  0.00    -0.207 NA
ATOM     25  C   UNL     1      -2.421   0.584  -6.391  0.00  0.00    +0.066 C 
BRANCH  23  26
ATOM     26  N   UNL     1       0.730  -0.906  -2.917  0.00  0.00    -0.343 N 
ATOM     27  H   UNL     1       0.999  -0.992  -1.853  0.00  0.00    +0.144 HD
ATOM     28  H   UNL     1       1.404  -1.307  -3.688  0.00  0.00    +0.144 HD
ENDBRANCH  23  26
ENDBRANCH  18  19
ENDBRANCH   1  18
TORSDOF 6
