REMARK  Name = ZINC45865640
REMARK  11 active torsions:
REMARK  status: ('A' for Active; 'I' for Inactive)
REMARK    1  A    between atoms: C_1  and  C_2
REMARK    2  A    between atoms: C_2  and  C_3
REMARK    3  A    between atoms: C_3  and  C_5
REMARK    4  A    between atoms: C_3  and  C_6
REMARK    5  A    between atoms: C_9  and  C_12
REMARK    6  A    between atoms: C_12  and  C_14
REMARK    7  A    between atoms: C_12  and  N_19
REMARK    8  A    between atoms: C_20  and  C_22
REMARK    9  A    between atoms: C_22  and  N_23
REMARK   10  A    between atoms: C_26  and  C_30
REMARK   11  A    between atoms: C_26  and  C_31
REMARK                            x       y       z     vdW  Elec       q    Type
REMARK                         _______ _______ _______ _____ _____    ______ ____
ROOT
ATOM      1  N   UNL     1       0.632  -6.699  -2.905  0.00  0.00    -0.303 N 
ATOM      2  C   UNL     1       1.101  -7.939  -3.143  0.00  0.00    +0.232 C 
ATOM      3  O   UNL     1       1.320  -8.693  -2.219  0.00  0.00    -0.274 OA
ATOM      4  H   UNL     1       0.456  -6.096  -3.644  0.00  0.00    +0.150 HD
ENDROOT
BRANCH   1   5
ATOM      5  C   UNL     1       0.387  -6.260  -1.528  0.00  0.00    +0.140 C 
BRANCH   5   9
ATOM      6  C   UNL     1       0.632  -2.000  -1.327  0.00  0.00    -0.045 A 
ATOM      7  C   UNL     1       1.163  -2.772  -0.311  0.00  0.00    +0.004 A 
ATOM      8  C   UNL     1       1.084  -4.150  -0.376  0.00  0.00    +0.006 A 
ATOM      9  C   UNL     1       0.472  -4.757  -1.457  0.00  0.00    -0.022 A 
ATOM     10  C   UNL     1      -0.060  -3.986  -2.473  0.00  0.00    +0.006 A 
ATOM     11  C   UNL     1       0.016  -2.607  -2.406  0.00  0.00    +0.004 A 
BRANCH   6  12
ATOM     12  C   UNL     1       0.718  -0.497  -1.257  0.00  0.00    +0.016 C 
ATOM     13  C   UNL     1       2.187  -0.073  -1.207  0.00  0.00    +0.012 C 
BRANCH  12  15
ATOM     14  C   UNL     1      -0.019   1.526   0.010  0.00  0.00    +0.004 C 
ATOM     15  C   UNL     1       0.002  -0.004   0.002  0.00  0.00    +0.004 C 
ENDBRANCH  12  15
ENDBRANCH   6  12
ENDBRANCH   5   9
BRANCH   5  16
ATOM     16  C   UNL     1      -0.986  -6.706  -1.096  0.00  0.00    +0.014 A 
ATOM     17  C   UNL     1      -1.387  -7.193   0.104  0.00  0.00    +0.013 A 
ATOM     18  C   UNL     1      -2.713  -7.542   0.277  0.00  0.00    +0.008 A 
ATOM     19  C   UNL     1      -3.574  -7.386  -0.759  0.00  0.00    +0.045 A 
ATOM     20  S   UNL     1      -2.509  -6.723  -2.028  0.00  0.00    -0.099 S 
ENDBRANCH   5  16
ENDBRANCH   1   5
BRANCH   2  21
ATOM     21  C   UNL     1       1.353  -8.390  -4.559  0.00  0.00    +0.213 C 
BRANCH  21  22
ATOM     22  N   UNL     1       1.856  -9.766  -4.551  0.00  0.00    -0.215 N 
ATOM     23  C   UNL     1       3.161 -10.094  -4.477  0.00  0.00    +0.251 C 
ATOM     24  O   UNL     1       4.104  -9.336  -4.408  0.00  0.00    -0.272 OA
ATOM     25  C   UNL     1       3.204 -11.610  -4.498  0.00  0.00    +0.135 C 
ATOM     26  N   UNL     1       1.786 -11.995  -4.590  0.00  0.00    -0.281 N 
ATOM     27  C   UNL     1       1.077 -10.852  -4.610  0.00  0.00    +0.310 C 
ATOM     28  O   UNL     1      -0.136 -10.810  -4.677  0.00  0.00    -0.252 OA
ATOM     29  C   UNL     1       3.978 -12.109  -5.720  0.00  0.00    +0.047 C 
ATOM     30  H   UNL     1       1.432 -12.898  -4.626  0.00  0.00    +0.152 HD
BRANCH  25  31
ATOM     31  C   UNL     1       3.817 -12.140  -3.228  0.00  0.00    -0.015 A 
ATOM     32  C   UNL     1       4.763 -11.392  -2.552  0.00  0.00    +0.009 A 
ATOM     33  C   UNL     1       5.325 -11.877  -1.387  0.00  0.00    +0.039 A 
ATOM     34  C   UNL     1       4.941 -13.113  -0.896  0.00  0.00    +0.123 A 
ATOM     35  C   UNL     1       3.994 -13.862  -1.574  0.00  0.00    +0.039 A 
ATOM     36  C   UNL     1       3.429 -13.373  -2.736  0.00  0.00    +0.009 A 
ATOM     37  F   UNL     1       5.491 -13.589   0.243  0.00  0.00    -0.205 F 
ENDBRANCH  25  31
ENDBRANCH  21  22
ENDBRANCH   2  21
TORSDOF 8
