REMARK  Name = ZINC38701819
REMARK  6 active torsions:
REMARK  status: ('A' for Active; 'I' for Inactive)
REMARK    1  A    between atoms: C_1  and  S_2
REMARK    2  A    between atoms: S_2  and  C_3
REMARK    3  A    between atoms: C_6  and  C_9
REMARK    4  A    between atoms: C_12  and  C_28
REMARK    5  A    between atoms: N_19  and  C_20
REMARK    6  A    between atoms: C_33  and  O_34
REMARK                            x       y       z     vdW  Elec       q    Type
REMARK                         _______ _______ _______ _____ _____    ______ ____
ROOT
ATOM      1  C   UNL     1      -5.791  -1.559   0.056  0.00  0.00    +0.142 C 
ATOM      2  C   UNL     1      -6.197  -2.091   1.403  0.00  0.00    +0.035 A 
ATOM      3  C   UNL     1      -6.331  -1.850   2.775  0.00  0.00    +0.102 A 
ATOM      4  N   UNL     1      -6.813  -2.947   3.323  0.00  0.00    -0.173 NA
ATOM      5  N   UNL     1      -6.998  -3.857   2.434  0.00  0.00    -0.272 N 
ATOM      6  H   UNL     1      -7.346  -4.745   2.610  0.00  0.00    +0.189 HD
ATOM      7  C   UNL     1      -6.632  -3.387   1.205  0.00  0.00    +0.126 A 
ATOM      8  C   UNL     1      -6.517  -3.704  -0.223  0.00  0.00    +0.266 C 
ATOM      9  O   UNL     1      -6.820  -4.770  -0.724  0.00  0.00    -0.268 OA
ATOM     10  N   UNL     1      -6.029  -2.648  -0.901  0.00  0.00    -0.280 N 
ENDROOT
BRANCH  10  11
ATOM     11  C   UNL     1      -5.779  -2.592  -2.343  0.00  0.00    +0.100 C 
ATOM     12  C   UNL     1      -7.085  -2.868  -3.107  0.00  0.00    +0.047 C 
ATOM     13  C   UNL     1      -6.777  -3.129  -4.601  0.00  0.00    +0.168 C 
ATOM     14  S   UNL     1      -5.072  -3.817  -4.548  0.00  0.00    -0.029 S 
ATOM     15  O   UNL     1      -5.116  -5.191  -4.911  0.00  0.00    -0.174 OA
ATOM     16  O   UNL     1      -4.197  -2.939  -5.242  0.00  0.00    -0.174 OA
ATOM     17  C   UNL     1      -4.746  -3.685  -2.740  0.00  0.00    +0.188 C 
ENDBRANCH  10  11
BRANCH   1  21
ATOM     18  C   UNL     1      -1.649  -0.504   0.081  0.00  0.00    +0.008 A 
ATOM     19  C   UNL     1      -2.619   0.487  -0.007  0.00  0.00    +0.015 A 
ATOM     20  C   UNL     1      -3.957   0.142  -0.015  0.00  0.00    +0.007 A 
ATOM     21  C   UNL     1      -4.330  -1.187   0.065  0.00  0.00    -0.022 A 
ATOM     22  C   UNL     1      -3.367  -2.176   0.152  0.00  0.00    +0.007 A 
ATOM     23  C   UNL     1      -2.028  -1.839   0.154  0.00  0.00    +0.015 A 
BRANCH  18  25
ATOM     24  C   UNL     1       0.051   1.742  -0.021  0.00  0.00    +0.090 C 
ATOM     25  S   UNL     1       0.059  -0.069   0.091  0.00  0.00    -0.129 S 
ENDBRANCH  18  25
ENDBRANCH   1  21
BRANCH   3  26
ATOM     26  C   UNL     1      -5.991  -0.590   3.483  0.00  0.00    +0.044 A 
ATOM     27  C   UNL     1      -5.611   0.538   2.760  0.00  0.00    +0.014 A 
ATOM     28  C   UNL     1      -5.296   1.707   3.423  0.00  0.00    +0.001 A 
ATOM     29  C   UNL     1      -5.356   1.762   4.804  0.00  0.00    +0.004 A 
ATOM     30  C   UNL     1      -5.731   0.649   5.531  0.00  0.00    +0.046 A 
ATOM     31  C   UNL     1      -6.056  -0.529   4.878  0.00  0.00    +0.126 A 
BRANCH  31  32
ATOM     32  O   UNL     1      -6.432  -1.623   5.591  0.00  0.00    -0.506 OA
ATOM     33  H   UNL     1      -5.697  -2.196   5.848  0.00  0.00    +0.292 HD
ENDBRANCH  31  32
ENDBRANCH   3  26
TORSDOF 5
