REMARK  Name = ZINC39926840
REMARK  5 active torsions:
REMARK  status: ('A' for Active; 'I' for Inactive)
REMARK    1  A    between atoms: C_1  and  C_2
REMARK    2  A    between atoms: C_5  and  N_8
REMARK    3  A    between atoms: C_9  and  S_25
REMARK    4  A    between atoms: S_25  and  C_26
REMARK    5  A    between atoms: C_26  and  C_27
REMARK                            x       y       z     vdW  Elec       q    Type
REMARK                         _______ _______ _______ _____ _____    ______ ____
ROOT
ATOM      1  N   UNL     1       0.059  -4.170  -0.021  0.00  0.00    -0.246 N 
ATOM      2  C   UNL     1       0.179  -4.882   1.241  0.00  0.00    +0.210 C 
ATOM      3  N   UNL     1       0.941  -6.134   1.205  0.00  0.00    -0.277 NA
ATOM      4  C   UNL     1       1.446  -6.415  -0.130  0.00  0.00    +0.135 C 
ATOM      5  C   UNL     1       0.212  -6.295  -1.075  0.00  0.00    +0.130 C 
ATOM      6  C   UNL     1      -0.043  -4.831  -1.217  0.00  0.00    +0.231 C 
ATOM      7  O   UNL     1      -0.307  -4.289  -2.269  0.00  0.00    -0.274 OA
ATOM      8  C   UNL     1       0.345  -7.155  -2.271  0.00  0.00    -0.046 C 
ATOM      9  C   UNL     1       1.120  -8.239  -2.119  0.00  0.00    -0.013 C 
ATOM     10  S   UNL     1       1.796  -8.188  -0.436  0.00  0.00    -0.110 S 
ATOM     11  C   UNL     1       1.389  -9.303  -3.141  0.00  0.00    +0.042 C 
ATOM     12  C   UNL     1       0.384  -9.156  -4.290  0.00  0.00    +0.005 C 
ATOM     13  C   UNL     1       0.335  -7.681  -4.705  0.00  0.00    +0.005 C 
ATOM     14  C   UNL     1      -0.339  -6.865  -3.603  0.00  0.00    +0.032 C 
ATOM     15  H   UNL     1       1.691  -6.121   1.880  0.00  0.00    +0.126 HD
ENDROOT
BRANCH   1  20
ATOM     16  C   UNL     1      -0.015   1.503   0.012  0.00  0.00    +0.044 C 
ATOM     17  C   UNL     1       0.004  -0.004   0.003  0.00  0.00    -0.050 A 
ATOM     18  C   UNL     1      -0.932  -0.711   0.736  0.00  0.00    +0.005 A 
ATOM     19  C   UNL     1      -0.916  -2.091   0.730  0.00  0.00    +0.024 A 
ATOM     20  C   UNL     1       0.040  -2.771  -0.013  0.00  0.00    +0.039 A 
ATOM     21  C   UNL     1       0.978  -2.058  -0.749  0.00  0.00    +0.024 A 
ATOM     22  C   UNL     1       0.955  -0.677  -0.742  0.00  0.00    +0.005 A 
ENDBRANCH   1  20
BRANCH   2  23
ATOM     23  S   UNL     1       0.974  -3.777   2.440  0.00  0.00    -0.115 S 
BRANCH  23  24
ATOM     24  C   UNL     1       2.583  -3.402   1.692  0.00  0.00    +0.146 C 
BRANCH  24  25
ATOM     25  C   UNL     1       3.356  -2.479   2.599  0.00  0.00    +0.118 A 
ATOM     26  N   UNL     1       4.165  -2.866   3.541  0.00  0.00    -0.232 NA
ATOM     27  C   UNL     1       4.694  -1.781   4.163  0.00  0.00    +0.089 A 
ATOM     28  C   UNL     1       5.596  -1.619   5.217  0.00  0.00    +0.030 A 
ATOM     29  C   UNL     1       5.944  -0.363   5.629  0.00  0.00    +0.002 A 
ATOM     30  C   UNL     1       5.409   0.758   5.010  0.00  0.00    +0.002 A 
ATOM     31  C   UNL     1       4.516   0.622   3.969  0.00  0.00    +0.028 A 
ATOM     32  C   UNL     1       4.152  -0.646   3.536  0.00  0.00    +0.066 A 
ATOM     33  N   UNL     1       3.314  -1.121   2.547  0.00  0.00    -0.341 N 
ATOM     34  H   UNL     1       2.790  -0.585   1.931  0.00  0.00    +0.167 HD
ENDBRANCH  24  25
ENDBRANCH  23  24
ENDBRANCH   2  23
TORSDOF 4
