REMARK  Name = ZINC67267360
REMARK  7 active torsions:
REMARK  status: ('A' for Active; 'I' for Inactive)
REMARK    1  A    between atoms: C_1  and  N_2
REMARK    2  A    between atoms: N_2  and  C_3
REMARK    3  A    between atoms: N_2  and  C_4
REMARK    4  A    between atoms: C_4  and  C_6
REMARK    5  A    between atoms: C_4  and  C_22
REMARK    6  A    between atoms: C_6  and  N_7
REMARK    7  A    between atoms: C_8  and  C_10
REMARK                            x       y       z     vdW  Elec       q    Type
REMARK                         _______ _______ _______ _____ _____    ______ ____
ROOT
ATOM      1  N   UNL     1      -0.871  -2.414   1.128  0.00  0.00    -0.317 N 
ATOM      2  C   UNL     1      -0.781  -3.742   1.338  0.00  0.00    +0.216 C 
ATOM      3  O   UNL     1      -1.311  -4.515   0.569  0.00  0.00    -0.276 OA
ATOM      4  H   UNL     1      -0.447  -1.796   1.744  0.00  0.00    +0.149 HD
ENDROOT
BRANCH   2   5
ATOM      5  C   UNL     1      -0.021  -4.267   2.530  0.00  0.00    +0.075 C 
ATOM      6  C   UNL     1       1.435  -3.805   2.450  0.00  0.00    +0.015 C 
ATOM      7  C   UNL     1       2.203  -4.328   3.666  0.00  0.00    +0.036 C 
ATOM      8  C   UNL     1       2.136  -5.851   3.697  0.00  0.00    +0.112 C 
ATOM      9  C   UNL     1       0.689  -6.327   3.751  0.00  0.00    +0.036 C 
ATOM     10  C   UNL     1      -0.072  -5.796   2.534  0.00  0.00    +0.015 C 
ATOM     11  C   UNL     1       2.839  -6.434   2.493  0.00  0.00    +0.244 C 
ATOM     12  O   UNL     1       2.555  -6.269   1.326  0.00  0.00    -0.273 OA
ATOM     13  N   UNL     1       3.849  -7.178   2.991  0.00  0.00    -0.238 N 
ATOM     14  C   UNL     1       3.875  -7.141   4.329  0.00  0.00    +0.307 C 
ATOM     15  O   UNL     1       4.694  -7.732   5.005  0.00  0.00    -0.252 OA
ATOM     16  N   UNL     1       2.893  -6.375   4.841  0.00  0.00    -0.285 N 
ATOM     17  H   UNL     1       4.477  -7.678   2.447  0.00  0.00    +0.159 HD
ATOM     18  H   UNL     1       2.720  -6.204   5.780  0.00  0.00    +0.151 HD
ENDBRANCH   2   5
BRANCH   1  19
ATOM     19  C   UNL     1      -1.609  -1.904  -0.030  0.00  0.00    +0.089 C 
BRANCH  19  20
ATOM     20  C   UNL     1      -1.401  -0.392  -0.142  0.00  0.00    -0.049 C 
BRANCH  20  21
ATOM     21  C   UNL     1      -2.357   0.178  -1.192  0.00  0.00    -0.023 C 
ATOM     22  C   UNL     1      -2.072   1.668  -1.385  0.00  0.00    +0.002 C 
ATOM     23  C   UNL     1      -3.028   2.238  -2.435  0.00  0.00    +0.000 C 
ATOM     24  C   UNL     1      -4.472   2.053  -1.964  0.00  0.00    +0.000 C 
ATOM     25  C   UNL     1      -4.757   0.562  -1.770  0.00  0.00    +0.000 C 
ATOM     26  C   UNL     1      -3.801  -0.008  -0.720  0.00  0.00    +0.002 C 
ENDBRANCH  20  21
BRANCH  20  28
ATOM     27  C   UNL     1       0.904  -0.660   0.468  0.00  0.00    -0.096 C 
ATOM     28  N   UNL     1      -0.014  -0.117  -0.542  0.00  0.00    +0.379 N 
ATOM     29  C   UNL     1       0.255  -0.750  -1.840  0.00  0.00    -0.096 C 
ATOM     30  H   UNL     1       0.122   0.879  -0.620  0.00  0.00    -0.082 HD
ENDBRANCH  20  28
ENDBRANCH  19  20
ENDBRANCH   1  19
TORSDOF 5
