REMARK  Name = ZINC41006084
REMARK  3 active torsions:
REMARK  status: ('A' for Active; 'I' for Inactive)
REMARK    1  A    between atoms: C_6  and  C_7
REMARK    2  A    between atoms: C_8  and  C_9
REMARK    3  A    between atoms: C_15  and  C_20
REMARK                            x       y       z     vdW  Elec       q    Type
REMARK                         _______ _______ _______ _____ _____    ______ ____
ROOT
ATOM      1  C   UNL     1      -2.493  -2.861   0.011  0.00  0.00    +0.243 C 
ATOM      2  O   UNL     1      -3.557  -2.270   0.025  0.00  0.00    -0.270 OA
ATOM      3  N   UNL     1      -2.471  -4.209   0.004  0.00  0.00    -0.260 N 
ATOM      4  C   UNL     1      -3.662  -4.923   0.012  0.00  0.00    +0.188 A 
ATOM      5  N   UNL     1      -3.843  -6.216   0.012  0.00  0.00    -0.140 NA
ATOM      6  N   UNL     1      -5.119  -6.764   0.021  0.00  0.00    -0.184 N 
ATOM      7  C   UNL     1      -5.738  -8.005   0.024  0.00  0.00    +0.186 A 
ATOM      8  N   UNL     1      -7.037  -7.806   0.034  0.00  0.00    -0.126 NA
ATOM      9  N   UNL     1      -7.285  -6.542   0.037  0.00  0.00    -0.120 NA
ATOM     10  C   UNL     1      -6.167  -5.878   0.029  0.00  0.00    +0.220 A 
ATOM     11  S   UNL     1      -5.338  -4.308   0.033  0.00  0.00    -0.011 S 
ATOM     12  H   UNL     1      -1.623  -4.680  -0.007  0.00  0.00    +0.157 HD
ENDROOT
BRANCH   7  13
ATOM     13  C   UNL     1      -5.059  -9.317   0.018  0.00  0.00    +0.021 A 
ATOM     14  C   UNL     1      -3.702  -9.402  -0.299  0.00  0.00    +0.014 A 
ATOM     15  C   UNL     1      -3.072 -10.629  -0.304  0.00  0.00    +0.039 A 
ATOM     16  C   UNL     1      -3.784 -11.777   0.006  0.00  0.00    +0.123 A 
ATOM     17  C   UNL     1      -5.132 -11.699   0.321  0.00  0.00    +0.039 A 
ATOM     18  C   UNL     1      -5.770 -10.476   0.335  0.00  0.00    +0.014 A 
ATOM     19  F   UNL     1      -3.163 -12.977  -0.001  0.00  0.00    -0.205 F 
ENDBRANCH   7  13
BRANCH   1  21
ATOM     20  C   UNL     1      -1.260  -0.760   0.011  0.00  0.00    +0.013 C 
ATOM     21  C   UNL     1      -1.238  -2.109   0.003  0.00  0.00    +0.068 C 
BRANCH  20  27
ATOM     22  C   UNL     1      -0.017   1.395   0.010  0.00  0.00    +0.009 A 
ATOM     23  C   UNL     1       1.169   2.096   0.002  0.00  0.00    +0.020 A 
ATOM     24  C   UNL     1       2.378   1.420  -0.013  0.00  0.00    +0.041 A 
ATOM     25  C   UNL     1       2.405   0.035  -0.021  0.00  0.00    +0.020 A 
ATOM     26  C   UNL     1       1.226  -0.680  -0.014  0.00  0.00    +0.009 A 
ATOM     27  C   UNL     1       0.002  -0.004   0.002  0.00  0.00    -0.025 A 
ATOM     28 CL   UNL     1       3.867   2.313  -0.023  0.00  0.00    -0.084 Cl
ENDBRANCH  20  27
ENDBRANCH   1  21
TORSDOF 3
