REMARK  Name = ZINC20713723
REMARK  7 active torsions:
REMARK  status: ('A' for Active; 'I' for Inactive)
REMARK    1  A    between atoms: C_1  and  C_2
REMARK    2  A    between atoms: C_2  and  C_3
REMARK    3  A    between atoms: C_3  and  C_5
REMARK    4  A    between atoms: C_3  and  N_6
REMARK    5  A    between atoms: C_7  and  C_9
REMARK    6  A    between atoms: C_22  and  C_25
REMARK    7  A    between atoms: C_30  and  N_31
REMARK                            x       y       z     vdW  Elec       q    Type
REMARK                         _______ _______ _______ _____ _____    ______ ____
ROOT
ATOM      1  C   UNL     1       5.467  -2.439  -1.262  0.00  0.00    +0.037 A 
ATOM      2  C   UNL     1       4.741  -1.762  -0.276  0.00  0.00    +0.015 A 
ATOM      3  C   UNL     1       5.128  -0.498   0.103  0.00  0.00    +0.024 A 
ATOM      4  C   UNL     1       6.226   0.110  -0.500  0.00  0.00    +0.031 A 
ATOM      5  C   UNL     1       6.952  -0.552  -1.483  0.00  0.00    -0.019 A 
ATOM      6  C   UNL     1       6.567  -1.826  -1.861  0.00  0.00    +0.019 A 
ATOM      7  C   UNL     1       8.143   0.063  -2.149  0.00  0.00    +0.049 C 
ATOM      8  C   UNL     1       7.815   0.519  -3.552  0.00  0.00    -0.023 C 
ATOM      9  C   UNL     1       8.453   1.630  -3.829  0.00  0.00    -0.030 C 
ATOM     10  C   UNL     1       9.299   2.064  -2.648  0.00  0.00    +0.033 C 
ATOM     11  C   UNL     1       8.633   1.341  -1.441  0.00  0.00    +0.029 C 
ATOM     12  C   UNL     1       7.434   2.189  -1.006  0.00  0.00    +0.107 C 
ATOM     13  N   UNL     1       6.592   1.395  -0.105  0.00  0.00    -0.336 N 
ATOM     14  H   UNL     1       6.265   1.817   0.857  0.00  0.00    +0.147 HD
ENDROOT
BRANCH  12  15
ATOM     15  C   UNL     1       6.634   2.595  -2.217  0.00  0.00    +0.003 A 
ATOM     16  C   UNL     1       5.680   1.738  -2.734  0.00  0.00    +0.008 A 
ATOM     17  C   UNL     1       4.942   2.113  -3.841  0.00  0.00    +0.000 A 
ATOM     18  C   UNL     1       5.167   3.339  -4.439  0.00  0.00    +0.002 A 
ATOM     19  C   UNL     1       6.125   4.193  -3.926  0.00  0.00    +0.033 A 
ATOM     20  C   UNL     1       6.858   3.821  -2.814  0.00  0.00    +0.131 A 
BRANCH  20  21
ATOM     21  N   UNL     1       7.884   4.735  -2.265  0.00  0.00    +0.057 N 
ATOM     22  O   UNL     1       8.607   5.363  -3.018  0.00  0.00    -0.126 OA
ATOM     23  O   UNL     1       8.006   4.860  -1.059  0.00  0.00    -0.126 OA
ENDBRANCH  20  21
ENDBRANCH  12  15
BRANCH   1  25
ATOM     24  N   UNL     1       3.998  -4.387  -1.097  0.00  0.00    -0.309 N 
ATOM     25  C   UNL     1       5.065  -3.797  -1.672  0.00  0.00    +0.244 C 
ATOM     26  O   UNL     1       5.694  -4.383  -2.532  0.00  0.00    -0.270 OA
ATOM     27  H   UNL     1       3.430  -3.857  -0.318  0.00  0.00    +0.149 HD
BRANCH  24  28
ATOM     28  C   UNL     1       3.596  -5.734  -1.508  0.00  0.00    +0.070 C 
ATOM     29  C   UNL     1       2.696  -5.643  -2.742  0.00  0.00    +0.028 C 
BRANCH  28  31
ATOM     30  C   UNL     1       3.768  -6.613   0.824  0.00  0.00    +0.005 C 
ATOM     31  C   UNL     1       2.831  -6.409  -0.368  0.00  0.00    +0.018 C 
ENDBRANCH  28  31
ENDBRANCH  24  28
ENDBRANCH   1  25
TORSDOF 5
