REMARK  Name = ZINC04896363
REMARK  4 active torsions:
REMARK  status: ('A' for Active; 'I' for Inactive)
REMARK    1  A    between atoms: C_1  and  C_2
REMARK    2  A    between atoms: C_5  and  C_26
REMARK    3  A    between atoms: C_7  and  C_24
REMARK    4  A    between atoms: C_7  and  O_25
REMARK                            x       y       z     vdW  Elec       q    Type
REMARK                         _______ _______ _______ _____ _____    ______ ____
ROOT
ATOM      1  C   UNL     1      -1.731   1.575   3.477  0.00  0.00    +0.036 C 
ATOM      2  C   UNL     1      -1.015   0.998   2.283  0.00  0.00    -0.020 C 
ATOM      3  C   UNL     1      -0.725   1.774   1.242  0.00  0.00    +0.033 C 
ATOM      4  C   UNL     1      -0.009   1.199   0.046  0.00  0.00    +0.048 C 
ATOM      5  C   UNL     1      -0.753   1.593  -1.232  0.00  0.00    +0.033 C 
ATOM      6  C   UNL     1      -0.343   3.007  -1.645  0.00  0.00    +0.162 C 
ATOM      7  C   UNL     1      -1.563   3.888  -1.707  0.00  0.00    +0.339 C 
ATOM      8  O   UNL     1      -1.761   4.576  -2.680  0.00  0.00    -0.248 OA
ATOM      9  O   UNL     1      -2.432   3.911  -0.684  0.00  0.00    -0.458 OA
ATOM     10  C   UNL     1      -3.575   4.797  -0.803  0.00  0.00    +0.261 C 
ATOM     11  C   UNL     1      -3.616   5.734   0.376  0.00  0.00    -0.048 C 
ATOM     12  C   UNL     1      -3.716   7.037   0.292  0.00  0.00    -0.044 C 
ATOM     13  C   UNL     1      -3.723   7.618   1.686  0.00  0.00    -0.050 C 
ATOM     14  C   UNL     1      -3.537   5.319   1.820  0.00  0.00    +0.003 C 
ATOM     15  C   UNL     1      -2.074   5.132   2.239  0.00  0.00    +0.166 C 
ATOM     16  C   UNL     1      -1.937   5.798   3.619  0.00  0.00    +0.025 C 
ATOM     17  C   UNL     1      -3.215   6.624   3.804  0.00  0.00    -0.074 C 
ATOM     18  O   UNL     1      -1.744   3.721   2.318  0.00  0.00    -0.459 OA
ATOM     19  C   UNL     1      -1.101   3.194   1.256  0.00  0.00    +0.335 C 
ATOM     20  O   UNL     1      -0.830   3.898   0.303  0.00  0.00    -0.245 OA
ATOM     21  C   UNL     1       0.324   2.962  -3.021  0.00  0.00    +0.054 C 
ATOM     22  C   UNL     1      -2.261   1.553  -0.977  0.00  0.00    +0.011 C 
ATOM     23  N   UNL     1      -3.998   6.483   2.552  0.00  0.00    +0.389 N 
ATOM     24  H   UNL     1      -5.000   6.413   2.765  0.00  0.00    -0.080 HD
ENDROOT
BRANCH   6  25
ATOM     25  O   UNL     1       0.577   3.535  -0.687  0.00  0.00    -0.377 OA
ATOM     26  H   UNL     1       0.880   4.431  -0.886  0.00  0.00    +0.211 HD
ENDBRANCH   6  25
TORSDOF 1
