REMARK  Name = ZINC35424258
REMARK  9 active torsions:
REMARK  status: ('A' for Active; 'I' for Inactive)
REMARK    1  A    between atoms: C_1  and  C_2
REMARK    2  A    between atoms: C_2  and  C_3
REMARK    3  A    between atoms: C_2  and  N_4
REMARK    4  A    between atoms: N_4  and  C_5
REMARK    5  A    between atoms: C_8  and  C_31
REMARK    6  A    between atoms: C_11  and  C_27
REMARK    7  A    between atoms: C_27  and  O_29
REMARK    8  A    between atoms: O_29  and  C_30
REMARK    9  A    between atoms: C_34  and  C_37
REMARK                            x       y       z     vdW  Elec       q    Type
REMARK                         _______ _______ _______ _____ _____    ______ ____
ROOT
ATOM      1  C   UNL     1      -2.378  -2.326   0.446  0.00  0.00    -0.068 C 
ATOM      2  C   UNL     1      -1.470  -2.621  -0.751  0.00  0.00    +0.008 C 
ATOM      3  C   UNL     1      -2.054  -1.969  -2.007  0.00  0.00    +0.087 C 
ATOM      4  N   UNL     1      -3.402  -2.495  -2.245  0.00  0.00    -0.274 NA
ATOM      5  C   UNL     1      -3.943  -2.049  -3.534  0.00  0.00    +0.172 C 
ATOM      6  C   UNL     1      -5.149  -2.920  -3.912  0.00  0.00    +0.068 C 
ATOM      7  C   UNL     1      -6.062  -3.005  -2.715  0.00  0.00    -0.016 A 
ATOM      8  C   UNL     1      -7.441  -3.434  -2.644  0.00  0.00    +0.003 A 
ATOM      9  C   UNL     1      -8.345  -3.891  -3.608  0.00  0.00    +0.010 A 
ATOM     10  C   UNL     1      -9.605  -4.218  -3.172  0.00  0.00    +0.001 A 
ATOM     11  C   UNL     1      -9.976  -4.106  -1.842  0.00  0.00    +0.002 A 
ATOM     12  C   UNL     1      -9.103  -3.656  -0.867  0.00  0.00    +0.026 A 
ATOM     13  C   UNL     1      -7.816  -3.317  -1.280  0.00  0.00    +0.047 A 
ATOM     14  N   UNL     1      -6.729  -2.850  -0.597  0.00  0.00    -0.356 N 
ATOM     15  H   UNL     1      -6.702  -2.676   0.357  0.00  0.00    +0.166 HD
ATOM     16  C   UNL     1      -5.685  -2.664  -1.461  0.00  0.00    +0.038 A 
ATOM     17  C   UNL     1      -4.302  -2.160  -1.131  0.00  0.00    +0.103 C 
ATOM     18  C   UNL     1      -3.793  -2.831   0.146  0.00  0.00    +0.009 C 
ENDROOT
BRANCH   3  19
ATOM     19  C   UNL     1      -1.175  -2.281  -3.191  0.00  0.00    -0.030 A 
ATOM     20  C   UNL     1      -1.280  -3.505  -3.826  0.00  0.00    +0.006 A 
ATOM     21  C   UNL     1      -0.473  -3.792  -4.911  0.00  0.00    +0.013 A 
ATOM     22  C   UNL     1       0.438  -2.855  -5.362  0.00  0.00    +0.055 A 
ATOM     23  C   UNL     1       0.542  -1.631  -4.728  0.00  0.00    +0.013 A 
ATOM     24  C   UNL     1      -0.267  -1.343  -3.645  0.00  0.00    +0.006 A 
BRANCH  22  25
ATOM     25  C   UNL     1       1.318  -3.168  -6.545  0.00  0.00    +0.417 C 
ATOM     26  F   UNL     1       0.677  -2.767  -7.722  0.00  0.00    -0.166 F 
ATOM     27  F   UNL     1       2.531  -2.483  -6.418  0.00  0.00    -0.166 F 
ATOM     28  F   UNL     1       1.562  -4.545  -6.593  0.00  0.00    -0.166 F 
ENDBRANCH  22  25
ENDBRANCH   3  19
BRANCH   1  29
ATOM     29  N   UNL     1      -2.416  -0.878   0.688  0.00  0.00    +0.383 N 
ATOM     30  H   UNL     1      -3.078  -0.677   1.422  0.00  0.00    -0.085 HD
ATOM     31  H   UNL     1      -2.696  -0.403  -0.157  0.00  0.00    -0.085 HD
BRANCH  29  33
ATOM     32  C   UNL     1      -1.090   1.110   1.222  0.00  0.00    -0.014 C 
ATOM     33  C   UNL     1      -1.082  -0.414   1.091  0.00  0.00    -0.078 C 
ATOM     34  C   UNL     1      -0.709  -1.040   2.436  0.00  0.00    -0.014 C 
ENDBRANCH  29  33
ENDBRANCH   1  29
BRANCH   5  35
ATOM     35  C   UNL     1      -4.377  -0.610  -3.424  0.00  0.00    +0.325 C 
ATOM     36  O   UNL     1      -4.066   0.043  -2.457  0.00  0.00    -0.249 OA
BRANCH  35  37
ATOM     37  O   UNL     1      -5.110  -0.054  -4.402  0.00  0.00    -0.467 OA
ATOM     38  C   UNL     1      -5.486   1.314  -4.233  0.00  0.00    +0.280 C 
ENDBRANCH  35  37
ENDBRANCH   5  35
TORSDOF 6
