REMARK  Name = ZINC59015534
REMARK  5 active torsions:
REMARK  status: ('A' for Active; 'I' for Inactive)
REMARK    1  A    between atoms: C_6  and  C_7
REMARK    2  A    between atoms: N_8  and  N_9
REMARK    3  A    between atoms: C_12  and  S_15
REMARK    4  A    between atoms: S_15  and  C_16
REMARK    5  A    between atoms: C_16  and  C_17
REMARK                            x       y       z     vdW  Elec       q    Type
REMARK                         _______ _______ _______ _____ _____    ______ ____
ROOT
ATOM      1  N   UNL     1      -2.444  -2.780   0.011  0.00  0.00    -0.205 N 
ATOM      2  C   UNL     1      -2.421  -4.162   0.004  0.00  0.00    +0.232 A 
ATOM      3  N   UNL     1      -1.344  -4.919  -0.005  0.00  0.00    -0.186 NA
ATOM      4  C   UNL     1      -1.700  -6.208  -0.010  0.00  0.00    +0.210 A 
ATOM      5  N   UNL     1      -3.009  -6.289  -0.004  0.00  0.00    -0.144 NA
ATOM      6  N   UNL     1      -3.500  -4.974   0.010  0.00  0.00    -0.245 N 
ATOM      7  H   UNL     1      -3.291  -2.308   0.022  0.00  0.00    +0.177 HD
ATOM      8  H   UNL     1      -4.431  -4.702   0.021  0.00  0.00    +0.192 HD
ENDROOT
BRANCH   1  10
ATOM      9  C   UNL     1      -1.263  -0.762   0.011  0.00  0.00    +0.138 C 
ATOM     10  N   UNL     1      -1.242  -2.060   0.003  0.00  0.00    -0.188 NA
BRANCH   9  16
ATOM     11  C   UNL     1      -0.017   1.393   0.010  0.00  0.00    +0.010 A 
ATOM     12  C   UNL     1       1.170   2.095   0.002  0.00  0.00    +0.016 A 
ATOM     13  C   UNL     1       2.378   1.419  -0.013  0.00  0.00    +0.018 A 
ATOM     14  C   UNL     1       2.404   0.035  -0.021  0.00  0.00    +0.016 A 
ATOM     15  C   UNL     1       1.225  -0.680  -0.014  0.00  0.00    +0.010 A 
ATOM     16  C   UNL     1       0.002  -0.004   0.002  0.00  0.00    -0.005 A 
ATOM     17 BR   UNL     1       4.000   2.391  -0.024  0.00  0.00    -0.050 Br
ENDBRANCH   9  16
ENDBRANCH   1  10
BRANCH   4  18
ATOM     18  S   UNL     1      -0.590  -7.577  -0.022  0.00  0.00    -0.080 S 
BRANCH  18  19
ATOM     19  C   UNL     1      -1.680  -9.026  -0.024  0.00  0.00    +0.112 C 
BRANCH  19  20
ATOM     20  C   UNL     1      -0.847 -10.282  -0.035  0.00  0.00    -0.036 A 
ATOM     21  C   UNL     1      -0.466 -10.848  -1.237  0.00  0.00    +0.006 A 
ATOM     22  C   UNL     1       0.298 -12.000  -1.248  0.00  0.00    +0.022 A 
ATOM     23  C   UNL     1       0.683 -12.586  -0.056  0.00  0.00    +0.059 A 
ATOM     24  C   UNL     1       0.302 -12.019   1.148  0.00  0.00    +0.060 A 
ATOM     25  C   UNL     1      -0.458 -10.863   1.157  0.00  0.00    +0.026 A 
ATOM     26 CL   UNL     1       0.784 -12.754   2.645  0.00  0.00    -0.082 Cl
ATOM     27 CL   UNL     1       1.642 -14.033  -0.070  0.00  0.00    -0.082 Cl
ENDBRANCH  19  20
ENDBRANCH  18  19
ENDBRANCH   4  18
TORSDOF 5
