REMARK  Name = ZINC12317545
REMARK  6 active torsions:
REMARK  status: ('A' for Active; 'I' for Inactive)
REMARK    1  A    between atoms: C_5  and  C_20
REMARK    2  A    between atoms: C_6  and  C_11
REMARK    3  A    between atoms: C_11  and  N_56
REMARK    4  A    between atoms: C_12  and  C_13
REMARK    5  A    between atoms: C_12  and  N_56
REMARK    6  A    between atoms: C_13  and  C_14
REMARK                            x       y       z     vdW  Elec       q    Type
REMARK                         _______ _______ _______ _____ _____    ______ ____
ROOT
ATOM      1  C   UNL     1       0.541   4.057   0.019  0.00  0.00    +0.025 A 
ATOM      2  C   UNL     1       1.569   3.168   0.004  0.00  0.00    +0.048 A 
ATOM      3  C   UNL     1       1.288   1.785  -0.001  0.00  0.00    +0.139 A 
ATOM      4  N   UNL     1       2.075   0.722  -0.014  0.00  0.00    -0.223 NA
ATOM      5  C   UNL     1       1.313  -0.388  -0.013  0.00  0.00    +0.146 A 
ATOM      6  C   UNL     1       0.002  -0.004   0.002  0.00  0.00    +0.039 A 
ATOM      7  N   UNL     1      -0.016   1.358   0.009  0.00  0.00    -0.303 N 
ATOM      8  C   UNL     1      -1.040   2.264   0.029  0.00  0.00    +0.113 A 
ATOM      9  C   UNL     1      -0.786   3.589   0.029  0.00  0.00    +0.058 A 
ATOM     10 CL   UNL     1      -2.101   4.721   0.048  0.00  0.00    -0.082 Cl
ENDROOT
BRANCH   5  11
ATOM     11  C   UNL     1       1.808  -1.778  -0.024  0.00  0.00    +0.267 C 
ATOM     12  O   UNL     1       1.020  -2.704  -0.021  0.00  0.00    -0.268 OA
ATOM     13  N   UNL     1       3.134  -2.021  -0.038  0.00  0.00    -0.296 N 
ATOM     14  C   UNL     1       4.093  -0.908  -0.048  0.00  0.00    +0.108 C 
ATOM     15  C   UNL     1       4.030  -0.190   1.300  0.00  0.00    +0.019 C 
ATOM     16  C   UNL     1       4.686  -1.072   2.375  0.00  0.00    +0.002 C 
ATOM     17  C   UNL     1       3.718  -2.176   2.784  0.00  0.00    +0.000 C 
ATOM     18  C   UNL     1       4.257  -3.556   2.365  0.00  0.00    +0.002 C 
ATOM     19  C   UNL     1       4.801  -3.486   0.938  0.00  0.00    +0.019 C 
ATOM     20  C   UNL     1       3.630  -3.387  -0.049  0.00  0.00    +0.108 C 
ENDBRANCH   5  11
BRANCH   6  21
ATOM     21  C   UNL     1      -1.198  -0.916   0.008  0.00  0.00    -0.025 C 
BRANCH  21  22
ATOM     22  N   UNL     1      -1.595  -1.201  -1.383  0.00  0.00    +0.383 N 
ATOM     23  H   UNL     1      -0.815  -1.655  -1.873  0.00  0.00    -0.085 HD
ATOM     24  H   UNL     1      -1.829  -0.320  -1.856  0.00  0.00    -0.085 HD
BRANCH  22  25
ATOM     25  C   UNL     1      -2.770  -2.093  -1.408  0.00  0.00    -0.076 C 
BRANCH  25  26
ATOM     26  C   UNL     1      -3.159  -2.370  -2.862  0.00  0.00    +0.038 C 
BRANCH  26  27
ATOM     27  C   UNL     1      -4.358  -3.281  -2.896  0.00  0.00    +0.058 A 
ATOM     28  C   UNL     1      -5.495  -2.904  -3.589  0.00  0.00    +0.134 A 
ATOM     29  N   UNL     1      -6.547  -3.703  -3.619  0.00  0.00    -0.260 NA
ATOM     30  C   UNL     1      -6.513  -4.863  -2.987  0.00  0.00    +0.130 A 
ATOM     31  C   UNL     1      -5.377  -5.241  -2.294  0.00  0.00    +0.130 A 
ATOM     32  N   UNL     1      -4.323  -4.444  -2.268  0.00  0.00    -0.257 NA
ENDBRANCH  26  27
ENDBRANCH  25  26
ENDBRANCH  22  25
ENDBRANCH  21  22
ENDBRANCH   6  21
TORSDOF 6
