REMARK  Name = ZINC34761229
REMARK  10 active torsions:
REMARK  status: ('A' for Active; 'I' for Inactive)
REMARK    1  A    between atoms: C_1  and  C_2
REMARK    2  A    between atoms: C_2  and  C_3
REMARK    3  A    between atoms: C_4  and  C_32
REMARK    4  A    between atoms: C_8  and  N_16
REMARK    5  A    between atoms: C_10  and  S_12
REMARK    6  A    between atoms: S_12  and  C_13
REMARK    7  A    between atoms: C_13  and  C_14
REMARK    8  A    between atoms: N_19  and  C_22
REMARK    9  A    between atoms: C_22  and  C_23
REMARK   10  A    between atoms: N_25  and  C_26
REMARK                            x       y       z     vdW  Elec       q    Type
REMARK                         _______ _______ _______ _____ _____    ______ ____
ROOT
ATOM      1  N   UNL     1       2.577  -0.170   0.804  0.00  0.00    -0.318 N 
ATOM      2  C   UNL     1       1.144   0.030   1.072  0.00  0.00    +0.088 C 
ATOM      3  C   UNL     1       0.757  -0.807   2.295  0.00  0.00    -0.059 C 
ATOM      4  N   UNL     1       1.637  -0.464   3.420  0.00  0.00    +0.387 N 
ATOM      5  C   UNL     1       3.021  -0.841   3.105  0.00  0.00    -0.059 C 
ATOM      6  C   UNL     1       3.519  -0.011   1.922  0.00  0.00    +0.088 C 
ATOM      7  H   UNL     1       1.591   0.529   3.591  0.00  0.00    -0.081 HD
ENDROOT
BRANCH   1  13
ATOM      8  C   UNL     1       3.458   1.956  -1.197  0.00  0.00    -0.025 A 
ATOM      9  C   UNL     1       3.887   2.729  -2.205  0.00  0.00    -0.007 A 
ATOM     10  S   UNL     1       4.285   1.557  -3.488  0.00  0.00    -0.073 S 
ATOM     11  C   UNL     1       3.863   0.060  -2.635  0.00  0.00    +0.115 A 
ATOM     12  C   UNL     1       3.428   0.514  -1.371  0.00  0.00    +0.051 A 
ATOM     13  C   UNL     1       3.024  -0.503  -0.461  0.00  0.00    +0.134 A 
ATOM     14  N   UNL     1       3.081  -1.769  -0.838  0.00  0.00    -0.206 NA
ATOM     15  C   UNL     1       3.505  -2.128  -2.044  0.00  0.00    +0.191 A 
ATOM     16  N   UNL     1       3.886  -1.223  -2.937  0.00  0.00    -0.215 NA
ATOM     17  C   UNL     1       4.006   4.231  -2.243  0.00  0.00    +0.052 C 
BRANCH   8  19
ATOM     18  C   UNL     1       4.238   2.830   0.989  0.00  0.00    +0.009 C 
ATOM     19  C   UNL     1       3.016   2.576   0.104  0.00  0.00    +0.033 C 
ENDBRANCH   8  19
BRANCH  15  20
ATOM     20  S   UNL     1       3.552  -3.837  -2.471  0.00  0.00    -0.082 S 
BRANCH  20  21
ATOM     21  C   UNL     1       4.183  -3.847  -4.172  0.00  0.00    +0.104 C 
BRANCH  21  22
ATOM     22  C   UNL     1       4.273  -5.268  -4.665  0.00  0.00    -0.023 C 
ATOM     23  C   UNL     1       3.517  -5.666  -5.658  0.00  0.00    +0.005 C 
ENDBRANCH  21  22
ENDBRANCH  20  21
ENDBRANCH  15  20
ENDBRANCH   1  13
BRANCH   4  24
ATOM     24  C   UNL     1       1.196  -1.185   4.622  0.00  0.00    +0.019 C 
BRANCH  24  25
ATOM     25  C   UNL     1       2.020  -0.742   5.803  0.00  0.00    +0.197 C 
ATOM     26  O   UNL     1       2.889   0.092   5.659  0.00  0.00    -0.278 OA
ATOM     27  N   UNL     1       1.792  -1.273   7.021  0.00  0.00    -0.314 N 
ATOM     28  H   UNL     1       1.097  -1.940   7.137  0.00  0.00    +0.149 HD
BRANCH  27  29
ATOM     29  C   UNL     1       2.592  -0.842   8.170  0.00  0.00    +0.073 C 
ATOM     30  C   UNL     1       3.888  -1.653   8.221  0.00  0.00    +0.022 C 
ATOM     31  C   UNL     1       4.725  -1.203   9.421  0.00  0.00    +0.002 C 
ATOM     32  C   UNL     1       3.931  -1.429  10.709  0.00  0.00    +0.000 C 
ATOM     33  C   UNL     1       2.635  -0.617  10.658  0.00  0.00    +0.002 C 
ATOM     34  C   UNL     1       1.798  -1.067   9.458  0.00  0.00    +0.022 C 
ENDBRANCH  27  29
ENDBRANCH  24  25
ENDBRANCH   4  24
TORSDOF 8
