REMARK  Name = ZINC49546628
REMARK  6 active torsions:
REMARK  status: ('A' for Active; 'I' for Inactive)
REMARK    1  A    between atoms: C_1  and  C_2
REMARK    2  A    between atoms: C_2  and  C_3
REMARK    3  A    between atoms: C_2  and  C_4
REMARK    4  A    between atoms: C_2  and  N_5
REMARK    5  A    between atoms: C_10  and  C_16
REMARK    6  A    between atoms: C_19  and  O_23
REMARK                            x       y       z     vdW  Elec       q    Type
REMARK                         _______ _______ _______ _____ _____    ______ ____
ROOT
ATOM      1  N   UNL     1       0.688  -0.476  -1.203  0.00  0.00    -0.245 N 
ATOM      2  C   UNL     1       0.889  -1.756  -1.547  0.00  0.00    +0.128 A 
ATOM      3  C   UNL     1       1.563  -1.766  -2.741  0.00  0.00    +0.020 A 
ATOM      4  C   UNL     1       1.774  -0.450  -3.123  0.00  0.00    +0.140 A 
ATOM      5  N   UNL     1       1.246   0.331  -2.208  0.00  0.00    -0.177 NA
ATOM      6  C   UNL     1       1.954  -3.046  -3.433  0.00  0.00    +0.063 C 
ATOM      7  C   UNL     1       0.937  -4.128  -3.057  0.00  0.00    +0.109 C 
ATOM      8  C   UNL     1       0.616  -4.094  -1.591  0.00  0.00    +0.219 C 
ATOM      9  O   UNL     1       0.425  -5.141  -1.009  0.00  0.00    -0.275 OA
ATOM     10  N   UNL     1       0.532  -2.938  -0.897  0.00  0.00    -0.270 N 
ATOM     11  H   UNL     1       0.233  -2.930   0.025  0.00  0.00    +0.156 HD
ENDROOT
BRANCH   6  12
ATOM     12  C   UNL     1       3.331  -3.465  -2.985  0.00  0.00    -0.038 A 
ATOM     13  C   UNL     1       3.572  -3.728  -1.650  0.00  0.00    +0.008 A 
ATOM     14  C   UNL     1       4.833  -4.112  -1.236  0.00  0.00    +0.047 A 
ATOM     15  C   UNL     1       5.859  -4.233  -2.162  0.00  0.00    +0.135 A 
ATOM     16  C   UNL     1       5.614  -3.968  -3.503  0.00  0.00    +0.083 A 
ATOM     17  C   UNL     1       4.349  -3.590  -3.912  0.00  0.00    +0.028 A 
ATOM     18 CL   UNL     1       6.895  -4.119  -4.665  0.00  0.00    -0.080 Cl
BRANCH  15  19
ATOM     19  O   UNL     1       7.100  -4.610  -1.758  0.00  0.00    -0.505 OA
ATOM     20  H   UNL     1       7.244  -5.566  -1.768  0.00  0.00    +0.292 HD
ENDBRANCH  15  19
ENDBRANCH   6  12
BRANCH   1  22
ATOM     21  C   UNL     1      -0.019   1.526   0.010  0.00  0.00    +0.036 C 
ATOM     22  C   UNL     1       0.002  -0.004   0.002  0.00  0.00    +0.057 C 
ATOM     23  C   UNL     1       0.742  -0.511   1.242  0.00  0.00    +0.036 C 
ATOM     24  C   UNL     1      -1.433  -0.534   0.013  0.00  0.00    +0.036 C 
ENDBRANCH   1  22
TORSDOF 3
