REMARK  Name = ZINC45111860
REMARK  4 active torsions:
REMARK  status: ('A' for Active; 'I' for Inactive)
REMARK    1  A    between atoms: C_1  and  C_2
REMARK    2  A    between atoms: C_2  and  C_3
REMARK    3  A    between atoms: C_16  and  C_18
REMARK    4  A    between atoms: C_22  and  C_24
REMARK                            x       y       z     vdW  Elec       q    Type
REMARK                         _______ _______ _______ _____ _____    ______ ____
ROOT
ATOM      1  C   UNL     1       0.718  -0.497  -1.257  0.00  0.00    -0.006 C 
ATOM      2  C   UNL     1       0.844  -2.023  -1.212  0.00  0.00    +0.008 C 
ATOM      3  C   UNL     1       1.769  -2.501  -2.331  0.00  0.00    +0.037 C 
ATOM      4  C   UNL     1       1.280  -1.924  -3.657  0.00  0.00    -0.023 A 
ATOM      5  C   UNL     1       0.448  -0.855  -3.677  0.00  0.00    -0.004 A 
ATOM      6  S   UNL     1       0.145  -0.534  -5.396  0.00  0.00    -0.073 S 
ATOM      7  C   UNL     1       1.129  -1.828  -6.083  0.00  0.00    +0.116 A 
ATOM      8  C   UNL     1       1.666  -2.473  -4.944  0.00  0.00    +0.075 A 
ATOM      9  C   UNL     1       2.530  -3.596  -5.173  0.00  0.00    +0.260 A 
ATOM     10  O   UNL     1       3.041  -4.217  -4.257  0.00  0.00    -0.267 OA
ATOM     11  N   UNL     1       2.743  -3.922  -6.469  0.00  0.00    -0.306 N 
ATOM     12  H   UNL     1       3.321  -4.676  -6.669  0.00  0.00    +0.170 HD
ATOM     13  C   UNL     1       2.180  -3.240  -7.508  0.00  0.00    +0.142 A 
ATOM     14  N   UNL     1       1.379  -2.200  -7.331  0.00  0.00    -0.222 NA
ATOM     15  C   UNL     1      -0.094  -0.104  -2.499  0.00  0.00    +0.046 C 
ENDROOT
BRANCH  13  16
ATOM     16  C   UNL     1       2.476  -3.679  -8.887  0.00  0.00    +0.018 A 
ATOM     17  C   UNL     1       3.313  -4.776  -9.109  0.00  0.00    +0.011 A 
ATOM     18  C   UNL     1       3.591  -5.187 -10.397  0.00  0.00    +0.001 A 
ATOM     19  C   UNL     1       3.045  -4.518 -11.475  0.00  0.00    +0.013 A 
ATOM     20  C   UNL     1       2.208  -3.420 -11.268  0.00  0.00    +0.037 A 
ATOM     21  C   UNL     1       1.917  -3.003  -9.970  0.00  0.00    +0.024 A 
BRANCH  20  22
ATOM     22  C   UNL     1       1.624  -2.705 -12.423  0.00  0.00    +0.242 C 
ATOM     23  O   UNL     1       0.895  -1.749 -12.242  0.00  0.00    -0.270 OA
ATOM     24  N   UNL     1       1.901  -3.113 -13.678  0.00  0.00    -0.325 N 
ATOM     25  H   UNL     1       2.483  -3.875 -13.823  0.00  0.00    +0.145 HD
ATOM     26  H   UNL     1       1.519  -2.643 -14.436  0.00  0.00    +0.145 HD
ENDBRANCH  20  22
ENDBRANCH  13  16
BRANCH   1  28
ATOM     27  C   UNL     1      -0.019   1.526   0.010  0.00  0.00    +0.004 C 
ATOM     28  C   UNL     1       0.002  -0.004   0.002  0.00  0.00    +0.000 C 
ENDBRANCH   1  28
TORSDOF 3
