REMARK  Name = ZINC13101245
REMARK  7 active torsions:
REMARK  status: ('A' for Active; 'I' for Inactive)
REMARK    1  A    between atoms: C_1  and  C_2
REMARK    2  A    between atoms: C_15  and  C_17
REMARK    3  A    between atoms: C_17  and  C_19
REMARK    4  A    between atoms: C_17  and  S_20
REMARK    5  A    between atoms: S_20  and  C_21
REMARK    6  A    between atoms: C_24  and  C_27
REMARK    7  A    between atoms: N_25  and  N_26
REMARK                            x       y       z     vdW  Elec       q    Type
REMARK                         _______ _______ _______ _____ _____    ______ ____
ROOT
ATOM      1  C   UNL     1      13.847   4.215  -0.399  0.00  0.00    +0.008 C 
ATOM      2  C   UNL     1      12.365   3.975  -0.695  0.00  0.00    -0.009 C 
ATOM      3  C   UNL     1      11.603   5.301  -0.613  0.00  0.00    +0.008 C 
ATOM      4  C   UNL     1      10.183   5.119  -1.149  0.00  0.00    +0.037 C 
ATOM      5  C   UNL     1       9.533   3.941  -0.428  0.00  0.00    -0.023 A 
ATOM      6  C   UNL     1      10.287   3.029   0.221  0.00  0.00    -0.004 A 
ATOM      7  S   UNL     1       9.127   1.869   0.894  0.00  0.00    -0.073 S 
ATOM      8  C   UNL     1       7.630   2.616   0.301  0.00  0.00    +0.116 A 
ATOM      9  C   UNL     1       8.084   3.743  -0.402  0.00  0.00    +0.075 A 
ATOM     10  C   UNL     1       7.065   4.552  -1.003  0.00  0.00    +0.260 A 
ATOM     11  O   UNL     1       7.359   5.552  -1.635  0.00  0.00    -0.267 OA
ATOM     12  N   UNL     1       5.777   4.187  -0.861  0.00  0.00    -0.309 N 
ATOM     13  H   UNL     1       5.082   4.728  -1.268  0.00  0.00    +0.170 HD
ATOM     14  C   UNL     1       5.431   3.079  -0.157  0.00  0.00    +0.124 A 
ATOM     15  N   UNL     1       6.337   2.322   0.402  0.00  0.00    -0.225 NA
ATOM     16  C   UNL     1      11.780   3.006   0.343  0.00  0.00    +0.046 C 
ENDROOT
BRANCH  14  17
ATOM     17  C   UNL     1       3.975   2.713  -0.021  0.00  0.00    +0.117 C 
ATOM     18  C   UNL     1       3.429   3.272   1.294  0.00  0.00    +0.027 C 
BRANCH  17  19
ATOM     19  S   UNL     1       3.802   0.912  -0.029  0.00  0.00    -0.074 S 
BRANCH  19  20
ATOM     20  C   UNL     1       2.046   0.773  -0.013  0.00  0.00    +0.209 A 
ATOM     21  N   UNL     1       1.186   1.766   0.000  0.00  0.00    -0.121 NA
ATOM     22  N   UNL     1      -0.016   1.311   0.009  0.00  0.00    -0.126 NA
ATOM     23  C   UNL     1       0.002  -0.004   0.002  0.00  0.00    +0.188 A 
ATOM     24  N   UNL     1       1.324  -0.389  -0.013  0.00  0.00    -0.223 N 
BRANCH  23  25
ATOM     25  C   UNL     1      -1.169  -0.895   0.008  0.00  0.00    +0.058 A 
ATOM     26  C   UNL     1      -2.484  -0.598  -0.248  0.00  0.00    +0.019 A 
ATOM     27  C   UNL     1      -3.415  -1.610  -0.186  0.00  0.00    +0.008 A 
ATOM     28  C   UNL     1      -3.008  -2.865   0.136  0.00  0.00    +0.046 A 
ATOM     29  S   UNL     1      -1.250  -2.644   0.358  0.00  0.00    -0.093 S 
ENDBRANCH  23  25
BRANCH  24  30
ATOM     30  N   UNL     1       1.813  -1.664  -0.024  0.00  0.00    -0.295 N 
ATOM     31  H   UNL     1       1.933  -1.998  -0.968  0.00  0.00    +0.163 HD
ATOM     32  H   UNL     1       2.677  -1.725   0.494  0.00  0.00    +0.163 HD
ENDBRANCH  24  30
ENDBRANCH  19  20
ENDBRANCH  17  19
ENDBRANCH  14  17
TORSDOF 5
