REMARK  Name = ZINC13500168
REMARK  12 active torsions:
REMARK  status: ('A' for Active; 'I' for Inactive)
REMARK    1  A    between atoms: C_1  and  C_2
REMARK    2  A    between atoms: C_2  and  C_3
REMARK    3  A    between atoms: C_3  and  C_4
REMARK    4  A    between atoms: C_4  and  C_6
REMARK    5  A    between atoms: C_4  and  N_75
REMARK    6  A    between atoms: N_10  and  C_11
REMARK    7  A    between atoms: C_11  and  C_12
REMARK    8  A    between atoms: C_12  and  C_13
REMARK    9  A    between atoms: C_19  and  C_20
REMARK   10  A    between atoms: C_19  and  N_75
REMARK   11  A    between atoms: C_24  and  C_32
REMARK   12  A    between atoms: C_33  and  N_75
REMARK                            x       y       z     vdW  Elec       q    Type
REMARK                         _______ _______ _______ _____ _____    ______ ____
ROOT
ATOM      1  N   UNL     1       4.093   1.660  -0.797  0.00  0.00    +0.391 N 
ATOM      2  H   UNL     1       3.689   1.661  -1.742  0.00  0.00    -0.080 HD
ENDROOT
BRANCH   1   3
ATOM      3  C   UNL     1       3.836   2.971  -0.165  0.00  0.00    -0.067 C 
ATOM      4  C   UNL     1       4.316   2.969   1.288  0.00  0.00    -0.015 C 
ATOM      5  C   UNL     1       4.037   4.334   1.919  0.00  0.00    -0.002 C 
ATOM      6  C   UNL     1       2.534   4.617   1.880  0.00  0.00    -0.000 C 
ATOM      7  C   UNL     1       2.054   4.619   0.427  0.00  0.00    -0.002 C 
ATOM      8  C   UNL     1       2.333   3.254  -0.204  0.00  0.00    -0.015 C 
ENDBRANCH   1   3
BRANCH   1   9
ATOM      9  C   UNL     1       3.460   0.584  -0.005  0.00  0.00    +0.003 C 
BRANCH   9  10
ATOM     10  C   UNL     1       4.280   0.281   1.222  0.00  0.00    +0.138 A 
ATOM     11  N   UNL     1       5.588   0.245   1.300  0.00  0.00    -0.115 NA
ATOM     12  N   UNL     1       5.906  -0.048   2.514  0.00  0.00    -0.023 NA
ATOM     13  N   UNL     1       4.835  -0.200   3.212  0.00  0.00    -0.044 NA
ATOM     14  N   UNL     1       3.812  -0.004   2.451  0.00  0.00    -0.231 N 
BRANCH  14  15
ATOM     15  C   UNL     1       2.404  -0.080   2.850  0.00  0.00    +0.152 C 
BRANCH  15  16
ATOM     16  C   UNL     1       1.973   1.257   3.457  0.00  0.00    +0.058 C 
BRANCH  16  17
ATOM     17  C   UNL     1       0.565   1.140   3.981  0.00  0.00    -0.046 A 
ATOM     18  C   UNL     1      -0.505   1.438   3.159  0.00  0.00    +0.004 A 
ATOM     19  C   UNL     1      -1.797   1.325   3.638  0.00  0.00    +0.000 A 
ATOM     20  C   UNL     1      -2.018   0.926   4.943  0.00  0.00    +0.000 A 
ATOM     21  C   UNL     1      -0.947   0.633   5.767  0.00  0.00    +0.000 A 
ATOM     22  C   UNL     1       0.344   0.740   5.286  0.00  0.00    +0.004 A 
ENDBRANCH  16  17
ENDBRANCH  15  16
ENDBRANCH  14  15
ENDBRANCH   9  10
BRANCH   9  23
ATOM     23  C   UNL     1       3.360  -0.671  -0.874  0.00  0.00    -0.008 C 
BRANCH  23  25
ATOM     24  C   UNL     1       2.234  -1.687  -2.860  0.00  0.00    +0.004 C 
ATOM     25  C   UNL     1       2.433  -0.398  -2.060  0.00  0.00    -0.005 C 
ENDBRANCH  23  25
ENDBRANCH   9  23
ENDBRANCH   1   9
BRANCH   1  26
ATOM     26  C   UNL     1       5.548   1.424  -0.898  0.00  0.00    -0.036 C 
BRANCH  26  27
ATOM     27  C   UNL     1       6.098   2.268  -2.019  0.00  0.00    +0.001 A 
ATOM     28  C   UNL     1       6.643   3.480  -1.747  0.00  0.00    +0.017 A 
ATOM     29  C   UNL     1       7.174   4.273  -2.857  0.00  0.00    -0.001 A 
ATOM     30  C   UNL     1       7.753   5.527  -2.639  0.00  0.00    +0.013 A 
ATOM     31  C   UNL     1       8.236   6.244  -3.697  0.00  0.00    -0.050 A 
ATOM     32  C   UNL     1       8.156   5.739  -4.988  0.00  0.00    +0.005 A 
ATOM     33  C   UNL     1       7.589   4.506  -5.227  0.00  0.00    +0.026 A 
ATOM     34  C   UNL     1       7.091   3.758  -4.165  0.00  0.00    +0.049 A 
ATOM     35  N   UNL     1       6.520   2.521  -4.375  0.00  0.00    -0.322 N 
ATOM     36  H   UNL     1       6.464   2.167  -5.276  0.00  0.00    +0.169 HD
ATOM     37  C   UNL     1       6.040   1.797  -3.348  0.00  0.00    +0.251 A 
ATOM     38  O   UNL     1       5.542   0.708  -3.571  0.00  0.00    -0.268 OA
ATOM     39  C   UNL     1       8.860   7.595  -3.461  0.00  0.00    +0.044 C 
ENDBRANCH  26  27
ENDBRANCH   1  26
TORSDOF 10
