REMARK  Name = ZINC00881876
REMARK  5 active torsions:
REMARK  status: ('A' for Active; 'I' for Inactive)
REMARK    1  A    between atoms: C_1  and  C_2
REMARK    2  A    between atoms: C_6  and  C_8
REMARK    3  A    between atoms: C_13  and  C_18
REMARK    4  A    between atoms: C_13  and  C_19
REMARK    5  A    between atoms: C_25  and  O_27
REMARK                            x       y       z     vdW  Elec       q    Type
REMARK                         _______ _______ _______ _____ _____    ______ ____
ROOT
ATOM      1  C   UNL     1      -0.976   4.793  -0.601  0.00  0.00    +0.058 C 
ATOM      2  C   UNL     1      -1.527   5.613  -1.770  0.00  0.00    +0.081 C 
ATOM      3  C   UNL     1      -1.532   7.091  -1.363  0.00  0.00    +0.182 C 
ATOM      4  C   UNL     1      -1.987   7.944  -2.550  0.00  0.00    +0.094 C 
ATOM      5  C   UNL     1      -1.879   9.422  -2.158  0.00  0.00    +0.036 C 
ATOM      6  N   UNL     1      -0.512   9.702  -1.714  0.00  0.00    -0.294 N 
ATOM      7  C   UNL     1       0.247   8.753  -1.147  0.00  0.00    +0.303 C 
ATOM      8  O   UNL     1       1.372   9.043  -0.787  0.00  0.00    -0.253 OA
ATOM      9  N   UNL     1      -0.185   7.497  -0.962  0.00  0.00    -0.262 N 
ATOM     10  C   UNL     1      -2.858   9.723  -1.022  0.00  0.00    +0.031 C 
ATOM     11  C   UNL     1      -2.214  10.298  -3.367  0.00  0.00    +0.031 C 
ATOM     12  O   UNL     1      -2.437   7.263  -0.274  0.00  0.00    -0.468 OA
ATOM     13  C   UNL     1      -2.340   6.407   0.777  0.00  0.00    +0.131 A 
ATOM     14  C   UNL     1      -1.660   5.205   0.678  0.00  0.00    +0.004 A 
ATOM     15  C   UNL     1      -1.601   4.353   1.769  0.00  0.00    +0.031 A 
ATOM     16  C   UNL     1      -2.212   4.698   2.958  0.00  0.00    +0.083 A 
ATOM     17  C   UNL     1      -2.890   5.905   3.064  0.00  0.00    +0.139 A 
ATOM     18  C   UNL     1      -2.953   6.757   1.974  0.00  0.00    +0.093 A 
ATOM     19 CL   UNL     1      -2.132   3.623   4.319  0.00  0.00    -0.080 Cl
ATOM     20  H   UNL     1      -0.149  10.594  -1.833  0.00  0.00    +0.151 HD
ATOM     21  H   UNL     1       0.406   6.845  -0.555  0.00  0.00    +0.154 HD
ENDROOT
BRANCH   1  27
ATOM     22  C   UNL     1       0.768   0.148  -1.261  0.00  0.00    +0.044 C 
ATOM     23  C   UNL     1      -0.392   1.106  -1.170  0.00  0.00    -0.050 A 
ATOM     24  C   UNL     1      -1.686   0.642  -1.318  0.00  0.00    +0.003 A 
ATOM     25  C   UNL     1      -2.749   1.521  -1.240  0.00  0.00    +0.001 A 
ATOM     26  C   UNL     1      -2.519   2.864  -1.002  0.00  0.00    +0.004 A 
ATOM     27  C   UNL     1      -1.226   3.328  -0.854  0.00  0.00    -0.039 A 
ATOM     28  C   UNL     1      -0.162   2.450  -0.938  0.00  0.00    +0.007 A 
ENDBRANCH   1  27
BRANCH  17  29
ATOM     29  O   UNL     1      -3.489   6.249   4.234  0.00  0.00    -0.505 OA
ATOM     30  H   UNL     1      -4.407   5.954   4.308  0.00  0.00    +0.292 HD
ENDBRANCH  17  29
TORSDOF 2
