REMARK  Name = ZINC05062653
REMARK  4 active torsions:
REMARK  status: ('A' for Active; 'I' for Inactive)
REMARK    1  A    between atoms: C_1  and  C_2
REMARK    2  A    between atoms: C_8  and  N_10
REMARK    3  A    between atoms: C_11  and  C_13
REMARK    4  A    between atoms: C_13  and  C_14
REMARK                            x       y       z     vdW  Elec       q    Type
REMARK                         _______ _______ _______ _____ _____    ______ ____
ROOT
ATOM      1  C   UNL     1       2.776   5.362   0.003  0.00  0.00    +0.007 A 
ATOM      2  C   UNL     1       4.119   5.399  -0.009  0.00  0.00    +0.200 A 
ATOM      3  O   UNL     1       4.610   4.149  -0.020  0.00  0.00    -0.463 OA
ATOM      4  C   UNL     1       3.614   3.240  -0.015  0.00  0.00    +0.136 A 
ATOM      5  C   UNL     1       2.409   3.947  -0.000  0.00  0.00    +0.031 A 
ATOM      6  C   UNL     1       1.150   3.213   0.008  0.00  0.00    -0.007 A 
ATOM      7  C   UNL     1      -0.087   3.867   0.023  0.00  0.00    +0.009 A 
ATOM      8  C   UNL     1      -1.238   3.135   0.030  0.00  0.00    +0.001 A 
ATOM      9  C   UNL     1      -1.200   1.744   0.017  0.00  0.00    +0.001 A 
ATOM     10  C   UNL     1      -0.013   1.076   0.008  0.00  0.00    +0.008 A 
ATOM     11  C   UNL     1       1.192   1.797   0.000  0.00  0.00    -0.017 A 
ATOM     12  C   UNL     1       2.437   1.141  -0.015  0.00  0.00    +0.012 A 
ATOM     13  C   UNL     1       3.599   1.840  -0.022  0.00  0.00    +0.047 A 
ENDROOT
BRANCH   1  14
ATOM     14  C   UNL     1       1.838   6.541   0.019  0.00  0.00    +0.134 C 
BRANCH  14  16
ATOM     15  N   UNL     1       0.603   7.872   1.699  0.00  0.00    -0.312 N 
ATOM     16  C   UNL     1       1.443   6.850   1.440  0.00  0.00    +0.218 C 
ATOM     17  O   UNL     1       1.880   6.179   2.350  0.00  0.00    -0.275 OA
ATOM     18  H   UNL     1       0.254   8.409   0.970  0.00  0.00    +0.149 HD
BRANCH  15  25
ATOM     19  C   UNL     1      -2.192   7.990   2.449  0.00  0.00    +0.009 C 
ATOM     20  C   UNL     1      -1.132   8.890   3.089  0.00  0.00    +0.006 C 
ATOM     21  C   UNL     1      -1.534   9.203   4.532  0.00  0.00    +0.005 C 
ATOM     22  C   UNL     1      -0.475  10.103   5.172  0.00  0.00    +0.000 C 
ATOM     23  C   UNL     1       0.877   9.386   5.163  0.00  0.00    +0.002 C 
ATOM     24  C   UNL     1       1.278   9.073   3.720  0.00  0.00    +0.022 C 
ATOM     25  C   UNL     1       0.219   8.173   3.080  0.00  0.00    +0.076 C 
ENDBRANCH  15  25
ENDBRANCH  14  16
ENDBRANCH   1  14
TORSDOF 3
