REMARK  Name = ZINC21363993
REMARK  5 active torsions:
REMARK  status: ('A' for Active; 'I' for Inactive)
REMARK    1  A    between atoms: C_1  and  C_2
REMARK    2  A    between atoms: C_3  and  C_26
REMARK    3  A    between atoms: C_7  and  N_16
REMARK    4  A    between atoms: C_9  and  C_11
REMARK    5  A    between atoms: C_20  and  C_23
REMARK                            x       y       z     vdW  Elec       q    Type
REMARK                         _______ _______ _______ _____ _____    ______ ____
ROOT
ATOM      1  C   UNL     1      -0.486   0.060  -1.327  0.00  0.00    +0.045 C 
ATOM      2  C   UNL     1      -0.460   1.560  -1.194  0.00  0.00    -0.028 A 
ATOM      3  C   UNL     1       0.524   2.275  -1.759  0.00  0.00    -0.008 A 
ATOM      4  S   UNL     1       0.119   3.957  -1.328  0.00  0.00    -0.073 S 
ATOM      5  C   UNL     1      -1.362   3.655  -0.400  0.00  0.00    +0.114 A 
ATOM      6  C   UNL     1      -1.504   2.250  -0.456  0.00  0.00    +0.051 A 
ATOM      7  C   UNL     1      -2.633   1.719   0.229  0.00  0.00    +0.134 A 
ATOM      8  N   UNL     1      -3.461   2.542   0.847  0.00  0.00    -0.211 NA
ATOM      9  C   UNL     1      -3.272   3.860   0.857  0.00  0.00    +0.169 A 
ATOM     10  N   UNL     1      -2.231   4.410   0.238  0.00  0.00    -0.219 NA
ATOM     11  C   UNL     1       1.694   1.776  -2.568  0.00  0.00    +0.052 C 
ENDROOT
BRANCH   7  12
ATOM     12  N   UNL     1      -2.865   0.355   0.242  0.00  0.00    -0.314 N 
ATOM     13  C   UNL     1      -2.853  -0.167   1.615  0.00  0.00    +0.106 C 
ATOM     14  C   UNL     1      -2.967  -1.693   1.582  0.00  0.00    +0.020 C 
ATOM     15  C   UNL     1      -4.267  -2.088   0.876  0.00  0.00    +0.016 C 
ATOM     16  C   UNL     1      -4.275  -1.491  -0.534  0.00  0.00    +0.092 C 
ATOM     17  C   UNL     1      -4.124   0.029  -0.440  0.00  0.00    +0.119 C 
BRANCH  16  18
ATOM     18  C   UNL     1      -5.577  -1.826  -1.214  0.00  0.00    +0.215 C 
ATOM     19  O   UNL     1      -6.312  -0.937  -1.588  0.00  0.00    -0.276 OA
ATOM     20  N   UNL     1      -5.924  -3.114  -1.408  0.00  0.00    -0.329 N 
ATOM     21  H   UNL     1      -6.875  -3.358  -1.905  0.00  0.00    +0.145 HD
ATOM     22  H   UNL     1      -5.257  -3.921  -1.069  0.00  0.00    +0.145 HD
ENDBRANCH  16  18
ENDBRANCH   7  12
BRANCH   9  23
ATOM     23  C   UNL     1      -4.234   4.725   1.565  0.00  0.00    +0.056 A 
ATOM     24  C   UNL     1      -4.229   6.089   1.705  0.00  0.00    +0.019 A 
ATOM     25  C   UNL     1      -5.246   6.685   2.414  0.00  0.00    +0.008 A 
ATOM     26  C   UNL     1      -6.215   5.906   2.964  0.00  0.00    +0.046 A 
ATOM     27  S   UNL     1      -5.703   4.268   2.470  0.00  0.00    -0.094 S 
ENDBRANCH   9  23
TORSDOF 3
