REMARK  Name = ZINC39037734
REMARK  9 active torsions:
REMARK  status: ('A' for Active; 'I' for Inactive)
REMARK    1  A    between atoms: C_1  and  C_2
REMARK    2  A    between atoms: C_2  and  O_3
REMARK    3  A    between atoms: O_3  and  C_4
REMARK    4  A    between atoms: C_4  and  C_6
REMARK    5  A    between atoms: C_8  and  N_17
REMARK    6  A    between atoms: C_18  and  C_20
REMARK    7  A    between atoms: C_20  and  C_21
REMARK    8  A    between atoms: C_21  and  N_22
REMARK    9  A    between atoms: C_25  and  C_28
REMARK                            x       y       z     vdW  Elec       q    Type
REMARK                         _______ _______ _______ _____ _____    ______ ____
ROOT
ATOM      1  C   UNL     1      -3.905  -3.833  -1.633  0.00  0.00    +0.234 C 
ATOM      2  C   UNL     1      -3.428  -2.403  -1.508  0.00  0.00    +0.053 C 
ATOM      3  C   UNL     1      -2.711  -2.348  -0.326  0.00  0.00    +0.019 A 
ATOM      4  C   UNL     1      -2.026  -1.296   0.328  0.00  0.00    +0.026 A 
ATOM      5  C   UNL     1      -1.394  -1.534   1.505  0.00  0.00    +0.019 A 
ATOM      6  C   UNL     1      -1.400  -2.801   2.097  0.00  0.00    +0.017 A 
ATOM      7  C   UNL     1      -2.035  -3.853   1.527  0.00  0.00    +0.027 A 
ATOM      8  C   UNL     1      -2.718  -3.684   0.295  0.00  0.00    +0.045 A 
ATOM      9  N   UNL     1      -3.399  -4.534  -0.450  0.00  0.00    -0.367 N 
ATOM     10 BR   UNL     1      -0.484  -0.117   2.366  0.00  0.00    -0.050 Br
ATOM     11  H   UNL     1      -3.542  -5.472  -0.247  0.00  0.00    +0.161 HD
ENDROOT
BRANCH   2  12
ATOM     12  N   UNL     1      -3.657  -1.380  -2.379  0.00  0.00    -0.286 N 
ATOM     13  C   UNL     1      -4.261  -1.623  -3.559  0.00  0.00    +0.215 C 
ATOM     14  O   UNL     1      -4.695  -2.728  -3.802  0.00  0.00    -0.276 OA
ATOM     15  H   UNL     1      -3.385  -0.478  -2.150  0.00  0.00    +0.155 HD
BRANCH  13  16
ATOM     16  C   UNL     1      -4.398  -0.519  -4.577  0.00  0.00    +0.077 C 
BRANCH  16  17
ATOM     17  C   UNL     1      -5.115  -1.055  -5.817  0.00  0.00    -0.070 C 
BRANCH  17  18
ATOM     18  N   UNL     1      -5.248   0.020  -6.809  0.00  0.00    +0.380 N 
ATOM     19  C   UNL     1      -3.915   0.429  -7.267  0.00  0.00    -0.079 C 
ATOM     20  C   UNL     1      -4.043   1.603  -8.239  0.00  0.00    -0.016 C 
ATOM     21  C   UNL     1      -4.889   1.173  -9.442  0.00  0.00    -0.018 C 
ATOM     22  C   UNL     1      -6.250   0.679  -8.945  0.00  0.00    -0.016 C 
ATOM     23  C   UNL     1      -6.040  -0.461  -7.947  0.00  0.00    -0.079 C 
ATOM     24  C   UNL     1      -5.088   2.366 -10.380  0.00  0.00    +0.007 C 
ATOM     25  H   UNL     1      -5.713   0.810  -6.387  0.00  0.00    -0.082 HD
ENDBRANCH  17  18
ENDBRANCH  16  17
ENDBRANCH  13  16
ENDBRANCH   2  12
BRANCH   1  26
ATOM     26  C   UNL     1      -5.411  -3.877  -1.658  0.00  0.00    +0.336 C 
ATOM     27  O   UNL     1      -6.037  -3.712  -0.638  0.00  0.00    -0.248 OA
BRANCH  26  28
ATOM     28  O   UNL     1      -6.057  -4.100  -2.813  0.00  0.00    -0.463 OA
BRANCH  28  30
ATOM     29  C   UNL     1      -8.039  -4.394  -4.165  0.00  0.00    +0.048 C 
ATOM     30  C   UNL     1      -7.485  -4.129  -2.763  0.00  0.00    +0.229 C 
ENDBRANCH  28  30
ENDBRANCH  26  28
ENDBRANCH   1  26
TORSDOF 7
