REMARK  Name = ZINC06077812
REMARK  12 active torsions:
REMARK  status: ('A' for Active; 'I' for Inactive)
REMARK    1  A    between atoms: C_1  and  C_2
REMARK    2  A    between atoms: C_2  and  C_3
REMARK    3  A    between atoms: C_3  and  C_4
REMARK    4  A    between atoms: C_3  and  C_5
REMARK    5  A    between atoms: C_3  and  N_6
REMARK    6  A    between atoms: C_7  and  C_11
REMARK    7  A    between atoms: C_11  and  C_13
REMARK    8  A    between atoms: C_11  and  N_74
REMARK    9  A    between atoms: C_19  and  C_25
REMARK   10  A    between atoms: N_28  and  C_31
REMARK   11  A    between atoms: C_33  and  C_38
REMARK   12  A    between atoms: C_36  and  C_37
REMARK                            x       y       z     vdW  Elec       q    Type
REMARK                         _______ _______ _______ _____ _____    ______ ____
ROOT
ATOM      1  C   UNL     1       0.242  -2.821   4.541  0.00  0.00    +0.039 C 
ENDROOT
BRANCH   1   2
ATOM      2  C   UNL     1       0.431  -2.118   3.221  0.00  0.00    +0.011 A 
ATOM      3  C   UNL     1       0.584  -2.844   2.085  0.00  0.00    +0.017 A 
ATOM      4  C   UNL     1       0.765  -2.131   0.819  0.00  0.00    -0.001 A 
ATOM      5  C   UNL     1       0.928  -2.824  -0.385  0.00  0.00    +0.010 A 
ATOM      6  C   UNL     1       1.095  -2.129  -1.549  0.00  0.00    +0.001 A 
ATOM      7  C   UNL     1       1.097  -0.741  -1.549  0.00  0.00    +0.005 A 
ATOM      8  C   UNL     1       0.945  -0.037  -0.374  0.00  0.00    -0.026 A 
ATOM      9  C   UNL     1       0.774  -0.723   0.824  0.00  0.00    +0.052 A 
ATOM     10  N   UNL     1       0.613  -0.045   2.013  0.00  0.00    -0.322 N 
ATOM     11  H   UNL     1       0.620   0.955   2.015  0.00  0.00    +0.169 HD
ATOM     12  C   UNL     1       0.447  -0.708   3.171  0.00  0.00    +0.251 A 
ATOM     13  O   UNL     1       0.307  -0.075   4.204  0.00  0.00    -0.268 OA
ATOM     14  C   UNL     1       0.957   1.470  -0.388  0.00  0.00    +0.046 C 
ENDBRANCH   1   2
BRANCH   1  20
ATOM     15  C   UNL     1      -1.159  -2.936   6.512  0.00  0.00    -0.058 C 
ATOM     16  C   UNL     1      -2.407  -2.350   7.176  0.00  0.00    +0.086 C 
ATOM     17  N   UNL     1      -3.579  -2.614   6.330  0.00  0.00    -0.333 N 
ATOM     18  C   UNL     1      -3.409  -2.017   4.998  0.00  0.00    +0.086 C 
ATOM     19  C   UNL     1      -2.161  -2.603   4.334  0.00  0.00    -0.058 C 
ATOM     20  N   UNL     1      -0.987  -2.311   5.184  0.00  0.00    +0.391 N 
ATOM     21  H   UNL     1      -0.905  -1.294   5.302  0.00  0.00    -0.080 HD
BRANCH  17  22
ATOM     22  C   UNL     1      -4.750  -2.156   6.938  0.00  0.00    +0.033 A 
ATOM     23  C   UNL     1      -4.923  -0.799   7.181  0.00  0.00    +0.026 A 
ATOM     24  C   UNL     1      -6.082  -0.349   7.782  0.00  0.00    -0.049 A 
ATOM     25  C   UNL     1      -7.069  -1.248   8.143  0.00  0.00    +0.004 A 
ATOM     26  C   UNL     1      -6.900  -2.599   7.902  0.00  0.00    +0.005 A 
ATOM     27  C   UNL     1      -5.746  -3.055   7.297  0.00  0.00    -0.029 A 
ATOM     28  C   UNL     1      -5.565  -4.527   7.030  0.00  0.00    +0.045 C 
ATOM     29  C   UNL     1      -6.270   1.123   8.046  0.00  0.00    +0.044 C 
ENDBRANCH  17  22
ENDBRANCH   1  20
BRANCH   1  31
ATOM     30  N   UNL     1       2.371  -3.405   5.818  0.00  0.00    -0.225 N 
ATOM     31  C   UNL     1       1.420  -2.533   5.436  0.00  0.00    +0.143 A 
ATOM     32  N   UNL     1       1.720  -1.383   5.988  0.00  0.00    -0.115 NA
ATOM     33  N   UNL     1       2.795  -1.542   6.681  0.00  0.00    -0.023 NA
ATOM     34  N   UNL     1       3.192  -2.762   6.578  0.00  0.00    -0.043 NA
BRANCH  30  35
ATOM     35  C   UNL     1       2.458  -4.818   5.442  0.00  0.00    +0.061 C 
ATOM     36  C   UNL     1       1.236  -5.565   5.982  0.00  0.00    +0.036 C 
ATOM     37  C   UNL     1       2.497  -4.939   3.918  0.00  0.00    +0.036 C 
BRANCH  35  39
ATOM     38  C   UNL     1       3.820  -6.903   5.643  0.00  0.00    +0.006 C 
ATOM     39  C   UNL     1       3.730  -5.427   6.036  0.00  0.00    +0.026 C 
ENDBRANCH  35  39
ENDBRANCH  30  35
ENDBRANCH   1  31
TORSDOF 6
