REMARK  Name = ZINC08820403
REMARK  8 active torsions:
REMARK  status: ('A' for Active; 'I' for Inactive)
REMARK    1  A    between atoms: C_4  and  C_7
REMARK    2  A    between atoms: C_8  and  C_9
REMARK    3  A    between atoms: N_13  and  C_17
REMARK    4  A    between atoms: C_17  and  C_18
REMARK    5  A    between atoms: N_20  and  N_21
REMARK    6  A    between atoms: C_22  and  C_24
REMARK    7  A    between atoms: C_24  and  S_25
REMARK    8  A    between atoms: S_25  and  C_26
REMARK                            x       y       z     vdW  Elec       q    Type
REMARK                         _______ _______ _______ _____ _____    ______ ____
ROOT
ATOM      1  C   UNL     1       1.008  -9.622  -0.060  0.00  0.00    +0.247 C 
ATOM      2  O   UNL     1       2.199  -9.395  -0.070  0.00  0.00    -0.273 OA
ATOM      3  N   UNL     1       0.127  -8.602  -0.047  0.00  0.00    -0.233 N 
ATOM      4  H   UNL     1      -0.826  -8.784  -0.039  0.00  0.00    +0.173 HD
ENDROOT
BRANCH   3   5
ATOM      5  N   UNL     1       0.588  -7.279  -0.043  0.00  0.00    -0.234 N 
ATOM      6  C   UNL     1      -0.293  -6.258  -0.030  0.00  0.00    +0.239 C 
ATOM      7  O   UNL     1      -1.484  -6.486  -0.020  0.00  0.00    -0.273 OA
ATOM      8  H   UNL     1       1.541  -7.097  -0.051  0.00  0.00    +0.173 HD
BRANCH   6   9
ATOM      9  C   UNL     1       0.203  -4.835  -0.026  0.00  0.00    +0.176 C 
BRANCH   9  10
ATOM     10  S   UNL     1      -1.210  -3.704  -0.007  0.00  0.00    -0.058 S 
BRANCH  10  11
ATOM     11  C   UNL     1      -0.365  -2.158  -0.006  0.00  0.00    +0.258 A 
ATOM     12  N   UNL     1       0.936  -2.015  -0.018  0.00  0.00    -0.203 NA
ATOM     13  C   UNL     1       1.228  -0.685  -0.013  0.00  0.00    +0.110 A 
ATOM     14  C   UNL     1       2.421   0.039  -0.021  0.00  0.00    +0.031 A 
ATOM     15  C   UNL     1       2.385   1.416  -0.013  0.00  0.00    +0.002 A 
ATOM     16  C   UNL     1       1.170   2.085   0.002  0.00  0.00    +0.004 A 
ATOM     17  C   UNL     1      -0.017   1.381   0.010  0.00  0.00    +0.048 A 
ATOM     18  C   UNL     1       0.002  -0.004   0.002  0.00  0.00    +0.156 A 
ATOM     19  O   UNL     1      -0.962  -0.953   0.006  0.00  0.00    -0.431 OA
ENDBRANCH  10  11
ENDBRANCH   9  10
ENDBRANCH   6   9
ENDBRANCH   3   5
BRANCH   1  20
ATOM     20  C   UNL     1       0.512 -11.045  -0.064  0.00  0.00    +0.212 C 
BRANCH  20  25
ATOM     21  C   UNL     1       4.045 -13.869   1.986  0.00  0.00    +0.020 C 
ATOM     22  C   UNL     1       3.321 -13.291   0.985  0.00  0.00    +0.077 C 
ATOM     23  C   UNL     1       2.171 -12.371   1.067  0.00  0.00    +0.259 C 
ATOM     24  O   UNL     1       1.718 -12.007   2.137  0.00  0.00    -0.269 OA
ATOM     25  N   UNL     1       1.656 -11.960  -0.080  0.00  0.00    -0.246 N 
ATOM     26  C   UNL     1       2.156 -12.370  -1.263  0.00  0.00    +0.121 C 
ATOM     27  S   UNL     1       1.629 -11.961  -2.840  0.00  0.00    -0.027 S 
ATOM     28  S   UNL     1       3.504 -13.440  -0.787  0.00  0.00    -0.061 S 
BRANCH  21  30
ATOM     29  C   UNL     1       5.837 -15.301   2.668  0.00  0.00    +0.008 C 
ATOM     30  C   UNL     1       5.118 -14.728   1.674  0.00  0.00    +0.002 C 
BRANCH  29  34
ATOM     31  C   UNL     1       9.064 -17.887   1.729  0.00  0.00    +0.000 A 
ATOM     32  C   UNL     1       8.749 -17.631   3.052  0.00  0.00    +0.001 A 
ATOM     33  C   UNL     1       7.702 -16.792   3.366  0.00  0.00    +0.008 A 
ATOM     34  C   UNL     1       6.956 -16.197   2.342  0.00  0.00    -0.025 A 
ATOM     35  C   UNL     1       7.278 -16.465   1.007  0.00  0.00    +0.008 A 
ATOM     36  C   UNL     1       8.332 -17.302   0.710  0.00  0.00    +0.001 A 
ENDBRANCH  29  34
ENDBRANCH  21  30
ENDBRANCH  20  25
ENDBRANCH   1  20
TORSDOF 8
