REMARK  Name = ZINC41547157
REMARK  8 active torsions:
REMARK  status: ('A' for Active; 'I' for Inactive)
REMARK    1  A    between atoms: C_1  and  C_2
REMARK    2  A    between atoms: C_11  and  C_13
REMARK    3  A    between atoms: C_11  and  C_14
REMARK    4  A    between atoms: N_16  and  C_17
REMARK    5  A    between atoms: C_18  and  C_25
REMARK    6  A    between atoms: C_20  and  C_22
REMARK    7  A    between atoms: C_22  and  C_23
REMARK    8  A    between atoms: C_22  and  C_24
REMARK                            x       y       z     vdW  Elec       q    Type
REMARK                         _______ _______ _______ _____ _____    ______ ____
ROOT
ATOM      1  C   UNL     1       2.194  -4.685   0.833  0.00  0.00    +0.270 C 
ATOM      2  O   UNL     1       2.938  -4.569   1.784  0.00  0.00    -0.271 OA
ATOM      3  N   UNL     1       2.699  -4.724  -0.416  0.00  0.00    -0.276 N 
ATOM      4  H   UNL     1       2.105  -4.818  -1.177  0.00  0.00    +0.155 HD
ENDROOT
BRANCH   1  15
ATOM      5  C   UNL     1      -0.018   1.503   0.010  0.00  0.00    +0.044 C 
ATOM      6  C   UNL     1       0.002  -0.004   0.002  0.00  0.00    -0.048 A 
ATOM      7  C   UNL     1       0.006  -0.687  -1.200  0.00  0.00    +0.007 A 
ATOM      8  C   UNL     1       0.019  -2.070  -1.216  0.00  0.00    +0.048 A 
ATOM      9  C   UNL     1       0.031  -2.773  -0.024  0.00  0.00    +0.144 A 
ATOM     10  C   UNL     1       0.038  -2.085   1.188  0.00  0.00    +0.076 A 
ATOM     11  C   UNL     1       0.023  -0.700   1.197  0.00  0.00    +0.030 A 
ATOM     12  N   UNL     1       0.086  -2.805   2.389  0.00  0.00    -0.279 N 
ATOM     13  C   UNL     1       0.342  -4.129   2.355  0.00  0.00    +0.270 C 
ATOM     14  O   UNL     1       0.279  -4.788   3.371  0.00  0.00    -0.271 OA
ATOM     15  C   UNL     1       0.706  -4.787   1.048  0.00  0.00    +0.258 C 
ATOM     16  O   UNL     1       0.025  -4.133  -0.026  0.00  0.00    -0.465 OA
ATOM     17  C   UNL     1       0.298  -6.261   1.088  0.00  0.00    +0.076 C 
ATOM     18  H   UNL     1      -0.063  -2.356   3.236  0.00  0.00    +0.155 HD
ENDBRANCH   1  15
BRANCH   3  19
ATOM     19  C   UNL     1       4.069  -4.631  -0.613  0.00  0.00    +0.084 A 
ATOM     20  C   UNL     1       4.760  -4.647  -1.816  0.00  0.00    +0.065 A 
ATOM     21  C   UNL     1       6.198  -4.533  -1.736  0.00  0.00    +0.026 A 
ATOM     22  C   UNL     1       6.710  -4.423  -0.496  0.00  0.00    -0.005 A 
ATOM     23  S   UNL     1       5.269  -4.466   0.547  0.00  0.00    -0.077 S 
BRANCH  20  24
ATOM     24  C   UNL     1       4.067  -4.774  -3.102  0.00  0.00    +0.244 C 
ATOM     25  O   UNL     1       2.854  -4.869  -3.133  0.00  0.00    -0.270 OA
ATOM     26  N   UNL     1       4.773  -4.786  -4.250  0.00  0.00    -0.325 N 
ATOM     27  H   UNL     1       5.740  -4.710  -4.225  0.00  0.00    +0.145 HD
ATOM     28  H   UNL     1       4.315  -4.870  -5.100  0.00  0.00    +0.145 HD
ENDBRANCH  20  24
BRANCH  22  29
ATOM     29  C   UNL     1       8.155  -4.289  -0.090  0.00  0.00    +0.020 C 
ATOM     30  C   UNL     1       8.352  -2.976   0.670  0.00  0.00    +0.013 C 
ATOM     31  C   UNL     1       8.542  -5.463   0.812  0.00  0.00    +0.013 C 
ENDBRANCH  22  29
ENDBRANCH   3  19
TORSDOF 4
