REMARK  Name = ZINC12437548
REMARK  5 active torsions:
REMARK  status: ('A' for Active; 'I' for Inactive)
REMARK    1  A    between atoms: C_4  and  S_7
REMARK    2  A    between atoms: S_7  and  N_10
REMARK    3  A    between atoms: N_10  and  N_11
REMARK    4  A    between atoms: C_13  and  C_22
REMARK    5  A    between atoms: N_24  and  C_25
REMARK                            x       y       z     vdW  Elec       q    Type
REMARK                         _______ _______ _______ _____ _____    ______ ____
ROOT
ATOM      1  N   UNL     1       2.874   0.710  -0.967  0.00  0.00    -0.127 NA
ATOM      2  C   UNL     1       3.111   1.991  -0.961  0.00  0.00    +0.249 A 
ATOM      3  C   UNL     1       2.198   2.934  -0.273  0.00  0.00    +0.101 A 
ATOM      4  C   UNL     1       2.740   4.112   0.185  0.00  0.00    +0.030 A 
ATOM      5  C   UNL     1       4.171   4.338  -0.049  0.00  0.00    +0.018 A 
ATOM      6  C   UNL     1       4.848   5.369   0.611  0.00  0.00    +0.011 A 
ATOM      7  C   UNL     1       6.192   5.560   0.378  0.00  0.00    +0.001 A 
ATOM      8  C   UNL     1       6.874   4.738  -0.505  0.00  0.00    +0.004 A 
ATOM      9  C   UNL     1       6.217   3.716  -1.165  0.00  0.00    +0.047 A 
ATOM     10  C   UNL     1       4.866   3.508  -0.946  0.00  0.00    +0.138 A 
ATOM     11  O   UNL     1       4.207   2.512  -1.591  0.00  0.00    -0.436 OA
ENDROOT
BRANCH   3  12
ATOM     12  C   UNL     1       0.773   2.620  -0.083  0.00  0.00    +0.253 C 
ATOM     13  O   UNL     1      -0.009   3.502   0.221  0.00  0.00    -0.270 OA
ATOM     14  N   UNL     1       0.333   1.357  -0.249  0.00  0.00    -0.281 N 
ATOM     15  H   UNL     1       0.942   0.667  -0.555  0.00  0.00    +0.155 HD
BRANCH  14  16
ATOM     16  C   UNL     1      -1.003   1.041   0.019  0.00  0.00    +0.036 A 
ATOM     17  C   UNL     1      -1.330  -0.198   0.556  0.00  0.00    +0.023 A 
ATOM     18  C   UNL     1      -2.649  -0.509   0.821  0.00  0.00    +0.005 A 
ATOM     19  C   UNL     1      -3.646   0.412   0.553  0.00  0.00    +0.038 A 
ATOM     20  C   UNL     1      -3.324   1.648   0.018  0.00  0.00    +0.125 A 
ATOM     21  C   UNL     1      -2.003   1.966  -0.245  0.00  0.00    +0.061 A 
ATOM     22  F   UNL     1      -4.299   2.545  -0.243  0.00  0.00    -0.205 F 
ENDBRANCH  14  16
ENDBRANCH   3  12
BRANCH   1  23
ATOM     23  N   UNL     1       3.837  -0.178  -1.463  0.00  0.00    -0.133 N 
ATOM     24  H   UNL     1       4.673   0.162  -1.818  0.00  0.00    +0.197 HD
BRANCH  23  25
ATOM     25  S   UNL     1       3.548  -1.809  -1.444  0.00  0.00    +0.087 S 
ATOM     26  O   UNL     1       4.555  -2.409  -2.246  0.00  0.00    -0.149 OA
ATOM     27  O   UNL     1       3.342  -2.168  -0.084  0.00  0.00    -0.149 OA
BRANCH  25  31
ATOM     28  C   UNL     1      -0.387  -2.496  -3.575  0.00  0.00    +0.000 A 
ATOM     29  C   UNL     1       0.778  -2.348  -4.304  0.00  0.00    +0.002 A 
ATOM     30  C   UNL     1       1.980  -2.138  -3.654  0.00  0.00    +0.029 A 
ATOM     31  C   UNL     1       2.016  -2.076  -2.273  0.00  0.00    +0.110 A 
ATOM     32  C   UNL     1       0.852  -2.229  -1.543  0.00  0.00    +0.029 A 
ATOM     33  C   UNL     1      -0.350  -2.435  -2.194  0.00  0.00    +0.002 A 
ENDBRANCH  25  31
ENDBRANCH  23  25
ENDBRANCH   1  23
TORSDOF 5
