REMARK  Name = ZINC39672892
REMARK  7 active torsions:
REMARK  status: ('A' for Active; 'I' for Inactive)
REMARK    1  A    between atoms: C_3  and  O_8
REMARK    2  A    between atoms: O_8  and  C_9
REMARK    3  A    between atoms: C_9  and  C_10
REMARK    4  A    between atoms: C_14  and  C_23
REMARK    5  A    between atoms: N_25  and  C_26
REMARK    6  A    between atoms: C_26  and  C_27
REMARK    7  A    between atoms: C_27  and  N_33
REMARK                            x       y       z     vdW  Elec       q    Type
REMARK                         _______ _______ _______ _____ _____    ______ ____
ROOT
ATOM      1  C   UNL     1       6.122   2.327   0.380  0.00  0.00    +0.253 C 
ATOM      2  O   UNL     1       5.999   3.533   0.438  0.00  0.00    -0.272 OA
ATOM      3  N   UNL     1       7.350   1.778   0.298  0.00  0.00    -0.297 N 
ATOM      4  C   UNL     1       7.699   0.341   0.214  0.00  0.00    +0.121 C 
ATOM      5  C   UNL     1       8.871   0.282  -0.791  0.00  0.00    +0.100 C 
ATOM      6  C   UNL     1       9.497   1.685  -0.747  0.00  0.00    -0.004 C 
ATOM      7  C   UNL     1       8.657   2.477   0.267  0.00  0.00    +0.115 C 
ATOM      8  C   UNL     1      10.948   1.602  -0.282  0.00  0.00    -0.010 C 
ATOM      9  C   UNL     1      11.566   3.003  -0.301  0.00  0.00    -0.082 C 
ATOM     10  N   UNL     1      11.498   3.551  -1.661  0.00  0.00    +0.379 N 
ATOM     11  C   UNL     1      10.096   3.715  -2.065  0.00  0.00    -0.082 C 
ATOM     12  C   UNL     1       9.416   2.344  -2.120  0.00  0.00    -0.010 C 
ATOM     13  H   UNL     1      11.960   4.448  -1.684  0.00  0.00    -0.086 HD
ATOM     14  H   UNL     1      11.959   2.921  -2.300  0.00  0.00    -0.086 HD
ENDROOT
BRANCH   5  15
ATOM     15  C   UNL     1       9.875  -0.758  -0.365  0.00  0.00    +0.218 C 
ATOM     16  O   UNL     1      10.039  -0.996   0.813  0.00  0.00    -0.275 OA
ATOM     17  N   UNL     1      10.592  -1.422  -1.293  0.00  0.00    -0.313 N 
ATOM     18  H   UNL     1      10.462  -1.231  -2.235  0.00  0.00    +0.149 HD
BRANCH  17  19
ATOM     19  C   UNL     1      11.569  -2.432  -0.878  0.00  0.00    +0.126 C 
BRANCH  19  20
ATOM     20  C   UNL     1      12.328  -2.942  -2.106  0.00  0.00    +0.038 C 
ATOM     21  C   UNL     1      13.254  -4.088  -1.694  0.00  0.00    +0.024 C 
ATOM     22  C   UNL     1      14.252  -3.586  -0.649  0.00  0.00    +0.002 C 
ATOM     23  C   UNL     1      15.084  -2.448  -1.244  0.00  0.00    +0.000 C 
ATOM     24  C   UNL     1      14.158  -1.302  -1.656  0.00  0.00    +0.002 C 
ATOM     25  C   UNL     1      13.159  -1.804  -2.701  0.00  0.00    +0.024 C 
BRANCH  20  26
ATOM     26  N   UNL     1      11.368  -3.424  -3.109  0.00  0.00    -0.291 NA
ATOM     27  C   UNL     1      10.512  -4.482  -2.553  0.00  0.00    +0.113 C 
ATOM     28  C   UNL     1       9.491  -4.912  -3.610  0.00  0.00    +0.175 C 
ATOM     29  O   UNL     1      10.182  -5.337  -4.788  0.00  0.00    -0.377 OA
ATOM     30  C   UNL     1      11.025  -4.331  -5.356  0.00  0.00    +0.175 C 
ATOM     31  C   UNL     1      12.062  -3.895  -4.317  0.00  0.00    +0.113 C 
ENDBRANCH  20  26
ENDBRANCH  19  20
ENDBRANCH  17  19
ENDBRANCH   5  15
BRANCH   1  32
ATOM     32  C   UNL     1       4.901   1.444   0.400  0.00  0.00    +0.324 C 
BRANCH  32  33
ATOM     33  O   UNL     1       3.728   2.254   0.490  0.00  0.00    -0.483 OA
BRANCH  33  36
ATOM     34  C   UNL     1       0.139   1.674   0.635  0.00  0.00    +0.005 A 
ATOM     35  C   UNL     1       1.353   2.333   0.606  0.00  0.00    +0.046 A 
ATOM     36  C   UNL     1       2.533   1.608   0.519  0.00  0.00    +0.123 A 
ATOM     37  C   UNL     1       2.490   0.222   0.462  0.00  0.00    +0.065 A 
ATOM     38  C   UNL     1       1.273  -0.432   0.491  0.00  0.00    +0.044 A 
ATOM     39  C   UNL     1       0.098   0.293   0.577  0.00  0.00    +0.020 A 
ATOM     40 CL   UNL     1       1.219  -2.166   0.418  0.00  0.00    -0.083 Cl
ENDBRANCH  33  36
ENDBRANCH  32  33
ENDBRANCH   1  32
TORSDOF 7
