REMARK  Name = ZINC39666473
REMARK  8 active torsions:
REMARK  status: ('A' for Active; 'I' for Inactive)
REMARK    1  A    between atoms: C_1  and  C_2
REMARK    2  A    between atoms: C_2  and  C_4
REMARK    3  A    between atoms: C_2  and  O_28
REMARK    4  A    between atoms: C_4  and  N_5
REMARK    5  A    between atoms: C_6  and  C_8
REMARK    6  A    between atoms: C_19  and  C_21
REMARK    7  A    between atoms: C_21  and  C_27
REMARK    8  A    between atoms: O_28  and  C_29
REMARK                            x       y       z     vdW  Elec       q    Type
REMARK                         _______ _______ _______ _____ _____    ______ ____
ROOT
ATOM      1  C   UNL     1       1.316  -3.677   2.270  0.00  0.00    +0.100 C 
ATOM      2  C   UNL     1       0.004  -4.488   2.187  0.00  0.00    +0.121 C 
ATOM      3  N   UNL     1       0.273  -5.716   2.971  0.00  0.00    -0.300 N 
ATOM      4  C   UNL     1       1.066  -5.247   4.132  0.00  0.00    +0.115 C 
ATOM      5  C   UNL     1       2.010  -4.177   3.548  0.00  0.00    -0.004 C 
ATOM      6  C   UNL     1       3.362  -4.797   3.207  0.00  0.00    -0.010 C 
ATOM      7  C   UNL     1       4.057  -5.235   4.499  0.00  0.00    -0.082 C 
ATOM      8  N   UNL     1       4.236  -4.074   5.379  0.00  0.00    +0.379 N 
ATOM      9  C   UNL     1       2.927  -3.541   5.777  0.00  0.00    -0.082 C 
ATOM     10  C   UNL     1       2.184  -3.030   4.539  0.00  0.00    -0.010 C 
ATOM     11  C   UNL     1      -0.116  -6.976   2.691  0.00  0.00    +0.222 C 
ATOM     12  O   UNL     1       0.124  -7.872   3.473  0.00  0.00    -0.275 OA
ATOM     13  H   UNL     1       4.748  -4.353   6.203  0.00  0.00    -0.086 HD
ATOM     14  H   UNL     1       4.754  -3.360   4.890  0.00  0.00    -0.086 HD
ENDROOT
BRANCH  11  15
ATOM     15  C   UNL     1      -0.848  -7.272   1.407  0.00  0.00    +0.044 C 
ATOM     16  C   UNL     1      -2.111  -6.412   1.331  0.00  0.00    +0.016 C 
ATOM     17  C   UNL     1      -3.018  -6.733   2.521  0.00  0.00    +0.001 C 
ATOM     18  C   UNL     1      -3.405  -8.212   2.483  0.00  0.00    +0.000 C 
ATOM     19  C   UNL     1      -2.142  -9.072   2.559  0.00  0.00    +0.001 C 
ATOM     20  C   UNL     1      -1.235  -8.752   1.370  0.00  0.00    +0.016 C 
ATOM     21  C   UNL     1       0.059  -6.951   0.218  0.00  0.00    +0.021 C 
ENDBRANCH  11  15
BRANCH   1  23
ATOM     22  N   UNL     1       1.882  -1.302   1.874  0.00  0.00    -0.312 N 
ATOM     23  C   UNL     1       1.017  -2.204   2.378  0.00  0.00    +0.218 C 
ATOM     24  O   UNL     1      -0.003  -1.830   2.918  0.00  0.00    -0.275 OA
ATOM     25  H   UNL     1       2.698  -1.600   1.442  0.00  0.00    +0.149 HD
BRANCH  22  26
ATOM     26  C   UNL     1       1.591   0.130   1.979  0.00  0.00    +0.148 C 
BRANCH  26  28
ATOM     27  C   UNL     1       2.483   2.425   1.552  0.00  0.00    +0.053 C 
ATOM     28  C   UNL     1       2.725   0.930   1.333  0.00  0.00    +0.187 C 
BRANCH  28  29
ATOM     29  O   UNL     1       2.764   0.654  -0.068  0.00  0.00    -0.486 OA
BRANCH  29  30
ATOM     30  C   UNL     1       3.945   0.868  -0.706  0.00  0.00    +0.139 A 
ATOM     31  C   UNL     1       5.063   1.259   0.015  0.00  0.00    +0.047 A 
ATOM     32  C   UNL     1       6.263   1.475  -0.636  0.00  0.00    +0.004 A 
ATOM     33  C   UNL     1       6.349   1.302  -2.005  0.00  0.00    +0.002 A 
ATOM     34  C   UNL     1       5.237   0.912  -2.727  0.00  0.00    +0.023 A 
ATOM     35  C   UNL     1       4.035   0.689  -2.080  0.00  0.00    +0.083 A 
ATOM     36 CL   UNL     1       2.640   0.192  -2.985  0.00  0.00    -0.080 Cl
ENDBRANCH  29  30
ENDBRANCH  28  29
ENDBRANCH  26  28
ENDBRANCH  22  26
ENDBRANCH   1  23
TORSDOF 6
