REMARK  Name = ZINC06199834
REMARK  9 active torsions:
REMARK  status: ('A' for Active; 'I' for Inactive)
REMARK    1  A    between atoms: C_1  and  C_2
REMARK    2  A    between atoms: C_8  and  C_9
REMARK    3  A    between atoms: C_8  and  N_56
REMARK    4  A    between atoms: C_15  and  O_31
REMARK    5  A    between atoms: C_16  and  O_20
REMARK    6  A    between atoms: O_20  and  C_21
REMARK    7  A    between atoms: C_24  and  C_27
REMARK    8  A    between atoms: C_27  and  O_29
REMARK    9  A    between atoms: O_29  and  C_30
REMARK                            x       y       z     vdW  Elec       q    Type
REMARK                         _______ _______ _______ _____ _____    ______ ____
ROOT
ATOM      1  C   UNL     1       1.237  -2.051  -0.026  0.00  0.00    +0.026 A 
ATOM      2  C   UNL     1       0.035  -2.763  -0.043  0.00  0.00    +0.184 A 
ATOM      3  O   UNL     1       0.054  -4.097  -0.051  0.00  0.00    -0.288 OA
ATOM      4  C   UNL     1      -1.196  -2.081  -0.052  0.00  0.00    +0.052 A 
ATOM      5  C   UNL     1      -1.229  -0.723  -0.044  0.00  0.00    +0.019 A 
ATOM      6  C   UNL     1      -0.028   0.007  -0.026  0.00  0.00    +0.063 A 
ATOM      7  C   UNL     1      -0.035   1.419  -0.017  0.00  0.00    +0.173 A 
ATOM      8  C   UNL     1       1.202   2.088  -0.000  0.00  0.00    +0.205 A 
ATOM      9  C   UNL     1       2.358   1.376   0.006  0.00  0.00    +0.245 A 
ATOM     10  O   UNL     1       2.362   0.038  -0.002  0.00  0.00    -0.459 OA
ATOM     11  C   UNL     1       1.214  -0.669  -0.018  0.00  0.00    +0.143 A 
ENDROOT
BRANCH   7  12
ATOM     12  O   UNL     1      -1.197   2.107  -0.030  0.00  0.00    -0.503 OA
ATOM     13  H   UNL     1      -1.548   2.302   0.849  0.00  0.00    +0.292 HD
ENDBRANCH   7  12
BRANCH   1  14
ATOM     14  C   UNL     1       2.552  -2.786  -0.018  0.00  0.00    -0.035 C 
BRANCH  14  21
ATOM     15  C   UNL     1       3.759  -0.749   4.294  0.00  0.00    +0.005 C 
ATOM     16  C   UNL     1       3.655  -2.058   3.508  0.00  0.00    -0.031 C 
ATOM     17  C   UNL     1       2.728  -3.026   4.247  0.00  0.00    -0.001 C 
ATOM     18  C   UNL     1       2.582  -4.309   3.426  0.00  0.00    -0.018 C 
ATOM     19  C   UNL     1       2.043  -3.962   2.036  0.00  0.00    -0.078 C 
ATOM     20  C   UNL     1       3.085  -1.775   2.116  0.00  0.00    -0.075 C 
ATOM     21  N   UNL     1       2.993  -3.047   1.368  0.00  0.00    +0.383 N 
ATOM     22  H   UNL     1       3.920  -3.488   1.346  0.00  0.00    -0.081 HD
ENDBRANCH  14  21
ENDBRANCH   1  14
BRANCH   8  23
ATOM     23  O   UNL     1       1.240   3.449   0.008  0.00  0.00    -0.449 OA
BRANCH  23  24
ATOM     24  C   UNL     1       1.057   4.084   1.193  0.00  0.00    +0.129 A 
ATOM     25  C   UNL     1       0.948   3.345   2.366  0.00  0.00    +0.047 A 
ATOM     26  C   UNL     1       0.768   3.986   3.571  0.00  0.00    +0.018 A 
ATOM     27  C   UNL     1       0.683   5.380   3.613  0.00  0.00    +0.059 A 
ATOM     28  C   UNL     1       0.786   6.119   2.431  0.00  0.00    +0.018 A 
ATOM     29  C   UNL     1       0.972   5.471   1.230  0.00  0.00    +0.047 A 
BRANCH  27  30
ATOM     30  C   UNL     1       0.484   6.070   4.901  0.00  0.00    +0.339 C 
ATOM     31  O   UNL     1       0.411   7.283   4.936  0.00  0.00    -0.245 OA
BRANCH  30  32
ATOM     32  O   UNL     1       0.385   5.357   6.040  0.00  0.00    -0.464 OA
ATOM     33  C   UNL     1       0.190   6.102   7.270  0.00  0.00    +0.280 C 
ENDBRANCH  30  32
ENDBRANCH  27  30
ENDBRANCH  23  24
ENDBRANCH   8  23
TORSDOF 7
