REMARK  Name = ZINC63399334
REMARK  9 active torsions:
REMARK  status: ('A' for Active; 'I' for Inactive)
REMARK    1  A    between atoms: C_7  and  C_10
REMARK    2  A    between atoms: C_13  and  S_19
REMARK    3  A    between atoms: N_15  and  C_16
REMARK    4  A    between atoms: S_19  and  C_20
REMARK    5  A    between atoms: C_20  and  C_21
REMARK    6  A    between atoms: N_23  and  C_24
REMARK    7  A    between atoms: C_29  and  S_30
REMARK    8  A    between atoms: S_30  and  C_31
REMARK    9  A    between atoms: C_31  and  C_32
REMARK                            x       y       z     vdW  Elec       q    Type
REMARK                         _______ _______ _______ _____ _____    ______ ____
ROOT
ATOM      1  C   UNL     1       0.684  -3.159  -0.124  0.00  0.00    +0.147 C 
ATOM      2  N   UNL     1      -0.606  -2.949  -0.131  0.00  0.00    -0.169 NA
ATOM      3  N   UNL     1      -1.317  -4.153  -0.175  0.00  0.00    -0.237 N 
ATOM      4  C   UNL     1      -0.314  -5.231  -0.197  0.00  0.00    +0.237 C 
ATOM      5  N   UNL     1       0.977  -4.524  -0.169  0.00  0.00    -0.282 N 
ATOM      6  H   UNL     1      -2.281  -4.258  -0.188  0.00  0.00    +0.171 HD
ENDROOT
BRANCH   1  13
ATOM      7  C   UNL     1       0.342   1.363  -0.277  0.00  0.00    +0.001 A 
ATOM      8  C   UNL     1       1.573   2.019  -0.208  0.00  0.00    +0.002 A 
ATOM      9  C   UNL     1       2.742   1.339  -0.105  0.00  0.00    +0.026 A 
ATOM     10  C   UNL     1       2.731  -0.080  -0.065  0.00  0.00    +0.043 A 
ATOM     11  N   UNL     1       3.711  -0.957   0.030  0.00  0.00    -0.380 N 
ATOM     12  C   UNL     1       3.150  -2.311   0.028  0.00  0.00    +0.152 C 
ATOM     13  C   UNL     1       1.651  -2.143  -0.084  0.00  0.00    +0.022 C 
ATOM     14  C   UNL     1       1.431  -0.766  -0.139  0.00  0.00    +0.006 A 
ATOM     15  C   UNL     1       0.256   0.008  -0.245  0.00  0.00    +0.010 A 
ATOM     16  H   UNL     1       4.655  -0.740   0.091  0.00  0.00    +0.160 HD
ENDBRANCH   1  13
BRANCH   5  17
ATOM     17  C   UNL     1       2.309  -5.134  -0.182  0.00  0.00    +0.078 C 
ATOM     18  C   UNL     1       2.403  -6.619  -0.539  0.00  0.00    +0.024 C 
ATOM     19  C   UNL     1       2.625  -6.165   0.905  0.00  0.00    +0.024 C 
ENDBRANCH   5  17
BRANCH   4  20
ATOM     20  S   UNL     1      -0.466  -6.208  -1.718  0.00  0.00    -0.109 S 
BRANCH  20  21
ATOM     21  C   UNL     1      -0.230  -4.994  -3.045  0.00  0.00    +0.168 C 
BRANCH  21  22
ATOM     22  C   UNL     1      -0.333  -5.684  -4.381  0.00  0.00    +0.227 C 
ATOM     23  O   UNL     1      -0.546  -6.877  -4.433  0.00  0.00    -0.275 OA
ATOM     24  N   UNL     1      -0.190  -4.975  -5.518  0.00  0.00    -0.284 N 
ATOM     25  H   UNL     1       0.062  -4.039  -5.478  0.00  0.00    +0.155 HD
BRANCH  24  26
ATOM     26  C   UNL     1      -0.404  -5.590  -6.759  0.00  0.00    +0.047 A 
ATOM     27  C   UNL     1      -1.225  -6.703  -6.851  0.00  0.00    +0.024 A 
ATOM     28  C   UNL     1      -1.435  -7.309  -8.076  0.00  0.00    +0.002 A 
ATOM     29  C   UNL     1      -0.827  -6.807  -9.213  0.00  0.00    +0.001 A 
ATOM     30  C   UNL     1      -0.007  -5.698  -9.132  0.00  0.00    +0.016 A 
ATOM     31  C   UNL     1       0.205  -5.080  -7.907  0.00  0.00    +0.030 A 
BRANCH  31  32
ATOM     32  S   UNL     1       1.244  -3.662  -7.801  0.00  0.00    -0.108 S 
BRANCH  32  33
ATOM     33  C   UNL     1       1.788  -3.387  -9.509  0.00  0.00    +0.192 C 
BRANCH  33  34
ATOM     34  C   UNL     1       2.675  -2.214  -9.559  0.00  0.00    +0.074 C 
ATOM     35  N   UNL     1       3.360  -1.308  -9.598  0.00  0.00    -0.196 NA
ENDBRANCH  33  34
ENDBRANCH  32  33
ENDBRANCH  31  32
ENDBRANCH  24  26
ENDBRANCH  21  22
ENDBRANCH  20  21
ENDBRANCH   4  20
TORSDOF 9
