REMARK  Name = ZINC08920023
REMARK  14 active torsions:
REMARK  status: ('A' for Active; 'I' for Inactive)
REMARK    1  A    between atoms: C_1  and  C_2
REMARK    2  A    between atoms: C_2  and  C_3
REMARK    3  A    between atoms: C_3  and  C_4
REMARK    4  A    between atoms: C_3  and  C_5
REMARK    5  A    between atoms: C_3  and  C_6
REMARK    6  A    between atoms: C_15  and  O_39
REMARK    7  A    between atoms: C_17  and  C_20
REMARK    8  A    between atoms: C_23  and  O_29
REMARK    9  A    between atoms: C_24  and  O_26
REMARK   10  A    between atoms: O_26  and  C_27
REMARK   11  A    between atoms: C_27  and  C_28
REMARK   12  A    between atoms: O_29  and  C_30
REMARK   13  A    between atoms: C_30  and  C_32
REMARK   14  A    between atoms: C_35  and  C_38
REMARK                            x       y       z     vdW  Elec       q    Type
REMARK                         _______ _______ _______ _____ _____    ______ ____
ROOT
ATOM      1  C   UNL     1       0.952  -2.075   1.312  0.00  0.00    -0.000 C 
ATOM      2  C   UNL     1       1.664  -2.610   2.559  0.00  0.00    +0.009 C 
ATOM      3  C   UNL     1       1.875  -4.120   2.430  0.00  0.00    +0.037 C 
ATOM      4  C   UNL     1       0.542  -4.773   2.095  0.00  0.00    -0.023 A 
ATOM      5  C   UNL     1      -0.488  -4.048   1.601  0.00  0.00    -0.004 A 
ATOM      6  S   UNL     1      -1.798  -5.219   1.373  0.00  0.00    -0.078 S 
ATOM      7  C   UNL     1      -1.034  -6.591   1.904  0.00  0.00    +0.080 A 
ATOM      8  C   UNL     1       0.256  -6.186   2.266  0.00  0.00    +0.068 A 
ATOM      9  C   UNL     1       1.185  -7.229   2.772  0.00  0.00    +0.220 C 
ATOM     10  N   UNL     1       0.679  -8.391   3.084  0.00  0.00    -0.223 NA
ATOM     11  C   UNL     1      -0.741  -8.716   3.030  0.00  0.00    +0.224 C 
ATOM     12  N   UNL     1      -1.447  -7.899   2.026  0.00  0.00    -0.313 N 
ATOM     13  C   UNL     1      -0.499  -2.578   1.312  0.00  0.00    +0.046 C 
ATOM     14  H   UNL     1      -2.163  -8.263   1.482  0.00  0.00    +0.149 HD
ENDROOT
BRANCH  11  15
ATOM     15  C   UNL     1      -1.354  -8.467   4.384  0.00  0.00    -0.002 A 
ATOM     16  C   UNL     1      -2.683  -8.097   4.482  0.00  0.00    +0.011 A 
ATOM     17  C   UNL     1      -3.251  -7.868   5.721  0.00  0.00    +0.050 A 
ATOM     18  C   UNL     1      -2.487  -8.008   6.869  0.00  0.00    +0.173 A 
ATOM     19  C   UNL     1      -1.150  -8.380   6.771  0.00  0.00    +0.163 A 
ATOM     20  C   UNL     1      -0.589  -8.613   5.525  0.00  0.00    +0.056 A 
BRANCH  19  21
ATOM     21  O   UNL     1      -0.396  -8.519   7.894  0.00  0.00    -0.489 OA
BRANCH  21  22
ATOM     22  C   UNL     1       0.969  -8.903   7.717  0.00  0.00    +0.226 C 
ATOM     23  C   UNL     1       1.651  -9.007   9.082  0.00  0.00    +0.048 C 
ENDBRANCH  21  22
ENDBRANCH  19  21
BRANCH  18  24
ATOM     24  O   UNL     1      -3.044  -7.782   8.089  0.00  0.00    -0.419 OA
BRANCH  24  25
ATOM     25  C   UNL     1      -2.833  -6.585   8.668  0.00  0.00    +0.345 C 
ATOM     26  O   UNL     1      -2.247  -5.711   8.061  0.00  0.00    -0.245 OA
BRANCH  25  27
ATOM     27  C   UNL     1      -3.314  -6.334  10.042  0.00  0.00    +0.059 A 
ATOM     28  C   UNL     1      -3.983  -7.338  10.745  0.00  0.00    +0.015 A 
ATOM     29  C   UNL     1      -4.430  -7.097  12.028  0.00  0.00    +0.004 A 
ATOM     30  C   UNL     1      -4.217  -5.863  12.618  0.00  0.00    -0.050 A 
ATOM     31  C   UNL     1      -3.555  -4.864  11.927  0.00  0.00    +0.004 A 
ATOM     32  C   UNL     1      -3.098  -5.093  10.646  0.00  0.00    +0.015 A 
ATOM     33  C   UNL     1      -4.708  -5.607  14.019  0.00  0.00    +0.044 C 
ENDBRANCH  25  27
ENDBRANCH  24  25
ENDBRANCH  18  24
ENDBRANCH  11  15
BRANCH   1  34
ATOM     34  C   UNL     1       0.964  -0.545   1.332  0.00  0.00    -0.032 C 
ATOM     35  C   UNL     1       2.411  -0.047   1.339  0.00  0.00    +0.011 C 
ATOM     36  C   UNL     1       0.247  -0.046   2.587  0.00  0.00    +0.011 C 
BRANCH  34  38
ATOM     37  C   UNL     1       0.260   1.516   0.109  0.00  0.00    +0.004 C 
ATOM     38  C   UNL     1       0.248  -0.014   0.089  0.00  0.00    +0.003 C 
ENDBRANCH  34  38
ENDBRANCH   1  34
BRANCH   9  39
ATOM     39  O   UNL     1       2.509  -6.982   2.906  0.00  0.00    -0.492 OA
ATOM     40  H   UNL     1       3.016  -7.733   3.244  0.00  0.00    +0.294 HD
ENDBRANCH   9  39
TORSDOF 9
