REMARK  Name = ZINC41584566
REMARK  9 active torsions:
REMARK  status: ('A' for Active; 'I' for Inactive)
REMARK    1  A    between atoms: C_1  and  C_2
REMARK    2  A    between atoms: C_4  and  O_36
REMARK    3  A    between atoms: C_5  and  C_22
REMARK    4  A    between atoms: C_11  and  C_12
REMARK    5  A    between atoms: C_15  and  C_18
REMARK    6  A    between atoms: C_18  and  C_19
REMARK    7  A    between atoms: C_18  and  C_20
REMARK    8  A    between atoms: C_22  and  N_23
REMARK    9  A    between atoms: C_28  and  C_30
REMARK                            x       y       z     vdW  Elec       q    Type
REMARK                         _______ _______ _______ _____ _____    ______ ____
ROOT
ATOM      1  C   UNL     1       1.766   0.255   0.357  0.00  0.00    +0.045 C 
ATOM      2  C   UNL     1       1.353  -1.191   0.263  0.00  0.00    -0.033 A 
ATOM      3  C   UNL     1       0.980  -1.719  -0.941  0.00  0.00    +0.050 A 
ATOM      4  C   UNL     1       0.598  -3.055  -1.030  0.00  0.00    +0.122 A 
ATOM      5  C   UNL     1       0.590  -3.863   0.096  0.00  0.00    +0.020 A 
ATOM      6  C   UNL     1       0.966  -3.341   1.327  0.00  0.00    +0.145 A 
ATOM      7  C   UNL     1       1.354  -1.994   1.404  0.00  0.00    +0.071 A 
ATOM      8  C   UNL     1       1.697  -1.740   2.815  0.00  0.00    +0.232 C 
ATOM      9  O   UNL     1       2.079  -0.696   3.314  0.00  0.00    -0.283 OA
ATOM     10  C   UNL     1       1.475  -3.031   3.487  0.00  0.00    +0.176 C 
ATOM     11  C   UNL     1       1.659  -3.291   4.805  0.00  0.00    +0.058 C 
ATOM     12  O   UNL     1       1.042  -3.909   2.551  0.00  0.00    -0.451 OA
ENDROOT
BRANCH  11  13
ATOM     13  C   UNL     1       1.546  -4.668   5.305  0.00  0.00    -0.021 A 
ATOM     14  C   UNL     1       1.593  -4.923   6.680  0.00  0.00    +0.008 A 
ATOM     15  C   UNL     1       1.485  -6.218   7.141  0.00  0.00    +0.004 A 
ATOM     16  C   UNL     1       1.330  -7.264   6.248  0.00  0.00    -0.045 A 
ATOM     17  C   UNL     1       1.282  -7.021   4.887  0.00  0.00    +0.004 A 
ATOM     18  C   UNL     1       1.383  -5.731   4.409  0.00  0.00    +0.008 A 
BRANCH  16  19
ATOM     19  C   UNL     1       1.213  -8.676   6.761  0.00  0.00    +0.013 C 
ATOM     20  C   UNL     1      -0.129  -9.268   6.325  0.00  0.00    +0.012 C 
ATOM     21  C   UNL     1       2.353  -9.522   6.191  0.00  0.00    +0.012 C 
ENDBRANCH  16  19
ENDBRANCH  11  13
BRANCH   4  22
ATOM     22  O   UNL     1       0.229  -3.570  -2.230  0.00  0.00    -0.506 OA
ATOM     23  H   UNL     1       0.960  -3.949  -2.737  0.00  0.00    +0.292 HD
ENDBRANCH   4  22
BRANCH   5  24
ATOM     24  C   UNL     1       0.173  -5.306  -0.016  0.00  0.00    -0.035 C 
BRANCH  24  25
ATOM     25  N   UNL     1      -1.293  -5.398   0.032  0.00  0.00    +0.387 N 
ATOM     26  C   UNL     1      -1.767  -4.948   1.346  0.00  0.00    -0.078 C 
ATOM     27  C   UNL     1      -3.297  -4.965   1.373  0.00  0.00    -0.019 C 
ATOM     28  C   UNL     1      -3.792  -6.390   1.110  0.00  0.00    -0.003 C 
ATOM     29  C   UNL     1      -3.230  -6.876  -0.229  0.00  0.00    -0.011 C 
ATOM     30  C   UNL     1      -1.702  -6.789  -0.197  0.00  0.00    -0.036 C 
ATOM     31  H   UNL     1      -1.689  -4.810  -0.686  0.00  0.00    -0.080 HD
BRANCH  30  32
ATOM     32  C   UNL     1      -1.145  -7.266  -1.513  0.00  0.00    -0.043 A 
ATOM     33  C   UNL     1      -0.509  -8.496  -1.601  0.00  0.00    +0.005 A 
ATOM     34  C   UNL     1      -0.012  -8.894  -2.832  0.00  0.00    +0.020 A 
ATOM     35  C   UNL     1      -0.164  -8.059  -3.923  0.00  0.00    +0.111 A 
ATOM     36  N   UNL     1      -0.774  -6.896  -3.801  0.00  0.00    -0.263 NA
ATOM     37  C   UNL     1      -1.265  -6.487  -2.647  0.00  0.00    +0.112 A 
ENDBRANCH  30  32
ENDBRANCH  24  25
ENDBRANCH   5  24
TORSDOF 6
