REMARK  Name = ZINC22048790
REMARK  14 active torsions:
REMARK  status: ('A' for Active; 'I' for Inactive)
REMARK    1  A    between atoms: C_3  and  S_8
REMARK    2  A    between atoms: C_6  and  N_7
REMARK    3  A    between atoms: S_8  and  C_9
REMARK    4  A    between atoms: C_11  and  O_40
REMARK    5  A    between atoms: C_13  and  O_39
REMARK    6  A    between atoms: C_15  and  O_22
REMARK    7  A    between atoms: C_17  and  C_20
REMARK    8  A    between atoms: C_20  and  O_21
REMARK    9  A    between atoms: O_22  and  C_23
REMARK   10  A    between atoms: C_25  and  O_38
REMARK   11  A    between atoms: C_27  and  O_37
REMARK   12  A    between atoms: C_29  and  O_36
REMARK   13  A    between atoms: C_31  and  C_34
REMARK   14  A    between atoms: C_34  and  O_35
REMARK                            x       y       z     vdW  Elec       q    Type
REMARK                         _______ _______ _______ _____ _____    ______ ____
ROOT
ATOM      1  C   UNL     1       1.268   1.656   2.607  0.00  0.00    +0.212 C 
ATOM      2  C   UNL     1       2.129   1.167   1.439  0.00  0.00    +0.185 C 
ATOM      3  C   UNL     1       1.493   1.622   0.122  0.00  0.00    +0.178 C 
ATOM      4  C   UNL     1       0.059   1.090   0.049  0.00  0.00    +0.183 C 
ATOM      5  C   UNL     1      -0.722   1.581   1.271  0.00  0.00    +0.176 C 
ATOM      6  O   UNL     1      -0.061   1.150   2.462  0.00  0.00    -0.355 OA
ENDROOT
BRANCH   3   7
ATOM      7  O   UNL     1       1.476   3.050   0.065  0.00  0.00    -0.386 OA
ATOM      8  H   UNL     1       1.054   3.560  -0.813  0.00  0.00    +0.210 HD
ENDBRANCH   3   7
BRANCH   2   9
ATOM      9  O   UNL     1       2.204  -0.259   1.466  0.00  0.00    -0.386 OA
ATOM     10  H   UNL     1       2.784  -0.793   0.698  0.00  0.00    +0.210 HD
ENDBRANCH   2   9
BRANCH   1  11
ATOM     11  S   UNL     1       1.974   1.062   4.169  0.00  0.00    -0.091 S 
BRANCH  11  14
ATOM     12  C   UNL     1       0.446   2.176   7.718  0.00  0.00    +0.024 A 
ATOM     13  C   UNL     1       1.231   1.583   6.750  0.00  0.00    +0.016 A 
ATOM     14  C   UNL     1       0.973   1.819   5.405  0.00  0.00    +0.011 A 
ATOM     15  C   UNL     1      -0.072   2.657   5.036  0.00  0.00    +0.016 A 
ATOM     16  C   UNL     1      -0.860   3.246   6.005  0.00  0.00    +0.024 A 
ATOM     17  C   UNL     1      -0.602   3.010   7.348  0.00  0.00    +0.025 A 
BRANCH  17  18
ATOM     18  N   UNL     1      -1.398   3.611   8.331  0.00  0.00    -0.358 N 
ATOM     19  H   UNL     1      -2.228   4.271   8.038  0.00  0.00    +0.142 HD
ATOM     20  H   UNL     1      -1.193   3.424   9.395  0.00  0.00    +0.142 HD
ENDBRANCH  17  18
ENDBRANCH  11  14
ENDBRANCH   1  11
BRANCH   5  21
ATOM     21  C   UNL     1      -0.793   3.109   1.251  0.00  0.00    +0.190 C 
BRANCH  21  22
ATOM     22  O   UNL     1      -1.651   3.560   2.301  0.00  0.00    -0.392 OA
ATOM     23  H   UNL     1      -1.825   4.637   2.444  0.00  0.00    +0.210 HD
ENDBRANCH  21  22
ENDBRANCH   5  21
BRANCH   4  24
ATOM     24  O   UNL     1      -0.568   1.567  -1.143  0.00  0.00    -0.340 OA
BRANCH  24  25
ATOM     25  C   UNL     1      -0.402   0.706  -2.272  0.00  0.00    +0.282 C 
ATOM     26  C   UNL     1      -0.889   1.421  -3.535  0.00  0.00    +0.201 C 
ATOM     27  C   UNL     1      -2.384   1.722  -3.397  0.00  0.00    +0.179 C 
ATOM     28  C   UNL     1      -3.137   0.413  -3.143  0.00  0.00    +0.177 C 
ATOM     29  C   UNL     1      -2.563  -0.263  -1.895  0.00  0.00    +0.178 C 
ATOM     30  O   UNL     1      -1.163  -0.487  -2.077  0.00  0.00    -0.341 OA
BRANCH  28  31
ATOM     31  O   UNL     1      -4.524   0.689  -2.941  0.00  0.00    -0.386 OA
ATOM     32  H   UNL     1      -5.226  -0.135  -2.743  0.00  0.00    +0.210 HD
ENDBRANCH  28  31
BRANCH  27  33
ATOM     33  O   UNL     1      -2.593   2.614  -2.300  0.00  0.00    -0.386 OA
ATOM     34  H   UNL     1      -3.611   2.945  -2.046  0.00  0.00    +0.210 HD
ENDBRANCH  27  33
BRANCH  26  35
ATOM     35  O   UNL     1      -0.674   0.581  -4.671  0.00  0.00    -0.384 OA
ATOM     36  H   UNL     1      -0.963   0.928  -5.674  0.00  0.00    +0.210 HD
ENDBRANCH  26  35
BRANCH  29  37
ATOM     37  C   UNL     1      -3.269  -1.601  -1.668  0.00  0.00    +0.190 C 
BRANCH  37  38
ATOM     38  O   UNL     1      -2.816  -2.178  -0.442  0.00  0.00    -0.392 OA
ATOM     39  H   UNL     1      -3.214  -3.147  -0.109  0.00  0.00    +0.210 HD
ENDBRANCH  37  38
ENDBRANCH  29  37
ENDBRANCH  24  25
ENDBRANCH   4  24
TORSDOF 14
