REMARK  Name = ZINC16532796
REMARK  12 active torsions:
REMARK  status: ('A' for Active; 'I' for Inactive)
REMARK    1  A    between atoms: C_1  and  C_2
REMARK    2  A    between atoms: C_2  and  C_3
REMARK    3  A    between atoms: C_2  and  C_4
REMARK    4  A    between atoms: C_4  and  C_5
REMARK    5  A    between atoms: C_5  and  N_6
REMARK    6  A    between atoms: N_6  and  C_7
REMARK    7  A    between atoms: C_7  and  C_8
REMARK    8  A    between atoms: N_10  and  C_11
REMARK    9  A    between atoms: N_10  and  C_19
REMARK   10  A    between atoms: C_11  and  C_12
REMARK   11  A    between atoms: C_19  and  C_20
REMARK   12  A    between atoms: C_31  and  C_33
REMARK                            x       y       z     vdW  Elec       q    Type
REMARK                         _______ _______ _______ _____ _____    ______ ____
ROOT
ATOM      1  C   UNL     1       0.557   0.571  -0.510  0.00  0.00    +0.234 C 
ATOM      2  O   UNL     1       1.677   0.257  -0.855  0.00  0.00    -0.274 OA
ATOM      3  N   UNL     1       0.126   1.835  -0.691  0.00  0.00    -0.291 N 
ENDROOT
BRANCH   1   4
ATOM      4  C   UNL     1      -0.351  -0.452   0.122  0.00  0.00    +0.204 C 
BRANCH   4   5
ATOM      5  N   UNL     1       0.320  -1.754   0.144  0.00  0.00    -0.286 N 
ATOM      6  C   UNL     1       1.077  -2.103   1.203  0.00  0.00    +0.282 C 
ATOM      7  O   UNL     1       1.267  -1.308   2.104  0.00  0.00    -0.267 OA
BRANCH   6   8
ATOM      8  C   UNL     1       1.672  -3.442   1.269  0.00  0.00    +0.189 A 
ATOM      9  C   UNL     1       2.361  -3.963   2.327  0.00  0.00    +0.054 A 
ATOM     10  C   UNL     1       2.745  -5.261   1.959  0.00  0.00    +0.042 A 
ATOM     11  C   UNL     1       2.280  -5.474   0.708  0.00  0.00    +0.196 A 
ATOM     12  O   UNL     1       1.629  -4.377   0.298  0.00  0.00    -0.458 OA
ENDBRANCH   6   8
BRANCH   5  13
ATOM     13  C   UNL     1       0.168  -2.676  -0.984  0.00  0.00    +0.109 C 
BRANCH  13  14
ATOM     14  C   UNL     1       1.356  -2.517  -1.935  0.00  0.00    +0.022 C 
BRANCH  14  16
ATOM     15  C   UNL     1      -0.033  -3.085  -3.933  0.00  0.00    +0.007 C 
ATOM     16  C   UNL     1       1.198  -3.480  -3.114  0.00  0.00    -0.016 C 
ATOM     17  C   UNL     1       2.443  -3.411  -4.000  0.00  0.00    +0.007 C 
ENDBRANCH  14  16
ENDBRANCH  13  14
ENDBRANCH   5  13
ENDBRANCH   4   5
ENDBRANCH   1   4
BRANCH   3  18
ATOM     18  C   UNL     1      -1.265   2.184  -0.392  0.00  0.00    +0.143 C 
BRANCH  18  19
ATOM     19  C   UNL     1      -1.359   2.708   1.018  0.00  0.00    -0.030 A 
ATOM     20  C   UNL     1      -1.730   1.862   2.046  0.00  0.00    +0.008 A 
ATOM     21  C   UNL     1      -1.812   2.340   3.340  0.00  0.00    +0.038 A 
ATOM     22  C   UNL     1      -1.533   3.670   3.605  0.00  0.00    +0.123 A 
ATOM     23  C   UNL     1      -1.167   4.518   2.574  0.00  0.00    +0.038 A 
ATOM     24  C   UNL     1      -1.080   4.037   1.281  0.00  0.00    +0.008 A 
ATOM     25  F   UNL     1      -1.618   4.140   4.869  0.00  0.00    -0.205 F 
ENDBRANCH  18  19
ENDBRANCH   3  18
BRANCH   3  26
ATOM     26  C   UNL     1       1.047   2.858  -1.192  0.00  0.00    +0.150 C 
BRANCH  26  27
ATOM     27  C   UNL     1       0.990   2.891  -2.698  0.00  0.00    +0.052 A 
ATOM     28  C   UNL     1       1.940   2.275  -3.425  0.00  0.00    +0.204 A 
ATOM     29  O   UNL     1       1.941   2.270  -4.762  0.00  0.00    -0.462 OA
ATOM     30  C   UNL     1       0.984   2.885  -5.488  0.00  0.00    +0.138 A 
ATOM     31  C   UNL     1       1.014   2.861  -6.877  0.00  0.00    +0.047 A 
ATOM     32  C   UNL     1       0.025   3.497  -7.597  0.00  0.00    +0.004 A 
ATOM     33  C   UNL     1      -1.006   4.163  -6.949  0.00  0.00    +0.001 A 
ATOM     34  C   UNL     1      -1.053   4.199  -5.573  0.00  0.00    +0.015 A 
ATOM     35  C   UNL     1      -0.059   3.561  -4.834  0.00  0.00    +0.064 A 
ATOM     36  C   UNL     1      -0.071   3.567  -3.358  0.00  0.00    +0.197 A 
ATOM     37  O   UNL     1      -0.951   4.131  -2.732  0.00  0.00    -0.287 OA
ENDBRANCH  26  27
ENDBRANCH   3  26
TORSDOF 10
