REMARK  Name = ZINC15931310
REMARK  12 active torsions:
REMARK  status: ('A' for Active; 'I' for Inactive)
REMARK    1  A    between atoms: C_1  and  C_2
REMARK    2  A    between atoms: C_4  and  C_33
REMARK    3  A    between atoms: C_8  and  N_32
REMARK    4  A    between atoms: C_9  and  C_11
REMARK    5  A    between atoms: N_13  and  C_14
REMARK    6  A    between atoms: C_15  and  C_28
REMARK    7  A    between atoms: C_20  and  C_24
REMARK    8  A    between atoms: C_24  and  C_25
REMARK    9  A    between atoms: C_24  and  C_26
REMARK   10  A    between atoms: C_24  and  C_27
REMARK   11  A    between atoms: C_28  and  O_30
REMARK   12  A    between atoms: O_30  and  C_31
REMARK                            x       y       z     vdW  Elec       q    Type
REMARK                         _______ _______ _______ _____ _____    ______ ____
ROOT
ATOM      1  C   UNL     1       5.908  -3.184  -0.459  0.00  0.00    +0.257 C 
ATOM      2  O   UNL     1       5.958  -4.389  -0.293  0.00  0.00    -0.269 OA
ATOM      3  N   UNL     1       4.844  -2.486  -0.013  0.00  0.00    -0.275 N 
ATOM      4  H   UNL     1       4.804  -1.526  -0.145  0.00  0.00    +0.156 HD
ENDROOT
BRANCH   1  13
ATOM      5  C   UNL     1      10.815  -3.892  -2.917  0.00  0.00    +0.044 C 
ATOM      6  C   UNL     1      10.318  -2.470  -2.884  0.00  0.00    -0.037 A 
ATOM      7  C   UNL     1      11.065  -1.456  -3.437  0.00  0.00    +0.036 A 
ATOM      8  C   UNL     1      10.605  -0.148  -3.404  0.00  0.00    +0.145 A 
ATOM      9  N   UNL     1       9.447   0.140  -2.843  0.00  0.00    -0.235 NA
ATOM     10  C   UNL     1       8.696  -0.794  -2.301  0.00  0.00    +0.112 A 
ATOM     11  C   UNL     1       9.074  -2.157  -2.283  0.00  0.00    +0.032 A 
ATOM     12  C   UNL     1       8.126  -3.052  -1.637  0.00  0.00    +0.054 A 
ATOM     13  C   UNL     1       6.966  -2.515  -1.121  0.00  0.00    +0.097 A 
ATOM     14  S   UNL     1       7.122  -0.776  -1.480  0.00  0.00    -0.062 S 
BRANCH   8  15
ATOM     15  C   UNL     1      11.435   0.952  -4.014  0.00  0.00    +0.434 C 
ATOM     16  F   UNL     1      11.086   1.109  -5.359  0.00  0.00    -0.164 F 
ATOM     17  F   UNL     1      11.199   2.149  -3.329  0.00  0.00    -0.164 F 
ATOM     18  F   UNL     1      12.791   0.621  -3.919  0.00  0.00    -0.164 F 
ENDBRANCH   8  15
BRANCH  12  19
ATOM     19  N   UNL     1       8.381  -4.413  -1.546  0.00  0.00    -0.356 N 
ATOM     20  H   UNL     1       7.984  -4.934  -0.831  0.00  0.00    +0.142 HD
ATOM     21  H   UNL     1       8.957  -4.843  -2.197  0.00  0.00    +0.142 HD
ENDBRANCH  12  19
ENDBRANCH   1  13
BRANCH   3  22
ATOM     22  C   UNL     1       3.809  -3.140   0.634  0.00  0.00    +0.087 A 
ATOM     23  C   UNL     1       2.642  -2.600   1.159  0.00  0.00    +0.091 A 
ATOM     24  C   UNL     1       1.705  -3.515   1.789  0.00  0.00    -0.021 A 
ATOM     25  C   UNL     1       2.083  -4.811   1.798  0.00  0.00    -0.004 A 
ATOM     26  S   UNL     1       3.657  -4.829   0.986  0.00  0.00    -0.077 S 
ATOM     27  C   UNL     1       1.327  -5.969   2.373  0.00  0.00    +0.046 C 
ATOM     28  C   UNL     1       0.223  -5.420   3.288  0.00  0.00    -0.000 C 
ATOM     29  C   UNL     1      -0.523  -4.307   2.547  0.00  0.00    +0.009 C 
ATOM     30  C   UNL     1       0.381  -3.080   2.405  0.00  0.00    +0.037 C 
BRANCH  28  31
ATOM     31  C   UNL     1      -0.753  -6.542   3.645  0.00  0.00    -0.035 C 
ATOM     32  C   UNL     1      -0.001  -7.661   4.370  0.00  0.00    +0.011 C 
ATOM     33  C   UNL     1      -1.852  -5.992   4.556  0.00  0.00    +0.011 C 
ATOM     34  C   UNL     1      -1.382  -7.097   2.365  0.00  0.00    +0.011 C 
ENDBRANCH  28  31
BRANCH  23  35
ATOM     35  C   UNL     1       2.364  -1.165   1.077  0.00  0.00    +0.342 C 
ATOM     36  O   UNL     1       2.728  -0.423   1.969  0.00  0.00    -0.245 OA
BRANCH  35  37
ATOM     37  O   UNL     1       1.704  -0.666   0.011  0.00  0.00    -0.464 OA
ATOM     38  C   UNL     1       1.464   0.766  -0.004  0.00  0.00    +0.280 C 
ENDBRANCH  35  37
ENDBRANCH  23  35
ENDBRANCH   3  22
TORSDOF 7
