REMARK  Name = ZINC64343982
REMARK  9 active torsions:
REMARK  status: ('A' for Active; 'I' for Inactive)
REMARK    1  A    between atoms: C_1  and  C_2
REMARK    2  A    between atoms: C_2  and  C_3
REMARK    3  A    between atoms: C_2  and  C_4
REMARK    4  A    between atoms: C_2  and  N_13
REMARK    5  A    between atoms: N_13  and  C_14
REMARK    6  A    between atoms: C_14  and  C_15
REMARK    7  A    between atoms: N_17  and  C_18
REMARK    8  A    between atoms: C_21  and  S_24
REMARK    9  A    between atoms: S_24  and  N_27
REMARK                            x       y       z     vdW  Elec       q    Type
REMARK                         _______ _______ _______ _____ _____    ______ ____
ROOT
ATOM      1  C   UNL     1       2.066   0.036  -1.220  0.00  0.00    +0.016 C 
ENDROOT
BRANCH   1   2
ATOM      2  C   UNL     1       2.774  -0.457  -2.456  0.00  0.00    +0.200 C 
ATOM      3  O   UNL     1       2.189  -1.165  -3.248  0.00  0.00    -0.278 OA
ATOM      4  N   UNL     1       4.057  -0.111  -2.681  0.00  0.00    -0.287 N 
ATOM      5  H   UNL     1       4.504   0.508  -2.083  0.00  0.00    +0.155 HD
BRANCH   4   6
ATOM      6  C   UNL     1       4.744  -0.646  -3.776  0.00  0.00    +0.033 A 
ATOM      7  C   UNL     1       6.098  -0.938  -3.673  0.00  0.00    +0.025 A 
ATOM      8  C   UNL     1       6.773  -1.466  -4.756  0.00  0.00    +0.030 A 
ATOM      9  C   UNL     1       6.103  -1.704  -5.942  0.00  0.00    +0.105 A 
ATOM     10  C   UNL     1       4.755  -1.413  -6.048  0.00  0.00    +0.030 A 
ATOM     11  C   UNL     1       4.072  -0.891  -4.966  0.00  0.00    +0.025 A 
BRANCH   9  12
ATOM     12  S   UNL     1       6.968  -2.377  -7.321  0.00  0.00    +0.056 S 
ATOM     13  O   UNL     1       6.242  -1.997  -8.481  0.00  0.00    -0.153 OA
ATOM     14  O   UNL     1       8.339  -2.051  -7.139  0.00  0.00    -0.153 OA
BRANCH  12  15
ATOM     15  N   UNL     1       6.856  -4.026  -7.212  0.00  0.00    -0.204 NA
ATOM     16  H   UNL     1       6.373  -4.431  -6.474  0.00  0.00    +0.144 HD
ATOM     17  H   UNL     1       7.272  -4.586  -7.885  0.00  0.00    +0.144 HD
ENDBRANCH  12  15
ENDBRANCH   9  12
ENDBRANCH   4   6
ENDBRANCH   1   2
BRANCH   1  18
ATOM     18  N   UNL     1       0.689  -0.475  -1.208  0.00  0.00    +0.391 N 
ATOM     19  H   UNL     1       0.705  -1.484  -1.206  0.00  0.00    -0.084 HD
ATOM     20  H   UNL     1       0.201  -0.148  -2.028  0.00  0.00    -0.084 HD
BRANCH  18  22
ATOM     21  C   UNL     1      -0.025   1.535  -0.006  0.00  0.00    -0.006 C 
ATOM     22  C   UNL     1      -0.001   0.005  -0.003  0.00  0.00    -0.047 C 
ATOM     23  C   UNL     1       0.739  -0.491   1.241  0.00  0.00    -0.006 C 
BRANCH  22  24
ATOM     24  C   UNL     1      -1.414  -0.519   0.010  0.00  0.00    -0.055 A 
ATOM     25  C   UNL     1      -1.859  -1.327  -1.020  0.00  0.00    +0.006 A 
ATOM     26  C   UNL     1      -3.154  -1.812  -1.013  0.00  0.00    +0.050 A 
ATOM     27  C   UNL     1      -4.009  -1.487   0.028  0.00  0.00    +0.166 A 
ATOM     28  C   UNL     1      -3.561  -0.673   1.065  0.00  0.00    +0.166 A 
ATOM     29  C   UNL     1      -2.260  -0.196   1.054  0.00  0.00    +0.051 A 
ATOM     30  O   UNL     1      -4.580  -0.502   1.957  0.00  0.00    -0.453 OA
ATOM     31  C   UNL     1      -5.776  -0.883   1.252  0.00  0.00    +0.466 C 
ATOM     32  O   UNL     1      -5.309  -1.827   0.270  0.00  0.00    -0.453 OA
ENDBRANCH  22  24
ENDBRANCH  18  22
ENDBRANCH   1  18
TORSDOF 7
