REMARK  Name = ZINC41005946
REMARK  11 active torsions:
REMARK  status: ('A' for Active; 'I' for Inactive)
REMARK    1  A    between atoms: C_1  and  C_2
REMARK    2  A    between atoms: C_10  and  C_12
REMARK    3  A    between atoms: C_14  and  O_31
REMARK    4  A    between atoms: C_15  and  O_19
REMARK    5  A    between atoms: O_19  and  C_20
REMARK    6  A    between atoms: C_20  and  C_21
REMARK    7  A    between atoms: C_24  and  C_27
REMARK    8  A    between atoms: C_27  and  C_28
REMARK    9  A    between atoms: C_27  and  C_29
REMARK   10  A    between atoms: C_27  and  C_30
REMARK   11  A    between atoms: O_31  and  C_32
REMARK                            x       y       z     vdW  Elec       q    Type
REMARK                         _______ _______ _______ _____ _____    ______ ____
ROOT
ATOM      1  C   UNL     1       0.089  -5.574   2.239  0.00  0.00    +0.022 A 
ATOM      2  C   UNL     1       0.107  -6.756   1.495  0.00  0.00    +0.061 A 
ATOM      3  C   UNL     1       0.126  -7.977   2.143  0.00  0.00    +0.163 A 
ATOM      4  C   UNL     1       0.128  -8.027   3.535  0.00  0.00    +0.176 A 
ATOM      5  C   UNL     1       0.110  -6.852   4.275  0.00  0.00    +0.064 A 
ATOM      6  C   UNL     1       0.097  -5.630   3.633  0.00  0.00    +0.030 A 
ATOM      7 BR   UNL     1       0.113  -6.926   6.164  0.00  0.00    -0.046 Br
ENDROOT
BRANCH   1  17
ATOM      8  C   UNL     1      -0.018   1.503   0.010  0.00  0.00    +0.044 C 
ATOM      9  C   UNL     1       0.002  -0.004   0.002  0.00  0.00    -0.048 A 
ATOM     10  C   UNL     1       0.006  -0.686  -1.206  0.00  0.00    +0.005 A 
ATOM     11  C   UNL     1       0.024  -2.052  -1.235  0.00  0.00    +0.030 A 
ATOM     12  C   UNL     1       0.040  -2.775  -0.038  0.00  0.00    +0.089 A 
ATOM     13  C   UNL     1       0.037  -2.083   1.186  0.00  0.00    +0.067 A 
ATOM     14  C   UNL     1       0.023  -0.695   1.195  0.00  0.00    +0.031 A 
ATOM     15  N   UNL     1       0.054  -3.048   2.175  0.00  0.00    -0.338 N 
ATOM     16  H   UNL     1       0.057  -2.892   3.132  0.00  0.00    +0.167 HD
ATOM     17  C   UNL     1       0.068  -4.267   1.550  0.00  0.00    +0.139 A 
ATOM     18  N   UNL     1       0.059  -4.099   0.250  0.00  0.00    -0.228 NA
ENDBRANCH   1  17
BRANCH   3  19
ATOM     19  O   UNL     1       0.144  -9.129   1.421  0.00  0.00    -0.491 OA
ATOM     20  C   UNL     1       0.140  -9.004  -0.002  0.00  0.00    +0.277 C 
ENDBRANCH   3  19
BRANCH   4  21
ATOM     21  O   UNL     1       0.147  -9.228   4.171  0.00  0.00    -0.483 OA
BRANCH  21  22
ATOM     22  C   UNL     1       1.429  -9.782   4.474  0.00  0.00    +0.264 C 
BRANCH  22  23
ATOM     23  C   UNL     1       1.252 -11.106   5.172  0.00  0.00    -0.010 A 
ATOM     24  C   UNL     1       1.157 -11.152   6.551  0.00  0.00    +0.007 A 
ATOM     25  C   UNL     1       0.995 -12.366   7.192  0.00  0.00    +0.004 A 
ATOM     26  C   UNL     1       0.926 -13.533   6.454  0.00  0.00    -0.042 A 
ATOM     27  C   UNL     1       1.020 -13.487   5.076  0.00  0.00    +0.004 A 
ATOM     28  C   UNL     1       1.178 -12.272   4.435  0.00  0.00    +0.007 A 
BRANCH  26  29
ATOM     29  C   UNL     1       0.750 -14.857   7.153  0.00  0.00    -0.013 C 
ATOM     30  C   UNL     1      -0.558 -14.844   7.947  0.00  0.00    +0.015 C 
ATOM     31  C   UNL     1       0.706 -15.980   6.115  0.00  0.00    +0.015 C 
ATOM     32  C   UNL     1       1.924 -15.090   8.107  0.00  0.00    +0.015 C 
ENDBRANCH  26  29
ENDBRANCH  22  23
ENDBRANCH  21  22
ENDBRANCH   4  21
TORSDOF 6
