REMARK  Name = ZINC39990709
REMARK  9 active torsions:
REMARK  status: ('A' for Active; 'I' for Inactive)
REMARK    1  A    between atoms: C_1  and  C_2
REMARK    2  A    between atoms: C_2  and  C_4
REMARK    3  A    between atoms: C_2  and  S_16
REMARK    4  A    between atoms: N_6  and  C_7
REMARK    5  A    between atoms: C_11  and  C_13
REMARK    6  A    between atoms: C_13  and  C_15
REMARK    7  A    between atoms: S_16  and  C_17
REMARK    8  A    between atoms: C_21  and  C_26
REMARK    9  A    between atoms: N_22  and  C_23
REMARK                            x       y       z     vdW  Elec       q    Type
REMARK                         _______ _______ _______ _____ _____    ______ ____
ROOT
ATOM      1  C   UNL     1      -0.134  -0.110  -2.740  0.00  0.00    +0.238 C 
ATOM      2  N   UNL     1      -0.196   1.347  -2.939  0.00  0.00    -0.237 N 
ATOM      3  N   UNL     1      -1.544   1.707  -2.826  0.00  0.00    -0.169 NA
ATOM      4  C   UNL     1      -2.295   0.664  -2.587  0.00  0.00    +0.147 C 
ATOM      5  N   UNL     1      -1.533  -0.508  -2.516  0.00  0.00    -0.282 N 
ATOM      6  H   UNL     1       0.551   1.942  -3.113  0.00  0.00    +0.171 HD
ENDROOT
BRANCH   4   7
ATOM      7  C   UNL     1      -3.688   0.713  -2.425  0.00  0.00    +0.022 C 
ATOM      8  C   UNL     1      -4.517   1.825  -2.580  0.00  0.00    +0.006 A 
ATOM      9  C   UNL     1      -4.256   3.167  -2.928  0.00  0.00    +0.010 A 
ATOM     10  C   UNL     1      -5.281   4.054  -3.007  0.00  0.00    +0.001 A 
ATOM     11  C   UNL     1      -6.600   3.672  -2.753  0.00  0.00    +0.002 A 
ATOM     12  C   UNL     1      -6.923   2.399  -2.414  0.00  0.00    +0.026 A 
ATOM     13  C   UNL     1      -5.905   1.416  -2.311  0.00  0.00    +0.043 A 
ATOM     14  N   UNL     1      -5.958   0.135  -2.005  0.00  0.00    -0.380 N 
ATOM     15  C   UNL     1      -4.606  -0.429  -2.050  0.00  0.00    +0.152 C 
ATOM     16  H   UNL     1      -6.765  -0.358  -1.789  0.00  0.00    +0.160 HD
ENDBRANCH   4   7
BRANCH   5  17
ATOM     17  C   UNL     1      -2.029  -1.865  -2.267  0.00  0.00    +0.078 C 
ATOM     18  C   UNL     1      -0.994  -2.987  -2.162  0.00  0.00    +0.024 C 
ATOM     19  C   UNL     1      -1.891  -2.886  -3.397  0.00  0.00    +0.024 C 
ENDBRANCH   5  17
BRANCH   1  20
ATOM     20  S   UNL     1       0.880  -0.511  -1.291  0.00  0.00    -0.106 S 
BRANCH  20  22
ATOM     21  C   UNL     1       0.207   1.901  -0.190  0.00  0.00    +0.029 C 
ATOM     22  C   UNL     1       0.086   0.397   0.064  0.00  0.00    +0.133 C 
BRANCH  22  23
ATOM     23  C   UNL     1       0.764   0.051   1.365  0.00  0.00    +0.230 C 
ATOM     24  O   UNL     1       1.914  -0.334   1.366  0.00  0.00    -0.274 OA
ATOM     25  N   UNL     1       0.093   0.171   2.528  0.00  0.00    -0.285 N 
ATOM     26  H   UNL     1      -0.805   0.539   2.534  0.00  0.00    +0.155 HD
BRANCH  25  27
ATOM     27  C   UNL     1       0.690  -0.237   3.726  0.00  0.00    +0.034 A 
ATOM     28  C   UNL     1      -0.084  -0.815   4.726  0.00  0.00    +0.023 A 
ATOM     29  C   UNL     1       0.500  -1.220   5.912  0.00  0.00    +0.002 A 
ATOM     30  C   UNL     1       1.855  -1.054   6.113  0.00  0.00    +0.011 A 
ATOM     31  C   UNL     1       2.643  -0.474   5.113  0.00  0.00    +0.019 A 
ATOM     32  C   UNL     1       2.052  -0.070   3.912  0.00  0.00    +0.034 A 
BRANCH  31  33
ATOM     33  C   UNL     1       4.088  -0.295   5.323  0.00  0.00    +0.160 C 
ATOM     34  O   UNL     1       4.769   0.208   4.455  0.00  0.00    -0.292 OA
ATOM     35  C   UNL     1       4.723  -0.736   6.617  0.00  0.00    +0.091 C 
ENDBRANCH  31  33
ENDBRANCH  25  27
ENDBRANCH  22  23
ENDBRANCH  20  22
ENDBRANCH   1  20
TORSDOF 7
