REMARK  Name = ZINC20591976
REMARK  8 active torsions:
REMARK  status: ('A' for Active; 'I' for Inactive)
REMARK    1  A    between atoms: C_1  and  C_2
REMARK    2  A    between atoms: C_2  and  C_3
REMARK    3  A    between atoms: C_3  and  C_4
REMARK    4  A    between atoms: C_4  and  C_5
REMARK    5  A    between atoms: C_8  and  C_11
REMARK    6  A    between atoms: N_13  and  C_14
REMARK    7  A    between atoms: C_14  and  C_15
REMARK    8  A    between atoms: C_15  and  C_16
REMARK                            x       y       z     vdW  Elec       q    Type
REMARK                         _______ _______ _______ _____ _____    ______ ____
ROOT
ATOM      1  C   UNL     1     -10.730  -5.493  -2.535  0.00  0.00    +0.217 C 
ATOM      2  O   UNL     1     -11.291  -5.704  -1.480  0.00  0.00    -0.276 OA
ATOM      3  N   UNL     1     -11.372  -5.725  -3.697  0.00  0.00    -0.301 N 
ATOM      4  C   UNL     1     -10.704  -5.480  -4.983  0.00  0.00    +0.110 C 
ATOM      5  C   UNL     1     -10.785  -6.753  -5.831  0.00  0.00    +0.047 C 
ATOM      6  C   UNL     1     -12.245  -7.190  -5.952  0.00  0.00    +0.064 C 
ATOM      7  C   UNL     1     -12.812  -7.494  -4.564  0.00  0.00    +0.047 C 
ATOM      8  C   UNL     1     -12.750  -6.234  -3.703  0.00  0.00    +0.110 C 
ATOM      9  C   UNL     1     -12.335  -8.421  -6.817  0.00  0.00    +0.057 A 
ATOM     10  C   UNL     1     -13.271  -8.583  -7.781  0.00  0.00    +0.039 A 
ATOM     11  N   UNL     1     -13.052  -9.795  -8.353  0.00  0.00    -0.349 N 
ATOM     12  H   UNL     1     -13.560 -10.192  -9.077  0.00  0.00    +0.166 HD
ATOM     13  C   UNL     1     -11.987 -10.344  -7.721  0.00  0.00    +0.171 A 
ATOM     14  N   UNL     1     -11.568  -9.512  -6.803  0.00  0.00    -0.348 N 
ATOM     15  C   UNL     1     -14.328  -7.555  -8.093  0.00  0.00    +0.070 C 
ATOM     16  C   UNL     1     -14.389  -6.570  -6.917  0.00  0.00    +0.088 C 
ATOM     17  N   UNL     1     -13.031  -6.118  -6.582  0.00  0.00    -0.305 NA
ATOM     18  H   UNL     1     -13.057  -5.297  -5.996  0.00  0.00    +0.123 HD
ATOM     19  H   UNL     1     -10.818  -9.664  -6.207  0.00  0.00    +0.166 HD
ENDROOT
BRANCH   1  20
ATOM     20  C   UNL     1      -9.317  -4.971  -2.546  0.00  0.00    +0.114 C 
BRANCH  20  21
ATOM     21  C   UNL     1      -8.827  -4.795  -1.107  0.00  0.00    +0.113 C 
BRANCH  21  24
ATOM     22  C   UNL     1      -6.811  -4.056   0.045  0.00  0.00    +0.244 C 
ATOM     23  O   UNL     1      -7.373  -4.268   1.102  0.00  0.00    -0.270 OA
ATOM     24  N   UNL     1      -7.453  -4.288  -1.117  0.00  0.00    -0.311 N 
ATOM     25  H   UNL     1      -7.004  -4.119  -1.960  0.00  0.00    +0.149 HD
BRANCH  22  29
ATOM     26  C   UNL     1      -2.826  -2.585   0.015  0.00  0.00    -0.047 A 
ATOM     27  C   UNL     1      -3.463  -2.825   1.220  0.00  0.00    +0.004 A 
ATOM     28  C   UNL     1      -4.757  -3.302   1.237  0.00  0.00    +0.013 A 
ATOM     29  C   UNL     1      -5.424  -3.544   0.035  0.00  0.00    +0.037 A 
ATOM     30  C   UNL     1      -4.776  -3.300  -1.177  0.00  0.00    +0.013 A 
ATOM     31  C   UNL     1      -3.484  -2.817  -1.180  0.00  0.00    +0.004 A 
BRANCH  26  32
ATOM     32  C   UNL     1      -1.413  -2.063   0.004  0.00  0.00    +0.035 C 
BRANCH  32  33
ATOM     33  C   UNL     1      -1.433  -0.534   0.013  0.00  0.00    +0.004 C 
BRANCH  33  35
ATOM     34  C   UNL     1      -0.019   1.526   0.010  0.00  0.00    +0.004 C 
ATOM     35  C   UNL     1       0.002  -0.004   0.002  0.00  0.00    -0.003 C 
ENDBRANCH  33  35
ENDBRANCH  32  33
ENDBRANCH  26  32
ENDBRANCH  22  29
ENDBRANCH  21  24
ENDBRANCH  20  21
ENDBRANCH   1  20
TORSDOF 7
