REMARK  Name = ZINC08934339
REMARK  4 active torsions:
REMARK  status: ('A' for Active; 'I' for Inactive)
REMARK    1  A    between atoms: C_3  and  C_24
REMARK    2  A    between atoms: C_7  and  N_23
REMARK    3  A    between atoms: C_8  and  C_10
REMARK    4  A    between atoms: C_10  and  C_12
REMARK                            x       y       z     vdW  Elec       q    Type
REMARK                         _______ _______ _______ _____ _____    ______ ____
ROOT
ATOM      1  C   UNL     1       0.391   1.196   4.849  0.00  0.00    +0.014 A 
ATOM      2  C   UNL     1      -0.263   1.646   3.726  0.00  0.00    +0.024 A 
ATOM      3  C   UNL     1       0.000   1.080   2.488  0.00  0.00    +0.049 A 
ATOM      4  N   UNL     1       0.887   0.111   2.370  0.00  0.00    -0.244 NA
ATOM      5  C   UNL     1       1.542  -0.350   3.414  0.00  0.00    +0.111 A 
ATOM      6  C   UNL     1       1.344   0.155   4.719  0.00  0.00    +0.029 A 
ATOM      7  C   UNL     1       2.151  -0.469   5.755  0.00  0.00    +0.052 A 
ATOM      8  C   UNL     1       3.023  -1.479   5.384  0.00  0.00    +0.078 A 
ATOM      9  S   UNL     1       2.774  -1.611   3.624  0.00  0.00    -0.064 S 
ENDROOT
BRANCH   3  10
ATOM     10  C   UNL     1      -0.729   1.579   1.267  0.00  0.00    +0.014 C 
ATOM     11  C   UNL     1      -0.013   1.086   0.008  0.00  0.00    +0.016 C 
ATOM     12  C   UNL     1      -0.753   1.593  -1.232  0.00  0.00    -0.010 C 
ATOM     13  C   UNL     1      -2.188   1.063  -1.221  0.00  0.00    +0.007 C 
ATOM     14  C   UNL     1      -2.904   1.556   0.038  0.00  0.00    -0.010 C 
ATOM     15  C   UNL     1      -2.164   1.050   1.278  0.00  0.00    +0.016 C 
ATOM     16  C   UNL     1      -2.925   3.086   0.047  0.00  0.00    +0.007 C 
ATOM     17  C   UNL     1      -1.490   3.616   0.036  0.00  0.00    -0.010 C 
ATOM     18  C   UNL     1      -0.773   3.123  -1.223  0.00  0.00    +0.007 C 
ATOM     19  C   UNL     1      -0.750   3.109   1.275  0.00  0.00    +0.016 C 
ENDBRANCH   3  10
BRANCH   7  20
ATOM     20  N   UNL     1       2.052  -0.066   7.074  0.00  0.00    -0.356 N 
ATOM     21  H   UNL     1       1.437   0.643   7.319  0.00  0.00    +0.142 HD
ATOM     22  H   UNL     1       2.597  -0.491   7.754  0.00  0.00    +0.142 HD
ENDBRANCH   7  20
BRANCH   8  23
ATOM     23  C   UNL     1       3.893  -2.221   6.199  0.00  0.00    +0.178 C 
ATOM     24  O   UNL     1       3.941  -2.003   7.394  0.00  0.00    -0.291 OA
BRANCH  23  25
ATOM     25  C   UNL     1       4.768  -3.287   5.592  0.00  0.00    +0.035 C 
ATOM     26  C   UNL     1       5.689  -2.657   4.545  0.00  0.00    +0.018 C 
ATOM     27  C   UNL     1       6.577  -3.739   3.929  0.00  0.00    -0.010 C 
ATOM     28  C   UNL     1       7.423  -4.391   5.026  0.00  0.00    +0.007 C 
ATOM     29  C   UNL     1       6.502  -5.021   6.072  0.00  0.00    -0.010 C 
ATOM     30  C   UNL     1       5.614  -3.938   6.688  0.00  0.00    +0.018 C 
ATOM     31  C   UNL     1       5.624  -6.083   5.406  0.00  0.00    +0.007 C 
ATOM     32  C   UNL     1       4.779  -5.431   4.309  0.00  0.00    -0.010 C 
ATOM     33  C   UNL     1       5.700  -4.801   3.263  0.00  0.00    +0.007 C 
ATOM     34  C   UNL     1       3.891  -4.349   4.926  0.00  0.00    +0.018 C 
ENDBRANCH  23  25
ENDBRANCH   8  23
TORSDOF 4
