REMARK  Name = ZINC20168350
REMARK  10 active torsions:
REMARK  status: ('A' for Active; 'I' for Inactive)
REMARK    1  A    between atoms: C_1  and  C_2
REMARK    2  A    between atoms: C_2  and  O_3
REMARK    3  A    between atoms: O_3  and  C_4
REMARK    4  A    between atoms: C_4  and  C_6
REMARK    5  A    between atoms: C_10  and  N_11
REMARK    6  A    between atoms: C_12  and  C_14
REMARK    7  A    between atoms: C_14  and  S_15
REMARK    8  A    between atoms: S_15  and  C_16
REMARK    9  A    between atoms: N_21  and  N_22
REMARK   10  A    between atoms: C_23  and  C_24
REMARK                            x       y       z     vdW  Elec       q    Type
REMARK                         _______ _______ _______ _____ _____    ______ ____
ROOT
ATOM      1  C   UNL     1      -0.013   1.086   0.008  0.00  0.00    +0.173 C 
ENDROOT
BRANCH   1   3
ATOM      2  N   UNL     1      -0.288   1.272  -2.443  0.00  0.00    -0.279 N 
ATOM      3  C   UNL     1      -0.742   1.585  -1.213  0.00  0.00    +0.228 C 
ATOM      4  O   UNL     1      -1.736   2.268  -1.088  0.00  0.00    -0.275 OA
ATOM      5  H   UNL     1       0.614   0.653  -2.556  0.00  0.00    +0.155 HD
BRANCH   2  10
ATOM      6  C   UNL     1      -0.648   1.523  -4.900  0.00  0.00    +0.091 A 
ATOM      7  C   UNL     1      -1.530   2.121  -5.902  0.00  0.00    -0.021 A 
ATOM      8  C   UNL     1      -2.560   2.829  -5.406  0.00  0.00    -0.004 A 
ATOM      9  S   UNL     1      -2.384   2.711  -3.643  0.00  0.00    -0.077 S 
ATOM     10  C   UNL     1      -0.959   1.732  -3.566  0.00  0.00    +0.086 A 
ATOM     11  C   UNL     1      -3.419   3.414  -6.495  0.00  0.00    +0.043 C 
ATOM     12  C   UNL     1      -3.036   2.618  -7.762  0.00  0.00    +0.010 C 
ATOM     13  C   UNL     1      -1.599   2.169  -7.429  0.00  0.00    +0.037 C 
BRANCH   6  14
ATOM     14  C   UNL     1       0.519   0.729  -5.292  0.00  0.00    +0.342 C 
ATOM     15  O   UNL     1       0.410  -0.471  -5.458  0.00  0.00    -0.245 OA
BRANCH  14  16
ATOM     16  O   UNL     1       1.714   1.329  -5.470  0.00  0.00    -0.461 OA
BRANCH  16  18
ATOM     17  C   UNL     1       4.088   1.332  -6.011  0.00  0.00    +0.048 C 
ATOM     18  C   UNL     1       2.826   0.480  -5.859  0.00  0.00    +0.229 C 
ENDBRANCH  16  18
ENDBRANCH  14  16
ENDBRANCH   6  14
ENDBRANCH   2  10
ENDBRANCH   1   3
BRANCH   1  19
ATOM     19  S   UNL     1      -0.862   1.671   1.500  0.00  0.00    -0.075 S 
BRANCH  19  20
ATOM     20  C   UNL     1       0.099   1.013   2.823  0.00  0.00    +0.211 A 
ATOM     21  N   UNL     1      -0.147   1.183   4.156  0.00  0.00    -0.186 NA
ATOM     22  C   UNL     1       0.823   0.517   4.853  0.00  0.00    +0.232 A 
ATOM     23  N   UNL     1       1.633  -0.041   3.987  0.00  0.00    -0.245 N 
ATOM     24  N   UNL     1       1.172   0.268   2.700  0.00  0.00    -0.144 NA
ATOM     25  N   UNL     1       0.930   0.444   6.234  0.00  0.00    -0.205 N 
ATOM     26  H   UNL     1       0.190   0.952   6.870  0.00  0.00    +0.177 HD
ATOM     27  H   UNL     1       2.494  -0.628   4.338  0.00  0.00    +0.192 HD
BRANCH  25  28
ATOM     28  N   UNL     1       1.979  -0.277   6.818  0.00  0.00    -0.188 NA
ATOM     29  C   UNL     1       2.079  -0.345   8.111  0.00  0.00    +0.138 C 
BRANCH  29  30
ATOM     30  C   UNL     1       3.184  -1.103   8.726  0.00  0.00    -0.005 A 
ATOM     31  C   UNL     1       4.122  -1.755   7.921  0.00  0.00    +0.011 A 
ATOM     32  C   UNL     1       5.155  -2.458   8.502  0.00  0.00    +0.020 A 
ATOM     33  C   UNL     1       5.259  -2.529   9.881  0.00  0.00    +0.041 A 
ATOM     34  C   UNL     1       4.330  -1.890  10.686  0.00  0.00    +0.020 A 
ATOM     35  C   UNL     1       3.295  -1.179  10.117  0.00  0.00    +0.011 A 
ATOM     36 CL   UNL     1       6.560  -3.422  10.605  0.00  0.00    -0.084 Cl
ENDBRANCH  29  30
ENDBRANCH  25  28
ENDBRANCH  19  20
ENDBRANCH   1  19
TORSDOF 9
