REMARK  Name = ZINC08801662
REMARK  11 active torsions:
REMARK  status: ('A' for Active; 'I' for Inactive)
REMARK    1  A    between atoms: C_1  and  C_2
REMARK    2  A    between atoms: C_2  and  O_3
REMARK    3  A    between atoms: O_3  and  C_4
REMARK    4  A    between atoms: C_7  and  S_11
REMARK    5  A    between atoms: C_9  and  C_10
REMARK    6  A    between atoms: S_11  and  N_14
REMARK    7  A    between atoms: N_14  and  C_15
REMARK    8  A    between atoms: C_15  and  C_16
REMARK    9  A    between atoms: C_16  and  C_18
REMARK   10  A    between atoms: C_16  and  N_67
REMARK   11  A    between atoms: N_26  and  C_27
REMARK                            x       y       z     vdW  Elec       q    Type
REMARK                         _______ _______ _______ _____ _____    ______ ____
ROOT
ATOM      1  C   UNL     1      -3.344   6.166  -1.132  0.00  0.00    -0.022 C 
ENDROOT
BRANCH   1   2
ATOM      2  C   UNL     1      -2.649   4.958  -0.558  0.00  0.00    -0.059 A 
ATOM      3  C   UNL     1      -2.440   4.862   0.806  0.00  0.00    +0.004 A 
ATOM      4  C   UNL     1      -1.808   3.757   1.336  0.00  0.00    +0.023 A 
ATOM      5  C   UNL     1      -1.374   2.729   0.500  0.00  0.00    +0.033 A 
ATOM      6  C   UNL     1      -1.585   2.837  -0.869  0.00  0.00    -0.025 A 
ATOM      7  C   UNL     1      -2.220   3.943  -1.394  0.00  0.00    +0.007 A 
ATOM      8  C   UNL     1      -1.012   1.599  -1.529  0.00  0.00    +0.056 C 
ATOM      9  C   UNL     1      -0.109   1.007  -0.423  0.00  0.00    +0.109 C 
ATOM     10  N   UNL     1      -0.726   1.525   0.817  0.00  0.00    -0.332 N 
ATOM     11  C   UNL     1       0.284   1.725   1.864  0.00  0.00    +0.129 C 
ENDBRANCH   1   2
BRANCH   1  17
ATOM     12  C   UNL     1      -5.618   6.996  -1.140  0.00  0.00    -0.078 C 
ATOM     13  C   UNL     1      -6.865   7.188  -0.274  0.00  0.00    -0.019 C 
ATOM     14  C   UNL     1      -6.553   8.182   0.848  0.00  0.00    -0.004 C 
ATOM     15  C   UNL     1      -5.371   7.658   1.669  0.00  0.00    -0.019 C 
ATOM     16  C   UNL     1      -4.167   7.452   0.747  0.00  0.00    -0.078 C 
ATOM     17  N   UNL     1      -4.525   6.468  -0.297  0.00  0.00    +0.385 N 
ATOM     18  H   UNL     1      -4.843   5.603   0.156  0.00  0.00    -0.081 HD
ENDBRANCH   1  17
BRANCH   1  19
ATOM     19  C   UNL     1      -2.379   7.353  -1.140  0.00  0.00    +0.095 C 
BRANCH  19  20
ATOM     20  N   UNL     1      -3.054   8.527  -1.701  0.00  0.00    -0.191 NA
ATOM     21  H   UNL     1      -3.852   8.416  -2.240  0.00  0.00    +0.148 HD
BRANCH  20  22
ATOM     22  S   UNL     1      -2.452  10.043  -1.415  0.00  0.00    +0.058 S 
ATOM     23  O   UNL     1      -3.298  10.952  -2.104  0.00  0.00    -0.153 OA
ATOM     24  O   UNL     1      -2.219  10.130  -0.016  0.00  0.00    -0.153 OA
BRANCH  22  28
ATOM     25  C   UNL     1       1.603  10.274  -3.419  0.00  0.00    +0.123 A 
ATOM     26  C   UNL     1       1.501   9.842  -2.104  0.00  0.00    +0.048 A 
ATOM     27  C   UNL     1       0.264   9.778  -1.494  0.00  0.00    +0.032 A 
ATOM     28  C   UNL     1      -0.874  10.133  -2.195  0.00  0.00    +0.106 A 
ATOM     29  C   UNL     1      -0.776  10.563  -3.505  0.00  0.00    +0.035 A 
ATOM     30  C   UNL     1       0.460  10.635  -4.118  0.00  0.00    -0.007 A 
ATOM     31  C   UNL     1       0.567  11.104  -5.546  0.00  0.00    +0.047 C 
BRANCH  25  32
ATOM     32  O   UNL     1       2.819  10.343  -4.021  0.00  0.00    -0.492 OA
BRANCH  32  34
ATOM     33  C   UNL     1       5.223  10.099  -4.079  0.00  0.00    +0.048 C 
ATOM     34  C   UNL     1       3.952   9.956  -3.240  0.00  0.00    +0.225 C 
ENDBRANCH  32  34
ENDBRANCH  25  32
ENDBRANCH  22  28
ENDBRANCH  20  22
ENDBRANCH  19  20
ENDBRANCH   1  19
TORSDOF 8
