REMARK  Name = ZINC63985726
REMARK  14 active torsions:
REMARK  status: ('A' for Active; 'I' for Inactive)
REMARK    1  A    between atoms: C_1  and  C_2
REMARK    2  A    between atoms: C_2  and  C_3
REMARK    3  A    between atoms: C_2  and  C_4
REMARK    4  A    between atoms: C_5  and  C_6
REMARK    5  A    between atoms: C_6  and  N_7
REMARK    6  A    between atoms: N_7  and  C_8
REMARK    7  A    between atoms: N_14  and  C_27
REMARK    8  A    between atoms: C_15  and  C_23
REMARK    9  A    between atoms: C_17  and  N_19
REMARK   10  A    between atoms: C_20  and  C_22
REMARK   11  A    between atoms: C_23  and  O_25
REMARK   12  A    between atoms: O_25  and  C_26
REMARK   13  A    between atoms: C_27  and  C_28
REMARK   14  A    between atoms: C_28  and  C_29
REMARK                            x       y       z     vdW  Elec       q    Type
REMARK                         _______ _______ _______ _____ _____    ______ ____
ROOT
ATOM      1  C   UNL     1      -5.202  -2.379  -2.208  0.00  0.00    +0.044 A 
ATOM      2  C   UNL     1      -5.777  -1.823  -3.349  0.00  0.00    +0.033 A 
ATOM      3  C   UNL     1      -7.122  -2.042  -3.583  0.00  0.00    +0.015 A 
ATOM      4  C   UNL     1      -7.868  -2.800  -2.691  0.00  0.00    +0.105 A 
ATOM      5  N   UNL     1      -7.278  -3.314  -1.612  0.00  0.00    -0.348 N 
ATOM      6  C   UNL     1      -5.999  -3.132  -1.359  0.00  0.00    +0.107 A 
ATOM      7  N   UNL     1      -9.196  -2.906  -3.099  0.00  0.00    -0.301 N 
ATOM      8  C   UNL     1      -9.400  -2.179  -4.354  0.00  0.00    +0.208 C 
ATOM      9  C   UNL     1      -8.025  -1.587  -4.705  0.00  0.00    +0.138 C 
ATOM     10  H   UNL     1      -7.808  -3.842  -0.995  0.00  0.00    +0.167 HD
ENDROOT
BRANCH   9  11
ATOM     11  N   UNL     1      -7.553  -2.114  -5.988  0.00  0.00    -0.306 N 
ATOM     12  C   UNL     1      -6.621  -1.442  -6.691  0.00  0.00    +0.210 C 
ATOM     13  O   UNL     1      -6.173  -0.400  -6.263  0.00  0.00    -0.276 OA
ATOM     14  C   UNL     1      -6.136  -1.985  -8.011  0.00  0.00    +0.109 C 
ATOM     15  H   UNL     1      -7.912  -2.948  -6.331  0.00  0.00    +0.149 HD
ENDBRANCH   9  11
BRANCH   1  16
ATOM     16  N   UNL     1      -3.844  -2.186  -1.927  0.00  0.00    -0.339 N 
ATOM     17  H   UNL     1      -3.295  -1.658  -2.527  0.00  0.00    +0.146 HD
BRANCH  16  18
ATOM     18  C   UNL     1      -3.252  -2.782  -0.726  0.00  0.00    +0.128 C 
BRANCH  18  20
ATOM     19  C   UNL     1      -1.307  -1.841   0.410  0.00  0.00    -0.027 C 
ATOM     20  C   UNL     1      -1.790  -2.427  -0.658  0.00  0.00    -0.012 C 
BRANCH  19  22
ATOM     21  C   UNL     1       0.305   0.026   0.662  0.00  0.00    +0.011 C 
ATOM     22  C   UNL     1       0.156  -1.486   0.479  0.00  0.00    +0.005 C 
ATOM     23  C   UNL     1       0.801  -2.209   1.663  0.00  0.00    +0.011 C 
ENDBRANCH  19  22
ENDBRANCH  18  20
ENDBRANCH  16  18
ENDBRANCH   1  16
BRANCH   8  24
ATOM     24  C   UNL     1     -10.412  -1.078  -4.162  0.00  0.00    +0.330 C 
ATOM     25  O   UNL     1     -10.572  -0.589  -3.068  0.00  0.00    -0.249 OA
BRANCH  24  26
ATOM     26  O   UNL     1     -11.135  -0.641  -5.205  0.00  0.00    -0.467 OA
ATOM     27  C   UNL     1     -12.075   0.404  -4.950  0.00  0.00    +0.280 C 
ENDBRANCH  24  26
ENDBRANCH   8  24
BRANCH   7  28
ATOM     28  C   UNL     1     -10.238  -3.640  -2.376  0.00  0.00    +0.112 C 
BRANCH  28  29
ATOM     29  C   UNL     1     -10.235  -5.103  -2.825  0.00  0.00    +0.052 C 
BRANCH  29  30
ATOM     30  C   UNL     1     -11.342  -5.846  -2.121  0.00  0.00    -0.040 C 
ATOM     31  C   UNL     1     -12.587  -6.086  -2.591  0.00  0.00    -0.001 A 
ATOM     32  C   UNL     1     -13.259  -5.739  -3.849  0.00  0.00    +0.010 A 
ATOM     33  C   UNL     1     -14.542  -6.125  -4.036  0.00  0.00    +0.001 A 
ATOM     34  C   UNL     1     -15.244  -6.847  -3.060  0.00  0.00    +0.002 A 
ATOM     35  C   UNL     1     -14.694  -7.203  -1.880  0.00  0.00    +0.026 A 
ATOM     36  C   UNL     1     -13.350  -6.849  -1.577  0.00  0.00    +0.043 A 
ATOM     37  N   UNL     1     -12.605  -7.072  -0.522  0.00  0.00    -0.380 N 
ATOM     38  C   UNL     1     -11.282  -6.480  -0.750  0.00  0.00    +0.144 C 
ATOM     39  H   UNL     1     -12.881  -7.551   0.275  0.00  0.00    +0.160 HD
ENDBRANCH  29  30
ENDBRANCH  28  29
ENDBRANCH   7  28
TORSDOF 10
