REMARK  Name = ZINC40799005
REMARK  9 active torsions:
REMARK  status: ('A' for Active; 'I' for Inactive)
REMARK    1  A    between atoms: C_1  and  N_2
REMARK    2  A    between atoms: N_2  and  C_3
REMARK    3  A    between atoms: C_8  and  C_9
REMARK    4  A    between atoms: C_9  and  O_11
REMARK    5  A    between atoms: O_11  and  C_12
REMARK    6  A    between atoms: C_14  and  N_33
REMARK    7  A    between atoms: C_15  and  N_19
REMARK    8  A    between atoms: N_19  and  C_20
REMARK    9  A    between atoms: C_20  and  C_21
REMARK                            x       y       z     vdW  Elec       q    Type
REMARK                         _______ _______ _______ _____ _____    ______ ____
ROOT
ATOM      1  C   UNL     1       2.110   0.422  -0.591  0.00  0.00    +0.137 C 
ATOM      2  N   UNL     1       0.852  -0.086  -1.145  0.00  0.00    -0.287 N 
ATOM      3  C   UNL     1       0.873  -0.982  -2.208  0.00  0.00    +0.129 A 
ATOM      4  C   UNL     1       1.014  -0.524  -3.520  0.00  0.00    +0.104 A 
ATOM      5  C   UNL     1       1.029  -1.466  -4.550  0.00  0.00    +0.153 A 
ATOM      6  N   UNL     1       0.908  -2.756  -4.244  0.00  0.00    -0.220 NA
ATOM      7  C   UNL     1       0.777  -3.147  -2.993  0.00  0.00    +0.200 A 
ATOM      8  N   UNL     1       0.763  -2.290  -1.991  0.00  0.00    -0.333 N 
ATOM      9  H   UNL     1       0.668  -2.618  -1.083  0.00  0.00    +0.168 HD
ENDROOT
BRANCH   5  10
ATOM     10  N   UNL     1       1.167  -1.064  -5.874  0.00  0.00    -0.264 N 
ATOM     11  C   UNL     1       0.044  -0.709  -6.614  0.00  0.00    +0.127 A 
ATOM     12  C   UNL     1      -1.193  -0.609  -5.984  0.00  0.00    +0.044 A 
ATOM     13  C   UNL     1      -2.301  -0.255  -6.732  0.00  0.00    +0.005 A 
ATOM     14  C   UNL     1      -2.135  -0.011  -8.089  0.00  0.00    +0.020 A 
ATOM     15  C   UNL     1      -0.878  -0.129  -8.649  0.00  0.00    +0.113 A 
ATOM     16  N   UNL     1       0.163  -0.463  -7.910  0.00  0.00    -0.240 NA
BRANCH  10  17
ATOM     17  C   UNL     1       2.496  -1.014  -6.489  0.00  0.00    +0.149 C 
BRANCH  17  18
ATOM     18  C   UNL     1       2.805  -2.345  -7.125  0.00  0.00    -0.030 A 
ATOM     19  C   UNL     1       3.431  -3.333  -6.390  0.00  0.00    +0.005 A 
ATOM     20  C   UNL     1       3.715  -4.554  -6.973  0.00  0.00    +0.000 A 
ATOM     21  C   UNL     1       3.372  -4.786  -8.292  0.00  0.00    +0.000 A 
ATOM     22  C   UNL     1       2.745  -3.797  -9.027  0.00  0.00    +0.000 A 
ATOM     23  C   UNL     1       2.458  -2.578  -8.443  0.00  0.00    +0.005 A 
ENDBRANCH  17  18
ENDBRANCH  10  17
ENDBRANCH   5  10
BRANCH   2  24
ATOM     24  C   UNL     1      -0.361   0.329  -0.609  0.00  0.00    +0.049 A 
ATOM     25  C   UNL     1      -1.085   1.345  -1.222  0.00  0.00    +0.024 A 
ATOM     26  C   UNL     1      -2.288   1.755  -0.688  0.00  0.00    +0.002 A 
ATOM     27  C   UNL     1      -2.786   1.160   0.462  0.00  0.00    +0.001 A 
ATOM     28  C   UNL     1      -2.083   0.151   1.083  0.00  0.00    +0.017 A 
ATOM     29  C   UNL     1      -0.864  -0.280   0.551  0.00  0.00    +0.080 A 
BRANCH  29  30
ATOM     30  C   UNL     1      -0.110  -1.362   1.208  0.00  0.00    +0.341 C 
ATOM     31  O   UNL     1       0.943  -1.742   0.736  0.00  0.00    -0.245 OA
BRANCH  30  32
ATOM     32  O   UNL     1      -0.589  -1.930   2.332  0.00  0.00    -0.464 OA
ATOM     33  C   UNL     1       0.195  -2.974   2.915  0.00  0.00    +0.280 C 
ENDBRANCH  30  32
ENDBRANCH  29  30
ENDBRANCH   2  24
BRANCH   4  34
ATOM     34  N   UNL     1       1.138   0.847  -3.795  0.00  0.00    -0.353 N 
ATOM     35  H   UNL     1       1.203   1.484  -3.067  0.00  0.00    +0.143 HD
ATOM     36  H   UNL     1       1.159   1.157  -4.714  0.00  0.00    +0.143 HD
ENDBRANCH   4  34
TORSDOF 7
