REMARK  Name = ZINC20082401
REMARK  4 active torsions:
REMARK  status: ('A' for Active; 'I' for Inactive)
REMARK    1  A    between atoms: C_3  and  N_15
REMARK    2  A    between atoms: C_4  and  N_8
REMARK    3  A    between atoms: N_8  and  S_9
REMARK    4  A    between atoms: S_9  and  C_12
REMARK                            x       y       z     vdW  Elec       q    Type
REMARK                         _______ _______ _______ _____ _____    ______ ____
ROOT
ATOM      1  C   UNL     1      -1.005   1.487   0.536  0.00  0.00    +0.022 A 
ATOM      2  C   UNL     1       0.249   0.909   0.446  0.00  0.00    +0.026 A 
ATOM      3  C   UNL     1       1.369   1.706   0.267  0.00  0.00    +0.049 A 
ATOM      4  C   UNL     1       1.228   3.091   0.182  0.00  0.00    +0.096 A 
ATOM      5  C   UNL     1      -0.031   3.664   0.278  0.00  0.00    +0.048 A 
ATOM      6  C   UNL     1      -1.144   2.861   0.458  0.00  0.00    +0.043 A 
ATOM      7 CL   UNL     1      -2.720   3.580   0.578  0.00  0.00    -0.083 Cl
ENDROOT
BRANCH   3   8
ATOM      8  N   UNL     1       2.638   1.122   0.170  0.00  0.00    -0.356 N 
ATOM      9  H   UNL     1       3.526   1.756   0.027  0.00  0.00    +0.142 HD
ATOM     10  H   UNL     1       2.747   0.029   0.236  0.00  0.00    +0.142 HD
ENDBRANCH   3   8
BRANCH   4  11
ATOM     11  N   UNL     1       2.355   3.902  -0.000  0.00  0.00    -0.095 NA
BRANCH  11  12
ATOM     12  S   UNL     1       2.431   5.389   0.723  0.00  0.00    +0.125 S 
ATOM     13  O   UNL     1       3.725   5.882   0.403  0.00  0.00    -0.148 OA
ATOM     14  O   UNL     1       1.266   6.070   0.277  0.00  0.00    -0.148 OA
BRANCH  12  15
ATOM     15  C   UNL     1       2.314   5.050   2.501  0.00  0.00    +0.501 C 
ATOM     16  F   UNL     1       3.378   4.230   2.891  0.00  0.00    -0.182 F 
ATOM     17  F   UNL     1       2.369   6.254   3.211  0.00  0.00    -0.182 F 
ENDBRANCH  12  15
ENDBRANCH  11  12
ENDBRANCH   4  11
TORSDOF 4
