REMARK  Name = ZINC09972489
REMARK  4 active torsions:
REMARK  status: ('A' for Active; 'I' for Inactive)
REMARK    1  A    between atoms: C_1  and  C_2
REMARK    2  A    between atoms: N_20  and  C_23
REMARK    3  A    between atoms: C_28  and  O_29
REMARK    4  A    between atoms: O_29  and  C_30
REMARK                            x       y       z     vdW  Elec       q    Type
REMARK                         _______ _______ _______ _____ _____    ______ ____
ROOT
ATOM      1  C   UNL     1       5.290   2.086  -1.403  0.00  0.00    +0.035 C 
ATOM      2  C   UNL     1       4.785   2.601  -0.053  0.00  0.00    +0.120 C 
ATOM      3  C   UNL     1       3.270   2.574  -0.020  0.00  0.00    +0.041 A 
ATOM      4  C   UNL     1       2.502   3.684  -0.004  0.00  0.00    -0.015 A 
ATOM      5  C   UNL     1       1.122   3.238   0.008  0.00  0.00    +0.003 A 
ATOM      6  C   UNL     1      -0.094   3.928   0.023  0.00  0.00    +0.010 A 
ATOM      7  C   UNL     1      -1.238   3.169   0.029  0.00  0.00    +0.001 A 
ATOM      8  C   UNL     1      -1.202   1.784   0.017  0.00  0.00    +0.002 A 
ATOM      9  C   UNL     1      -0.013   1.076   0.008  0.00  0.00    +0.026 A 
ATOM     10  C   UNL     1       1.165   1.821   0.001  0.00  0.00    +0.047 A 
ATOM     11  N   UNL     1       2.480   1.456  -0.013  0.00  0.00    -0.356 N 
ATOM     12  H   UNL     1       2.806   0.542  -0.017  0.00  0.00    +0.166 HD
ATOM     13  C   UNL     1       3.007   5.106   0.009  0.00  0.00    +0.069 C 
ATOM     14  C   UNL     1       4.455   5.135  -0.493  0.00  0.00    +0.167 C 
ATOM     15  N   UNL     1       5.177   4.004   0.130  0.00  0.00    -0.292 N 
ATOM     16  C   UNL     1       6.173   4.519   0.854  0.00  0.00    +0.148 C 
ATOM     17  S   UNL     1       7.324   3.578   1.702  0.00  0.00    -0.018 S 
ATOM     18  N   UNL     1       6.166   5.860   0.841  0.00  0.00    -0.217 N 
ATOM     19  C   UNL     1       5.167   6.346   0.075  0.00  0.00    +0.246 C 
ATOM     20  O   UNL     1       4.896   7.511  -0.119  0.00  0.00    -0.273 OA
ENDROOT
BRANCH  18  21
ATOM     21  C   UNL     1       7.084   6.659   1.538  0.00  0.00    +0.085 A 
ATOM     22  C   UNL     1       8.271   7.045   0.932  0.00  0.00    +0.027 A 
ATOM     23  C   UNL     1       9.171   7.837   1.619  0.00  0.00    +0.002 A 
ATOM     24  C   UNL     1       8.898   8.237   2.914  0.00  0.00    +0.004 A 
ATOM     25  C   UNL     1       7.721   7.852   3.526  0.00  0.00    +0.047 A 
ATOM     26  C   UNL     1       6.810   7.062   2.842  0.00  0.00    +0.142 A 
BRANCH  26  27
ATOM     27  O   UNL     1       5.651   6.683   3.443  0.00  0.00    -0.493 OA
ATOM     28  C   UNL     1       5.436   7.133   4.782  0.00  0.00    +0.277 C 
ENDBRANCH  26  27
ENDBRANCH  18  21
TORSDOF 2
