REMARK  Name = ZINC39884104
REMARK  8 active torsions:
REMARK  status: ('A' for Active; 'I' for Inactive)
REMARK    1  A    between atoms: C_1  and  C_2
REMARK    2  A    between atoms: C_2  and  C_3
REMARK    3  A    between atoms: C_2  and  C_4
REMARK    4  A    between atoms: C_2  and  C_5
REMARK    5  A    between atoms: C_8  and  C_11
REMARK    6  A    between atoms: N_15  and  C_19
REMARK    7  A    between atoms: C_19  and  C_20
REMARK    8  A    between atoms: N_22  and  C_23
REMARK                            x       y       z     vdW  Elec       q    Type
REMARK                         _______ _______ _______ _____ _____    ______ ____
ROOT
ATOM      1  C   UNL     1       2.707  -1.877  -4.767  0.00  0.00    +0.072 C 
ATOM      2  C   UNL     1       3.821  -2.747  -4.338  0.00  0.00    +0.033 A 
ATOM      3  C   UNL     1       5.072  -2.845  -4.827  0.00  0.00    +0.091 A 
ATOM      4  N   UNL     1       5.864  -3.797  -4.235  0.00  0.00    -0.288 N 
ATOM      5  C   UNL     1       5.385  -4.525  -3.210  0.00  0.00    +0.292 A 
ATOM      6  O   UNL     1       5.950  -5.395  -2.570  0.00  0.00    -0.259 OA
ATOM      7  S   UNL     1       3.818  -3.945  -3.023  0.00  0.00    -0.030 S 
ATOM      8  S   UNL     1       5.610  -1.760  -6.125  0.00  0.00    -0.093 S 
ATOM      9  C   UNL     1       4.112  -0.980  -6.703  0.00  0.00    +0.153 C 
ATOM     10  C   UNL     1       3.076  -0.665  -5.618  0.00  0.00    +0.112 C 
ATOM     11  C   UNL     1       1.850  -0.502  -6.545  0.00  0.00    +0.245 C 
ATOM     12  O   UNL     1       0.753   0.227  -6.286  0.00  0.00    -0.273 OA
ATOM     13  N   UNL     1       2.073  -1.201  -7.629  0.00  0.00    -0.145 NA
ATOM     14  C   UNL     1       3.299  -1.742  -7.704  0.00  0.00    +0.253 C 
ATOM     15  O   UNL     1       3.667  -2.643  -8.430  0.00  0.00    -0.272 OA
ENDROOT
BRANCH   1  19
ATOM     16  C   UNL     1       0.703  -0.474  -1.265  0.00  0.00    -0.042 A 
ATOM     17  C   UNL     1       0.033  -1.275  -2.170  0.00  0.00    +0.004 A 
ATOM     18  C   UNL     1       0.681  -1.729  -3.304  0.00  0.00    +0.004 A 
ATOM     19  C   UNL     1       2.000  -1.381  -3.532  0.00  0.00    -0.039 A 
ATOM     20  C   UNL     1       2.669  -0.579  -2.627  0.00  0.00    +0.004 A 
ATOM     21  C   UNL     1       2.020  -0.122  -1.496  0.00  0.00    +0.004 A 
BRANCH  16  23
ATOM     22  C   UNL     1      -0.025   1.550  -0.032  0.00  0.00    +0.015 C 
ATOM     23  C   UNL     1      -0.004   0.021  -0.029  0.00  0.00    -0.013 C 
ATOM     24  C   UNL     1       0.736  -0.477   1.215  0.00  0.00    +0.015 C 
ATOM     25  C   UNL     1      -1.438  -0.510  -0.015  0.00  0.00    +0.015 C 
ENDBRANCH  16  23
ENDBRANCH   1  19
BRANCH   4  26
ATOM     26  C   UNL     1       7.229  -4.021  -4.719  0.00  0.00    +0.222 C 
BRANCH  26  27
ATOM     27  C   UNL     1       8.181  -3.125  -3.969  0.00  0.00    +0.237 C 
ATOM     28  O   UNL     1       7.761  -2.374  -3.114  0.00  0.00    -0.274 OA
ATOM     29  N   UNL     1       9.499  -3.159  -4.247  0.00  0.00    -0.284 N 
ATOM     30  H   UNL     1       9.844  -3.806  -4.882  0.00  0.00    +0.155 HD
BRANCH  29  31
ATOM     31  C   UNL     1      10.370  -2.260  -3.621  0.00  0.00    +0.033 A 
ATOM     32  C   UNL     1      11.460  -1.750  -4.314  0.00  0.00    +0.023 A 
ATOM     33  C   UNL     1      12.318  -0.863  -3.692  0.00  0.00    +0.002 A 
ATOM     34  C   UNL     1      12.092  -0.484  -2.382  0.00  0.00    +0.000 A 
ATOM     35  C   UNL     1      11.007  -0.990  -1.690  0.00  0.00    +0.002 A 
ATOM     36  C   UNL     1      10.143  -1.872  -2.307  0.00  0.00    +0.023 A 
ENDBRANCH  29  31
ENDBRANCH  26  27
ENDBRANCH   4  26
TORSDOF 5
