REMARK  Name = ZINC67639143
REMARK  9 active torsions:
REMARK  status: ('A' for Active; 'I' for Inactive)
REMARK    1  A    between atoms: C_1  and  C_2
REMARK    2  A    between atoms: C_11  and  C_12
REMARK    3  A    between atoms: C_12  and  C_13
REMARK    4  A    between atoms: C_13  and  N_14
REMARK    5  A    between atoms: N_17  and  C_18
REMARK    6  A    between atoms: N_17  and  C_19
REMARK    7  A    between atoms: C_19  and  C_21
REMARK    8  A    between atoms: C_19  and  C_22
REMARK    9  A    between atoms: C_26  and  O_28
REMARK                            x       y       z     vdW  Elec       q    Type
REMARK                         _______ _______ _______ _____ _____    ______ ____
ROOT
ATOM      1  N   UNL     1       1.260  -7.010  -2.197  0.00  0.00    -0.299 N 
ATOM      2  C   UNL     1       2.512  -7.271  -2.622  0.00  0.00    +0.302 C 
ATOM      3  O   UNL     1       3.442  -6.595  -2.225  0.00  0.00    -0.253 OA
ATOM      4  N   UNL     1       2.734  -8.280  -3.488  0.00  0.00    -0.282 N 
ATOM      5  C   UNL     1       1.614  -9.094  -3.966  0.00  0.00    +0.134 C 
ATOM      6  H   UNL     1       0.518  -7.550  -2.514  0.00  0.00    +0.150 HD
ENDROOT
BRANCH   4   7
ATOM      7  C   UNL     1       4.095  -8.562  -3.950  0.00  0.00    +0.104 C 
ATOM      8  C   UNL     1       4.182  -8.322  -5.458  0.00  0.00    +0.033 C 
BRANCH   7   9
ATOM      9  C   UNL     1       4.439  -9.999  -3.650  0.00  0.00    -0.024 A 
ATOM     10  C   UNL     1       5.313 -10.686  -4.473  0.00  0.00    +0.006 A 
ATOM     11  C   UNL     1       5.630 -12.004  -4.200  0.00  0.00    +0.004 A 
ATOM     12  C   UNL     1       5.075 -12.637  -3.104  0.00  0.00    +0.045 A 
ATOM     13  C   UNL     1       4.199 -11.950  -2.278  0.00  0.00    +0.117 A 
ATOM     14  C   UNL     1       3.887 -10.625  -2.550  0.00  0.00    +0.050 A 
BRANCH  13  15
ATOM     15  O   UNL     1       3.652 -12.570  -1.200  0.00  0.00    -0.507 OA
ATOM     16  H   UNL     1       4.173 -12.483  -0.390  0.00  0.00    +0.292 HD
ENDBRANCH  13  15
ENDBRANCH   7   9
ENDBRANCH   4   7
BRANCH   1  17
ATOM     17  C   UNL     1       1.019  -5.913  -1.257  0.00  0.00    +0.110 C 
BRANCH  17  18
ATOM     18  C   UNL     1      -0.476  -5.834  -0.939  0.00  0.00    +0.056 C 
BRANCH  18  29
ATOM     19  C   UNL     1      -1.582   0.926  -0.287  0.00  0.00    +0.044 C 
ATOM     20  C   UNL     1      -1.349  -0.563  -0.286  0.00  0.00    -0.048 A 
ATOM     21  C   UNL     1      -1.154  -1.228  -1.489  0.00  0.00    +0.004 A 
ATOM     22  C   UNL     1      -0.942  -2.578  -1.509  0.00  0.00    +0.010 A 
ATOM     23  C   UNL     1      -0.919  -3.294  -0.310  0.00  0.00    +0.003 A 
ATOM     24  C   UNL     1      -1.115  -2.624   0.911  0.00  0.00    +0.047 A 
ATOM     25  C   UNL     1      -1.326  -1.249   0.908  0.00  0.00    +0.029 A 
ATOM     26  N   UNL     1      -1.042  -3.570   1.909  0.00  0.00    -0.360 N 
ATOM     27  H   UNL     1      -1.142  -3.388   2.857  0.00  0.00    +0.165 HD
ATOM     28  C   UNL     1      -0.809  -4.803   1.365  0.00  0.00    +0.087 A 
ATOM     29  C   UNL     1      -0.724  -4.705   0.029  0.00  0.00    -0.021 A 
ENDBRANCH  18  29
ENDBRANCH  17  18
ENDBRANCH   1  17
TORSDOF 6
