REMARK  Name = ZINC35148192
REMARK  13 active torsions:
REMARK  status: ('A' for Active; 'I' for Inactive)
REMARK    1  A    between atoms: C_1  and  C_2
REMARK    2  A    between atoms: C_4  and  O_11
REMARK    3  A    between atoms: C_7  and  N_8
REMARK    4  A    between atoms: O_11  and  C_12
REMARK    5  A    between atoms: C_12  and  C_13
REMARK    6  A    between atoms: C_15  and  C_21
REMARK    7  A    between atoms: C_18  and  O_19
REMARK    8  A    between atoms: O_19  and  C_20
REMARK    9  A    between atoms: N_22  and  N_23
REMARK   10  A    between atoms: C_24  and  C_26
REMARK   11  A    between atoms: C_28  and  C_33
REMARK   12  A    between atoms: C_30  and  C_31
REMARK   13  A    between atoms: C_30  and  C_32
REMARK                            x       y       z     vdW  Elec       q    Type
REMARK                         _______ _______ _______ _____ _____    ______ ____
ROOT
ATOM      1  C   UNL     1      -0.051  -4.724  -3.731  0.00  0.00    +0.032 A 
ATOM      2  C   UNL     1      -0.422  -3.907  -4.777  0.00  0.00    +0.020 A 
ATOM      3  C   UNL     1      -0.572  -4.442  -6.059  0.00  0.00    -0.005 A 
ATOM      4  C   UNL     1      -0.344  -5.803  -6.275  0.00  0.00    +0.013 A 
ATOM      5  C   UNL     1       0.027  -6.613  -5.223  0.00  0.00    +0.046 A 
ATOM      6  C   UNL     1       0.180  -6.076  -3.951  0.00  0.00    +0.127 A 
ENDROOT
BRANCH   6   7
ATOM      7  O   UNL     1       0.552  -6.876  -2.918  0.00  0.00    -0.495 OA
ATOM      8  C   UNL     1       0.773  -8.257  -3.215  0.00  0.00    +0.277 C 
ENDBRANCH   6   7
BRANCH   3   9
ATOM      9  C   UNL     1      -0.969  -3.572  -7.181  0.00  0.00    +0.138 C 
ATOM     10  N   UNL     1      -1.107  -4.070  -8.371  0.00  0.00    -0.188 NA
BRANCH  10  11
ATOM     11  N   UNL     1      -1.485  -3.243  -9.437  0.00  0.00    -0.207 N 
ATOM     12  C   UNL     1      -1.629  -3.761 -10.674  0.00  0.00    +0.236 C 
ATOM     13  O   UNL     1      -1.431  -4.943 -10.863  0.00  0.00    -0.274 OA
ATOM     14  H   UNL     1      -1.643  -2.298  -9.286  0.00  0.00    +0.177 HD
BRANCH  12  15
ATOM     15  C   UNL     1      -2.035  -2.872 -11.820  0.00  0.00    +0.090 C 
ATOM     16  C   UNL     1      -0.992  -2.598 -12.906  0.00  0.00    +0.033 C 
ATOM     17  C   UNL     1      -2.180  -3.519 -13.199  0.00  0.00    -0.016 C 
ATOM     18  C   UNL     1      -1.901  -5.019 -13.308  0.00  0.00    +0.012 C 
ATOM     19  C   UNL     1      -3.279  -2.983 -14.119  0.00  0.00    +0.012 C 
BRANCH  16  20
ATOM     20  C   UNL     1      -0.995  -1.234 -13.545  0.00  0.00    +0.010 C 
ATOM     21  C   UNL     1      -0.022  -0.887 -14.357  0.00  0.00    +0.103 C 
ATOM     22 CL   UNL     1       1.266  -2.000 -14.692  0.00  0.00    -0.071 Cl
ATOM     23 CL   UNL     1      -0.025   0.685 -15.093  0.00  0.00    -0.071 Cl
ENDBRANCH  16  20
ENDBRANCH  12  15
ENDBRANCH  10  11
ENDBRANCH   3   9
BRANCH   1  24
ATOM     24  C   UNL     1       0.111  -4.149  -2.348  0.00  0.00    +0.268 C 
BRANCH  24  25
ATOM     25  O   UNL     1      -0.179  -2.750  -2.376  0.00  0.00    -0.487 OA
BRANCH  25  29
ATOM     26  C   UNL     1      -0.537   1.447   0.089  0.00  0.00    +0.046 C 
ATOM     27  C   UNL     1      -0.246  -0.031   0.040  0.00  0.00    -0.017 A 
ATOM     28  C   UNL     1      -0.348  -0.715  -1.157  0.00  0.00    +0.051 A 
ATOM     29  C   UNL     1      -0.080  -2.075  -1.201  0.00  0.00    +0.121 A 
ATOM     30  C   UNL     1       0.289  -2.745  -0.044  0.00  0.00    +0.048 A 
ATOM     31  C   UNL     1       0.389  -2.057   1.149  0.00  0.00    +0.036 A 
ATOM     32  C   UNL     1       0.127  -0.700   1.190  0.00  0.00    +0.129 A 
BRANCH  32  33
ATOM     33  N   UNL     1       0.241   0.037   2.469  0.00  0.00    +0.057 N 
ATOM     34  O   UNL     1       0.676   1.165   2.480  0.00  0.00    -0.126 OA
ATOM     35  O   UNL     1      -0.100  -0.490   3.502  0.00  0.00    -0.126 OA
ENDBRANCH  32  33
ENDBRANCH  25  29
ENDBRANCH  24  25
ENDBRANCH   1  24
TORSDOF 9
