REMARK  Name = ZINC39677716
REMARK  10 active torsions:
REMARK  status: ('A' for Active; 'I' for Inactive)
REMARK    1  A    between atoms: C_1  and  C_2
REMARK    2  A    between atoms: C_2  and  C_3
REMARK    3  A    between atoms: C_3  and  C_4
REMARK    4  A    between atoms: C_4  and  C_5
REMARK    5  A    between atoms: C_5  and  C_7
REMARK    6  A    between atoms: C_5  and  C_8
REMARK    7  A    between atoms: C_12  and  C_21
REMARK    8  A    between atoms: N_23  and  C_24
REMARK    9  A    between atoms: C_24  and  C_25
REMARK   10  A    between atoms: C_28  and  C_30
REMARK                            x       y       z     vdW  Elec       q    Type
REMARK                         _______ _______ _______ _____ _____    ______ ____
ROOT
ATOM      1  C   UNL     1       1.076  -3.920  -2.715  0.00  0.00    +0.218 C 
ATOM      2  O   UNL     1       0.370  -4.582  -1.983  0.00  0.00    -0.275 OA
ATOM      3  N   UNL     1       1.827  -4.526  -3.655  0.00  0.00    -0.300 N 
ATOM      4  C   UNL     1       2.827  -3.908  -4.557  0.00  0.00    +0.121 C 
ATOM      5  C   UNL     1       3.978  -4.936  -4.627  0.00  0.00    +0.100 C 
ATOM      6  C   UNL     1       3.323  -6.283  -4.277  0.00  0.00    -0.004 C 
ATOM      7  C   UNL     1       1.843  -5.964  -4.018  0.00  0.00    +0.115 C 
ATOM      8  C   UNL     1       3.458  -7.255  -5.445  0.00  0.00    -0.010 C 
ATOM      9  C   UNL     1       2.851  -8.605  -5.052  0.00  0.00    -0.082 C 
ATOM     10  N   UNL     1       3.544  -9.130  -3.869  0.00  0.00    +0.379 N 
ATOM     11  C   UNL     1       3.332  -8.234  -2.726  0.00  0.00    -0.082 C 
ATOM     12  C   UNL     1       3.959  -6.869  -3.021  0.00  0.00    -0.010 C 
ATOM     13  H   UNL     1       3.184 -10.046  -3.649  0.00  0.00    -0.086 HD
ATOM     14  H   UNL     1       4.532  -9.197  -4.062  0.00  0.00    -0.086 HD
ENDROOT
BRANCH   5  15
ATOM     15  C   UNL     1       5.049  -4.595  -3.623  0.00  0.00    +0.218 C 
ATOM     16  O   UNL     1       4.768  -3.962  -2.628  0.00  0.00    -0.275 OA
ATOM     17  N   UNL     1       6.320  -4.992  -3.832  0.00  0.00    -0.310 N 
ATOM     18  H   UNL     1       6.545  -5.499  -4.628  0.00  0.00    +0.149 HD
BRANCH  17  19
ATOM     19  C   UNL     1       7.361  -4.660  -2.856  0.00  0.00    +0.146 C 
BRANCH  19  20
ATOM     20  C   UNL     1       8.682  -5.217  -3.322  0.00  0.00    +0.007 A 
ATOM     21  C   UNL     1       9.630  -4.630  -4.098  0.00  0.00    +0.013 A 
ATOM     22  C   UNL     1      10.775  -5.331  -4.404  0.00  0.00    +0.018 A 
ATOM     23  C   UNL     1      10.920  -6.602  -3.913  0.00  0.00    +0.038 A 
ATOM     24  S   UNL     1       9.407  -6.814  -2.990  0.00  0.00    -0.090 S 
BRANCH  23  25
ATOM     25  C   UNL     1      12.039  -7.548  -4.096  0.00  0.00    +0.078 A 
ATOM     26  C   UNL     1      11.982  -8.812  -3.506  0.00  0.00    +0.029 A 
ATOM     27  C   UNL     1      13.038  -9.686  -3.687  0.00  0.00    +0.004 A 
ATOM     28  C   UNL     1      14.120  -9.270  -4.452  0.00  0.00    +0.020 A 
ATOM     29  C   UNL     1      14.112  -8.005  -5.008  0.00  0.00    +0.111 A 
ATOM     30  N   UNL     1      13.091  -7.191  -4.826  0.00  0.00    -0.254 NA
ENDBRANCH  23  25
ENDBRANCH  19  20
ENDBRANCH  17  19
ENDBRANCH   5  15
BRANCH   1  31
ATOM     31  C   UNL     1       1.113  -2.420  -2.572  0.00  0.00    +0.072 C 
ATOM     32  C   UNL     1       0.959  -2.045  -1.097  0.00  0.00    +0.017 C 
BRANCH  31  33
ATOM     33  C   UNL     1      -0.032  -1.803  -3.378  0.00  0.00    +0.012 C 
BRANCH  33  34
ATOM     34  C   UNL     1       0.079  -0.278  -3.335  0.00  0.00    +0.000 C 
BRANCH  34  36
ATOM     35  C   UNL     1      -0.954   1.865  -4.098  0.00  0.00    +0.004 C 
ATOM     36  C   UNL     1      -1.065   0.340  -4.141  0.00  0.00    -0.003 C 
ENDBRANCH  34  36
ENDBRANCH  33  34
ENDBRANCH  31  33
ENDBRANCH   1  31
TORSDOF 8
