REMARK  Name = ZINC28528405
REMARK  12 active torsions:
REMARK  status: ('A' for Active; 'I' for Inactive)
REMARK    1  A    between atoms: C_1  and  C_2
REMARK    2  A    between atoms: C_2  and  N_3
REMARK    3  A    between atoms: N_3  and  C_4
REMARK    4  A    between atoms: N_3  and  C_12
REMARK    5  A    between atoms: C_4  and  C_5
REMARK    6  A    between atoms: C_8  and  C_11
REMARK    7  A    between atoms: C_12  and  C_13
REMARK    8  A    between atoms: C_13  and  C_15
REMARK    9  A    between atoms: C_13  and  O_40
REMARK   10  A    between atoms: C_15  and  N_16
REMARK   11  A    between atoms: N_28  and  C_31
REMARK   12  A    between atoms: C_31  and  C_32
REMARK                            x       y       z     vdW  Elec       q    Type
REMARK                         _______ _______ _______ _____ _____    ______ ____
ROOT
ATOM      1  N   UNL     1       0.356   3.448  -1.157  0.00  0.00    -0.268 N 
ATOM      2  C   UNL     1       0.569   2.071  -1.067  0.00  0.00    +0.041 A 
ATOM      3  C   UNL     1       1.672   1.347  -0.621  0.00  0.00    +0.024 A 
ATOM      4  C   UNL     1       1.644  -0.032  -0.627  0.00  0.00    +0.002 A 
ATOM      5  C   UNL     1       0.523  -0.707  -1.076  0.00  0.00    +0.000 A 
ATOM      6  C   UNL     1      -0.576   0.005  -1.521  0.00  0.00    +0.006 A 
ATOM      7  C   UNL     1      -0.552   1.382  -1.517  0.00  0.00    -0.011 A 
ATOM      8  C   UNL     1      -1.551   2.432  -1.931  0.00  0.00    +0.071 C 
ATOM      9  C   UNL     1      -0.860   3.744  -1.650  0.00  0.00    +0.230 C 
ATOM     10  O   UNL     1      -1.313   4.854  -1.836  0.00  0.00    -0.274 OA
ATOM     11  C   UNL     1      -2.827   2.314  -1.101  0.00  0.00    +0.002 C 
ATOM     12  C   UNL     1      -3.833   3.372  -1.564  0.00  0.00    -0.077 C 
ATOM     13  N   UNL     1      -4.118   3.185  -2.992  0.00  0.00    +0.380 N 
ATOM     14  C   UNL     1      -2.909   3.364  -3.805  0.00  0.00    -0.077 C 
ATOM     15  C   UNL     1      -1.872   2.306  -3.418  0.00  0.00    +0.002 C 
ATOM     16  H   UNL     1      -4.464   2.150  -3.131  0.00  0.00    -0.082 HD
ENDROOT
BRANCH   1  17
ATOM     17  C   UNL     1       1.344   4.455  -0.760  0.00  0.00    +0.143 C 
BRANCH  17  18
ATOM     18  C   UNL     1       2.229   4.801  -1.958  0.00  0.00    +0.116 C 
BRANCH  18  19
ATOM     19  O   UNL     1       2.903   3.624  -2.409  0.00  0.00    -0.392 OA
ATOM     20  H   UNL     1       2.322   2.754  -2.750  0.00  0.00    +0.210 HD
ENDBRANCH  18  19
BRANCH  18  21
ATOM     21  C   UNL     1       3.261   5.852  -1.544  0.00  0.00    -0.045 C 
BRANCH  21  22
ATOM     22  N   UNL     1       4.026   6.279  -2.723  0.00  0.00    +0.384 N 
ATOM     23  H   UNL     1       4.265   5.383  -3.313  0.00  0.00    -0.081 HD
BRANCH  22  25
ATOM     24  C   UNL     1       6.265   5.837  -1.835  0.00  0.00    -0.017 C 
ATOM     25  C   UNL     1       5.292   6.910  -2.328  0.00  0.00    -0.082 C 
ENDBRANCH  22  25
BRANCH  22  26
ATOM     26  C   UNL     1       3.231   7.179  -3.569  0.00  0.00    -0.043 C 
BRANCH  26  27
ATOM     27  C   UNL     1       3.945   7.399  -4.878  0.00  0.00    -0.064 A 
ATOM     28  C   UNL     1       4.836   8.447  -5.011  0.00  0.00    +0.002 A 
ATOM     29  C   UNL     1       5.494   8.647  -6.210  0.00  0.00    +0.003 A 
ATOM     30  C   UNL     1       5.254   7.804  -7.279  0.00  0.00    -0.050 A 
ATOM     31  C   UNL     1       4.358   6.759  -7.147  0.00  0.00    +0.003 A 
ATOM     32  C   UNL     1       3.704   6.557  -5.947  0.00  0.00    +0.002 A 
ATOM     33  C   UNL     1       5.968   8.024  -8.588  0.00  0.00    +0.044 C 
ENDBRANCH  26  27
ENDBRANCH  22  26
ENDBRANCH  21  22
ENDBRANCH  18  21
ENDBRANCH  17  18
ENDBRANCH   1  17
BRANCH  13  34
ATOM     34  C   UNL     1      -5.190   4.085  -3.437  0.00  0.00    -0.075 C 
BRANCH  34  35
ATOM     35  C   UNL     1      -6.499   3.702  -2.744  0.00  0.00    -0.028 C 
ATOM     36  C   UNL     1      -6.928   2.305  -3.200  0.00  0.00    +0.002 C 
ATOM     37  C   UNL     1      -7.987   1.759  -2.240  0.00  0.00    +0.000 C 
ATOM     38  C   UNL     1      -7.564   2.043  -0.797  0.00  0.00    +0.000 C 
ATOM     39  C   UNL     1      -8.530   3.052  -0.172  0.00  0.00    +0.000 C 
ATOM     40  C   UNL     1      -8.222   4.451  -0.708  0.00  0.00    +0.000 C 
ATOM     41  C   UNL     1      -8.758   4.580  -2.135  0.00  0.00    +0.000 C 
ATOM     42  C   UNL     1      -7.586   4.714  -3.110  0.00  0.00    +0.002 C 
ENDBRANCH  34  35
ENDBRANCH  13  34
TORSDOF 10
