REMARK  Name = ZINC40286994
REMARK  9 active torsions:
REMARK  status: ('A' for Active; 'I' for Inactive)
REMARK    1  A    between atoms: C_1  and  O_2
REMARK    2  A    between atoms: O_2  and  C_3
REMARK    3  A    between atoms: C_3  and  C_5
REMARK    4  A    between atoms: C_5  and  C_6
REMARK    5  A    between atoms: C_6  and  C_7
REMARK    6  A    between atoms: C_7  and  C_8
REMARK    7  A    between atoms: C_8  and  C_9
REMARK    8  A    between atoms: C_9  and  N_10
REMARK    9  A    between atoms: C_22  and  C_24
REMARK                            x       y       z     vdW  Elec       q    Type
REMARK                         _______ _______ _______ _____ _____    ______ ____
ROOT
ATOM      1  N   UNL     1       2.658  -8.365  -4.603  0.00  0.00    -0.299 N 
ATOM      2  C   UNL     1       3.230  -7.530  -5.493  0.00  0.00    +0.303 C 
ATOM      3  O   UNL     1       3.097  -6.328  -5.372  0.00  0.00    -0.253 OA
ATOM      4  N   UNL     1       3.950  -8.029  -6.518  0.00  0.00    -0.273 N 
ATOM      5  C   UNL     1       4.679  -7.136  -7.432  0.00  0.00    +0.116 C 
ATOM      6  C   UNL     1       6.184  -7.397  -7.297  0.00  0.00    +0.076 C 
ATOM      7  C   UNL     1       6.423  -8.886  -7.296  0.00  0.00    +0.066 A 
ATOM      8  C   UNL     1       5.470  -9.811  -7.050  0.00  0.00    +0.064 A 
ATOM      9  N   UNL     1       6.062 -11.032  -7.132  0.00  0.00    -0.346 N 
ATOM     10  H   UNL     1       5.632 -11.892  -7.001  0.00  0.00    +0.167 HD
ATOM     11  C   UNL     1       7.364 -10.820  -7.430  0.00  0.00    +0.197 A 
ATOM     12  N   UNL     1       7.570  -9.533  -7.527  0.00  0.00    -0.240 NA
ATOM     13  C   UNL     1       4.033  -9.483  -6.747  0.00  0.00    +0.159 C 
ATOM     14  H   UNL     1       2.703  -9.324  -4.739  0.00  0.00    +0.150 HD
ENDROOT
BRANCH  13  15
ATOM     15  C   UNL     1       3.166  -9.867  -7.919  0.00  0.00    +0.015 A 
ATOM     16  C   UNL     1       3.742 -10.143  -9.144  0.00  0.00    +0.028 A 
ATOM     17  C   UNL     1       2.946 -10.496 -10.219  0.00  0.00    +0.041 A 
ATOM     18  C   UNL     1       1.573 -10.573 -10.068  0.00  0.00    +0.023 A 
ATOM     19  C   UNL     1       0.996 -10.297  -8.844  0.00  0.00    +0.040 A 
ATOM     20  C   UNL     1       1.792  -9.949  -7.766  0.00  0.00    +0.129 A 
ATOM     21  F   UNL     1       1.229  -9.685  -6.567  0.00  0.00    -0.205 F 
ATOM     22 CL   UNL     1       3.671 -10.843 -11.758  0.00  0.00    -0.084 Cl
ENDBRANCH  13  15
BRANCH   1  23
ATOM     23  C   UNL     1       1.970  -7.823  -3.428  0.00  0.00    +0.106 C 
BRANCH  23  24
ATOM     24  C   UNL     1       1.415  -8.974  -2.587  0.00  0.00    +0.019 C 
BRANCH  24  25
ATOM     25  C   UNL     1       0.696  -8.408  -1.360  0.00  0.00    +0.002 C 
BRANCH  25  26
ATOM     26  C   UNL     1       0.141  -9.559  -0.519  0.00  0.00    +0.011 C 
BRANCH  26  27
ATOM     27  C   UNL     1      -0.578  -8.993   0.708  0.00  0.00    +0.120 C 
BRANCH  27  28
ATOM     28  C   UNL     1      -1.125 -10.127   1.537  0.00  0.00    +0.307 C 
ATOM     29  O   UNL     1      -0.957 -11.270   1.183  0.00  0.00    -0.251 OA
BRANCH  28  31
ATOM     30  C   UNL     1      -2.288 -10.989   3.404  0.00  0.00    +0.280 C 
ATOM     31  O   UNL     1      -1.798  -9.867   2.668  0.00  0.00    -0.468 OA
ENDBRANCH  28  31
ENDBRANCH  27  28
ENDBRANCH  26  27
ENDBRANCH  25  26
ENDBRANCH  24  25
ENDBRANCH  23  24
ENDBRANCH   1  23
TORSDOF 8
