REMARK  Name = ZINC36569266
REMARK  10 active torsions:
REMARK  status: ('A' for Active; 'I' for Inactive)
REMARK    1  A    between atoms: C_1  and  O_2
REMARK    2  A    between atoms: O_2  and  C_3
REMARK    3  A    between atoms: C_6  and  O_33
REMARK    4  A    between atoms: C_7  and  N_9
REMARK    5  A    between atoms: C_10  and  C_12
REMARK    6  A    between atoms: C_15  and  C_29
REMARK    7  A    between atoms: C_29  and  C_30
REMARK    8  A    between atoms: C_30  and  S_31
REMARK    9  A    between atoms: S_31  and  C_32
REMARK   10  A    between atoms: O_33  and  C_34
REMARK                            x       y       z     vdW  Elec       q    Type
REMARK                         _______ _______ _______ _____ _____    ______ ____
ROOT
ATOM      1  C   UNL     1      -1.245  -6.299  -0.003  0.00  0.00    +0.076 C 
ATOM      2  C   UNL     1      -1.933  -6.868   1.262  0.00  0.00    -0.004 C 
ATOM      3  C   UNL     1      -0.741  -7.122   2.220  0.00  0.00    -0.068 C 
ATOM      4  N   UNL     1       0.336  -7.594   1.310  0.00  0.00    +0.394 N 
ATOM      5  C   UNL     1       0.207  -6.783   0.086  0.00  0.00    +0.049 C 
ATOM      6  C   UNL     1       0.590  -7.574  -1.136  0.00  0.00    -0.025 A 
ATOM      7  C   UNL     1       0.103  -8.731  -1.702  0.00  0.00    +0.043 A 
ATOM      8  C   UNL     1       0.678  -9.230  -2.860  0.00  0.00    +0.124 A 
ATOM      9  C   UNL     1       1.742  -8.563  -3.443  0.00  0.00    +0.040 A 
ATOM     10  C   UNL     1       2.230  -7.403  -2.878  0.00  0.00    +0.026 A 
ATOM     11  C   UNL     1       1.657  -6.895  -1.714  0.00  0.00    +0.036 A 
ATOM     12  N   UNL     1       1.967  -5.756  -0.966  0.00  0.00    -0.286 N 
ATOM     13  C   UNL     1       1.163  -5.618   0.105  0.00  0.00    +0.211 C 
ATOM     14  O   UNL     1       1.200  -4.727   0.927  0.00  0.00    -0.277 OA
ATOM     15  F   UNL     1       0.202 -10.365  -3.417  0.00  0.00    -0.205 F 
ATOM     16  H   UNL     1       1.240  -7.445   1.733  0.00  0.00    -0.083 HD
ATOM     17  H   UNL     1       2.679  -5.138  -1.192  0.00  0.00    +0.155 HD
ATOM     18  H   UNL     1       0.207  -8.571   1.095  0.00  0.00    -0.083 HD
ENDROOT
BRANCH   1  20
ATOM     19  N   UNL     1      -1.333  -4.115  -1.161  0.00  0.00    -0.282 N 
ATOM     20  C   UNL     1      -1.298  -4.793   0.004  0.00  0.00    +0.220 C 
ATOM     21  O   UNL     1      -1.309  -4.191   1.057  0.00  0.00    -0.275 OA
ATOM     22  H   UNL     1      -1.384  -4.597  -2.001  0.00  0.00    +0.155 HD
BRANCH  19  27
ATOM     23  C   UNL     1      -1.872  -0.619  -0.138  0.00  0.00    +0.122 A 
ATOM     24  C   UNL     1      -1.215   0.057  -1.155  0.00  0.00    +0.049 A 
ATOM     25  C   UNL     1      -0.598  -0.648  -2.171  0.00  0.00    +0.051 A 
ATOM     26  C   UNL     1      -0.635  -2.032  -2.177  0.00  0.00    +0.141 A 
ATOM     27  C   UNL     1      -1.294  -2.715  -1.157  0.00  0.00    +0.079 A 
ATOM     28  C   UNL     1      -1.907  -2.005  -0.135  0.00  0.00    +0.072 A 
BRANCH  23  30
ATOM     29  C   UNL     1      -2.402   1.503   0.796  0.00  0.00    +0.277 C 
ATOM     30  O   UNL     1      -2.477   0.077   0.861  0.00  0.00    -0.495 OA
ENDBRANCH  23  30
BRANCH  26  31
ATOM     31  O   UNL     1      -0.028  -2.725  -3.178  0.00  0.00    -0.493 OA
ATOM     32  C   UNL     1       0.628  -1.961  -4.191  0.00  0.00    +0.277 C 
ENDBRANCH  26  31
ENDBRANCH  19  27
ENDBRANCH   1  20
BRANCH   3  33
ATOM     33  C   UNL     1      -1.095  -8.200   3.247  0.00  0.00    -0.005 C 
BRANCH  33  34
ATOM     34  C   UNL     1       0.064  -8.366   4.231  0.00  0.00    +0.067 C 
BRANCH  34  35
ATOM     35  S   UNL     1      -0.355  -9.644   5.449  0.00  0.00    -0.164 S 
ATOM     36  C   UNL     1       1.102  -9.718   6.527  0.00  0.00    +0.084 C 
ENDBRANCH  34  35
ENDBRANCH  33  34
ENDBRANCH   3  33
TORSDOF 7
