REMARK  Name = ZINC38655038
REMARK  8 active torsions:
REMARK  status: ('A' for Active; 'I' for Inactive)
REMARK    1  A    between atoms: C_6  and  C_7
REMARK    2  A    between atoms: C_7  and  C_8
REMARK    3  A    between atoms: C_8  and  O_10
REMARK    4  A    between atoms: O_10  and  C_11
REMARK    5  A    between atoms: C_18  and  N_33
REMARK    6  A    between atoms: C_19  and  C_31
REMARK    7  A    between atoms: C_20  and  C_22
REMARK    8  A    between atoms: C_25  and  N_28
REMARK                            x       y       z     vdW  Elec       q    Type
REMARK                         _______ _______ _______ _____ _____    ______ ____
ROOT
ATOM      1  C   UNL     1      -3.336  -1.919  -2.905  0.00  0.00    +0.135 A 
ATOM      2  C   UNL     1      -2.587  -1.511  -4.000  0.00  0.00    +0.047 A 
ATOM      3  C   UNL     1      -3.056  -1.736  -5.279  0.00  0.00    +0.012 A 
ATOM      4  C   UNL     1      -4.272  -2.367  -5.475  0.00  0.00    +0.008 A 
ATOM      5  C   UNL     1      -5.024  -2.776  -4.385  0.00  0.00    +0.138 A 
ATOM      6  C   UNL     1      -4.550  -2.556  -3.097  0.00  0.00    +0.093 A 
ATOM      7  O   UNL     1      -6.217  -3.396  -4.556  0.00  0.00    -0.441 OA
ATOM      8  C   UNL     1      -6.514  -3.963  -5.737  0.00  0.00    +0.199 C 
ATOM      9  C   UNL     1      -5.862  -3.630  -6.876  0.00  0.00    +0.098 C 
ATOM     10  C   UNL     1      -4.767  -2.602  -6.877  0.00  0.00    +0.098 C 
ENDROOT
BRANCH  10  11
ATOM     11  C   UNL     1      -5.296  -1.309  -7.443  0.00  0.00    -0.035 A 
ATOM     12  C   UNL     1      -6.342  -0.657  -6.818  0.00  0.00    +0.007 A 
ATOM     13  C   UNL     1      -6.827   0.528  -7.337  0.00  0.00    +0.033 A 
ATOM     14  C   UNL     1      -6.266   1.063  -8.481  0.00  0.00    +0.126 A 
ATOM     15  C   UNL     1      -5.218   0.412  -9.106  0.00  0.00    +0.033 A 
ATOM     16  C   UNL     1      -4.730  -0.771  -8.585  0.00  0.00    +0.007 A 
BRANCH  14  17
ATOM     17  N   UNL     1      -6.786   2.332  -9.037  0.00  0.00    +0.056 N 
ATOM     18  O   UNL     1      -7.702   2.901  -8.491  0.00  0.00    -0.126 OA
ATOM     19  O   UNL     1      -6.295   2.800 -10.038  0.00  0.00    -0.126 OA
ENDBRANCH  14  17
ENDBRANCH  10  11
BRANCH   8  20
ATOM     20  N   UNL     1      -7.508  -4.909  -5.791  0.00  0.00    -0.328 N 
ATOM     21  H   UNL     1      -7.984  -5.158  -4.984  0.00  0.00    +0.145 HD
ATOM     22  H   UNL     1      -7.734  -5.327  -6.636  0.00  0.00    +0.145 HD
ENDBRANCH   8  20
BRANCH   9  23
ATOM     23  C   UNL     1      -6.224  -4.271  -8.105  0.00  0.00    +0.101 C 
ATOM     24  N   UNL     1      -6.511  -4.779  -9.079  0.00  0.00    -0.191 NA
ENDBRANCH   9  23
BRANCH   1  25
ATOM     25  O   UNL     1      -2.875  -1.698  -1.645  0.00  0.00    -0.425 OA
BRANCH  25  26
ATOM     26  C   UNL     1      -2.981  -0.457  -1.143  0.00  0.00    +0.317 C 
ATOM     27  O   UNL     1      -3.392   0.442  -1.838  0.00  0.00    -0.250 OA
BRANCH  26  28
ATOM     28  C   UNL     1      -2.588  -0.186   0.286  0.00  0.00    +0.156 C 
BRANCH  28  34
ATOM     29  C   UNL     1      -4.018   1.704   1.093  0.00  0.00    +0.005 A 
ATOM     30  C   UNL     1      -4.213   3.042   1.379  0.00  0.00    +0.020 A 
ATOM     31  C   UNL     1      -3.191   3.950   1.169  0.00  0.00    +0.041 A 
ATOM     32  C   UNL     1      -1.974   3.518   0.674  0.00  0.00    +0.020 A 
ATOM     33  C   UNL     1      -1.779   2.180   0.388  0.00  0.00    +0.005 A 
ATOM     34  C   UNL     1      -2.801   1.273   0.598  0.00  0.00    -0.037 A 
ATOM     35 CL   UNL     1      -3.436   5.631   1.528  0.00  0.00    -0.084 Cl
ENDBRANCH  28  34
ENDBRANCH  26  28
ENDBRANCH  25  26
ENDBRANCH   1  25
TORSDOF 8
