REMARK  Name = ZINC33113924
REMARK  8 active torsions:
REMARK  status: ('A' for Active; 'I' for Inactive)
REMARK    1  A    between atoms: C_1  and  C_2
REMARK    2  A    between atoms: C_2  and  C_3
REMARK    3  A    between atoms: C_3  and  C_5
REMARK    4  A    between atoms: C_3  and  N_6
REMARK    5  A    between atoms: C_7  and  C_9
REMARK    6  A    between atoms: C_9  and  C_11
REMARK    7  A    between atoms: C_9  and  C_12
REMARK    8  A    between atoms: C_18  and  C_20
REMARK                            x       y       z     vdW  Elec       q    Type
REMARK                         _______ _______ _______ _____ _____    ______ ____
ROOT
ATOM      1  C   UNL     1      -5.165  -3.580  -0.737  0.00  0.00    +0.004 C 
ATOM      2  C   UNL     1      -4.279  -4.822  -0.861  0.00  0.00    +0.023 C 
ATOM      3  C   UNL     1      -3.192  -4.779   0.218  0.00  0.00    +0.108 C 
ATOM      4  N   UNL     1      -2.466  -3.506   0.107  0.00  0.00    -0.296 N 
ATOM      5  C   UNL     1      -3.231  -2.252   0.129  0.00  0.00    +0.108 C 
ATOM      6  C   UNL     1      -4.318  -2.324  -0.954  0.00  0.00    +0.023 C 
ATOM      7  C   UNL     1      -1.123  -3.490  -0.007  0.00  0.00    +0.263 C 
ATOM      8  O   UNL     1      -0.511  -4.532  -0.144  0.00  0.00    -0.268 OA
ENDROOT
BRANCH   7   9
ATOM      9  C   UNL     1      -0.398  -2.211   0.033  0.00  0.00    +0.103 A 
ATOM     10  C   UNL     1       0.824  -1.981  -0.515  0.00  0.00    +0.041 A 
ATOM     11  C   UNL     1       1.166  -0.632  -0.257  0.00  0.00    +0.002 A 
ATOM     12  C   UNL     1       2.281   0.156  -0.572  0.00  0.00    +0.030 A 
ATOM     13  C   UNL     1       2.324   1.462  -0.176  0.00  0.00    +0.042 A 
ATOM     14  C   UNL     1       1.270   2.019   0.539  0.00  0.00    +0.022 A 
ATOM     15  C   UNL     1       0.164   1.265   0.861  0.00  0.00    +0.027 A 
ATOM     16  C   UNL     1       0.097  -0.069   0.468  0.00  0.00    +0.047 A 
ATOM     17  N   UNL     1      -0.849  -1.053   0.635  0.00  0.00    -0.351 N 
ATOM     18  H   UNL     1      -1.828  -1.039   1.137  0.00  0.00    +0.166 HD
ATOM     19 CL   UNL     1       3.707   2.435  -0.569  0.00  0.00    -0.084 Cl
ENDBRANCH   7   9
BRANCH   1  20
ATOM     20  C   UNL     1      -6.272  -3.636  -1.790  0.00  0.00    +0.075 C 
ATOM     21  C   UNL     1      -7.120  -4.891  -1.573  0.00  0.00    +0.017 C 
BRANCH  20  23
ATOM     22  N   UNL     1      -8.192  -2.247  -2.500  0.00  0.00    -0.313 N 
ATOM     23  C   UNL     1      -7.145  -2.413  -1.669  0.00  0.00    +0.216 C 
ATOM     24  O   UNL     1      -6.904  -1.579  -0.822  0.00  0.00    -0.276 OA
ATOM     25  H   UNL     1      -8.410  -3.004  -3.268  0.00  0.00    +0.149 HD
BRANCH  22  26
ATOM     26  C   UNL     1      -9.040  -1.058  -2.382  0.00  0.00    +0.070 C 
ATOM     27  C   UNL     1     -10.112  -1.300  -1.317  0.00  0.00    +0.028 C 
BRANCH  26  29
ATOM     28  C   UNL     1      -8.646  -0.411  -4.763  0.00  0.00    +0.005 C 
ATOM     29  C   UNL     1      -9.712  -0.775  -3.727  0.00  0.00    +0.018 C 
ENDBRANCH  26  29
ENDBRANCH  22  26
ENDBRANCH  20  23
ENDBRANCH   1  20
TORSDOF 5
