REMARK  Name = ZINC06612853
REMARK  6 active torsions:
REMARK  status: ('A' for Active; 'I' for Inactive)
REMARK    1  A    between atoms: C_1  and  C_2
REMARK    2  A    between atoms: C_2  and  O_3
REMARK    3  A    between atoms: O_3  and  C_4
REMARK    4  A    between atoms: C_4  and  C_6
REMARK    5  A    between atoms: C_12  and  C_13
REMARK    6  A    between atoms: C_12  and  N_48
REMARK                            x       y       z     vdW  Elec       q    Type
REMARK                         _______ _______ _______ _____ _____    ______ ____
ROOT
ATOM      1  C   UNL     1      -0.742   1.585  -1.213  0.00  0.00    +0.094 A 
ATOM      2  N   UNL     1      -0.271   1.267  -2.446  0.00  0.00    -0.312 N 
ATOM      3  H   UNL     1       0.555   0.709  -2.526  0.00  0.00    +0.170 HD
ATOM      4  C   UNL     1      -0.894   1.688  -3.563  0.00  0.00    +0.260 A 
ATOM      5  O   UNL     1      -0.464   1.390  -4.664  0.00  0.00    -0.267 OA
ATOM      6  C   UNL     1      -2.070   2.497  -3.434  0.00  0.00    +0.075 A 
ATOM      7  C   UNL     1      -2.900   3.068  -4.505  0.00  0.00    -0.023 A 
ATOM      8  C   UNL     1      -3.961   3.801  -4.126  0.00  0.00    -0.004 A 
ATOM      9  S   UNL     1      -3.925   3.774  -2.348  0.00  0.00    -0.073 S 
ATOM     10  C   UNL     1      -2.477   2.777  -2.123  0.00  0.00    +0.116 A 
ATOM     11  N   UNL     1      -1.811   2.320  -1.065  0.00  0.00    -0.229 NA
ATOM     12  C   UNL     1      -4.731   4.336  -5.303  0.00  0.00    +0.043 C 
ATOM     13  C   UNL     1      -3.761   4.198  -6.496  0.00  0.00    +0.010 C 
ATOM     14  C   UNL     1      -2.860   3.035  -6.035  0.00  0.00    +0.037 C 
ENDROOT
BRANCH   1  15
ATOM     15  C   UNL     1      -0.013   1.086   0.008  0.00  0.00    -0.003 C 
BRANCH  15  21
ATOM     16  C   UNL     1      -0.998   1.311   3.635  0.00  0.00    +0.081 C 
ATOM     17  C   UNL     1      -0.950   2.833   3.797  0.00  0.00    +0.011 C 
ATOM     18  C   UNL     1      -1.466   3.491   2.514  0.00  0.00    -0.018 C 
ATOM     19  C   UNL     1      -0.620   3.022   1.329  0.00  0.00    -0.078 C 
ATOM     20  C   UNL     1      -0.165   0.905   2.417  0.00  0.00    -0.064 C 
ATOM     21  N   UNL     1      -0.729   1.552   1.213  0.00  0.00    +0.385 N 
ATOM     22  H   UNL     1      -1.720   1.297   1.131  0.00  0.00    -0.081 HD
BRANCH  16  23
ATOM     23  C   UNL     1      -0.436   0.655   4.870  0.00  0.00    +0.308 C 
ATOM     24  O   UNL     1       0.531  -0.064   4.785  0.00  0.00    -0.251 OA
BRANCH  23  25
ATOM     25  O   UNL     1      -1.011   0.869   6.064  0.00  0.00    -0.465 OA
BRANCH  25  27
ATOM     26  C   UNL     1      -1.201   0.566   8.473  0.00  0.00    +0.048 C 
ATOM     27  C   UNL     1      -0.416   0.205   7.210  0.00  0.00    +0.229 C 
ENDBRANCH  25  27
ENDBRANCH  23  25
ENDBRANCH  16  23
ENDBRANCH  15  21
ENDBRANCH   1  15
TORSDOF 5
