REMARK  Name = ZINC14477944
REMARK  7 active torsions:
REMARK  status: ('A' for Active; 'I' for Inactive)
REMARK    1  A    between atoms: C_4  and  C_7
REMARK    2  A    between atoms: C_7  and  C_8
REMARK    3  A    between atoms: C_8  and  N_9
REMARK    4  A    between atoms: N_9  and  S_10
REMARK    5  A    between atoms: S_10  and  C_13
REMARK    6  A    between atoms: C_26  and  C_29
REMARK    7  A    between atoms: C_34  and  N_35
REMARK                            x       y       z     vdW  Elec       q    Type
REMARK                         _______ _______ _______ _____ _____    ______ ____
ROOT
ATOM      1  C   UNL     1       1.171   1.821   0.130  0.00  0.00    +0.106 A 
ATOM      2  C   UNL     1       1.137   3.203   0.183  0.00  0.00    +0.030 A 
ATOM      3  C   UNL     1      -0.072   3.868   0.171  0.00  0.00    +0.025 A 
ATOM      4  C   UNL     1      -1.264   3.155   0.110  0.00  0.00    +0.031 A 
ATOM      5  C   UNL     1      -1.222   1.758   0.064  0.00  0.00    -0.018 A 
ATOM      6  C   UNL     1      -0.009   1.103   0.072  0.00  0.00    +0.034 A 
ATOM      7  C   UNL     1      -2.513   1.037   0.048  0.00  0.00    +0.049 C 
ATOM      8  C   UNL     1      -2.674  -0.331  -0.533  0.00  0.00    -0.023 C 
ATOM      9  C   UNL     1      -3.891  -0.445  -1.051  0.00  0.00    -0.030 C 
ATOM     10  C   UNL     1      -4.663   0.863  -0.866  0.00  0.00    +0.033 C 
ATOM     11  C   UNL     1      -3.521   1.885  -0.783  0.00  0.00    +0.029 C 
ATOM     12  C   UNL     1      -3.772   3.137   0.039  0.00  0.00    +0.107 C 
ATOM     13  N   UNL     1      -2.478   3.852   0.079  0.00  0.00    -0.336 N 
ATOM     14  H   UNL     1      -2.470   4.822   0.084  0.00  0.00    +0.147 HD
ENDROOT
BRANCH  12  15
ATOM     15  C   UNL     1      -4.820   3.994  -0.623  0.00  0.00    +0.003 A 
ATOM     16  C   UNL     1      -5.202   3.735  -1.926  0.00  0.00    +0.008 A 
ATOM     17  C   UNL     1      -6.167   4.517  -2.531  0.00  0.00    +0.000 A 
ATOM     18  C   UNL     1      -6.742   5.566  -1.838  0.00  0.00    +0.002 A 
ATOM     19  C   UNL     1      -6.357   5.828  -0.537  0.00  0.00    +0.033 A 
ATOM     20  C   UNL     1      -5.395   5.042   0.071  0.00  0.00    +0.131 A 
BRANCH  20  21
ATOM     21  N   UNL     1      -4.981   5.322   1.464  0.00  0.00    +0.057 N 
ATOM     22  O   UNL     1      -5.560   6.177   2.111  0.00  0.00    -0.126 OA
ATOM     23  O   UNL     1      -4.063   4.699   1.964  0.00  0.00    -0.126 OA
ENDBRANCH  20  21
ENDBRANCH  12  15
BRANCH   1  24
ATOM     24  S   UNL     1       2.717   0.977   0.135  0.00  0.00    +0.058 S 
ATOM     25  O   UNL     1       3.656   1.853   0.744  0.00  0.00    -0.153 OA
ATOM     26  O   UNL     1       2.464  -0.331   0.628  0.00  0.00    -0.153 OA
BRANCH  24  27
ATOM     27  N   UNL     1       3.186   0.804  -1.444  0.00  0.00    -0.190 NA
ATOM     28  H   UNL     1       3.254  -0.080  -1.836  0.00  0.00    +0.148 HD
BRANCH  27  29
ATOM     29  C   UNL     1       3.498   1.988  -2.249  0.00  0.00    +0.110 C 
BRANCH  29  30
ATOM     30  C   UNL     1       4.247   1.562  -3.513  0.00  0.00    +0.052 C 
BRANCH  30  34
ATOM     31  C   UNL     1       5.158   5.012  -5.861  0.00  0.00    +0.000 A 
ATOM     32  C   UNL     1       6.052   4.573  -4.903  0.00  0.00    +0.000 A 
ATOM     33  C   UNL     1       5.758   3.456  -4.143  0.00  0.00    +0.003 A 
ATOM     34  C   UNL     1       4.569   2.779  -4.341  0.00  0.00    -0.046 A 
ATOM     35  C   UNL     1       3.677   3.216  -5.303  0.00  0.00    +0.003 A 
ATOM     36  C   UNL     1       3.969   4.335  -6.059  0.00  0.00    +0.000 A 
ENDBRANCH  30  34
ENDBRANCH  29  30
ENDBRANCH  27  29
ENDBRANCH  24  27
ENDBRANCH   1  24
TORSDOF 7
