REMARK  Name = ZINC39675269
REMARK  12 active torsions:
REMARK  status: ('A' for Active; 'I' for Inactive)
REMARK    1  A    between atoms: C_1  and  C_2
REMARK    2  A    between atoms: C_2  and  C_3
REMARK    3  A    between atoms: C_3  and  C_5
REMARK    4  A    between atoms: C_3  and  C_6
REMARK    5  A    between atoms: C_10  and  C_19
REMARK    6  A    between atoms: N_21  and  C_22
REMARK    7  A    between atoms: C_22  and  C_24
REMARK    8  A    between atoms: C_22  and  C_25
REMARK    9  A    between atoms: C_25  and  C_26
REMARK   10  A    between atoms: C_26  and  C_27
REMARK   11  A    between atoms: C_30  and  O_33
REMARK   12  A    between atoms: O_33  and  C_34
REMARK                            x       y       z     vdW  Elec       q    Type
REMARK                         _______ _______ _______ _____ _____    ______ ____
ROOT
ATOM      1  C   UNL     1      -1.554  -1.766   0.030  0.00  0.00    +0.218 C 
ATOM      2  O   UNL     1      -0.449  -2.264  -0.020  0.00  0.00    -0.275 OA
ATOM      3  N   UNL     1      -2.649  -2.549  -0.037  0.00  0.00    -0.300 N 
ATOM      4  C   UNL     1      -4.069  -2.128   0.001  0.00  0.00    +0.121 C 
ATOM      5  C   UNL     1      -4.774  -3.040  -1.029  0.00  0.00    +0.100 C 
ATOM      6  C   UNL     1      -3.875  -4.283  -1.132  0.00  0.00    -0.004 C 
ATOM      7  C   UNL     1      -2.705  -4.024  -0.172  0.00  0.00    +0.115 C 
ATOM      8  C   UNL     1      -3.354  -4.442  -2.558  0.00  0.00    -0.010 C 
ATOM      9  C   UNL     1      -2.509  -5.716  -2.649  0.00  0.00    -0.082 C 
ATOM     10  N   UNL     1      -3.327  -6.875  -2.273  0.00  0.00    +0.379 N 
ATOM     11  C   UNL     1      -3.747  -6.759  -0.871  0.00  0.00    -0.082 C 
ATOM     12  C   UNL     1      -4.644  -5.529  -0.705  0.00  0.00    -0.010 C 
ATOM     13  H   UNL     1      -4.143  -6.915  -2.865  0.00  0.00    -0.086 HD
ATOM     14  H   UNL     1      -2.787  -7.719  -2.392  0.00  0.00    -0.086 HD
ENDROOT
BRANCH   5  15
ATOM     15  C   UNL     1      -4.871  -2.347  -2.364  0.00  0.00    +0.218 C 
ATOM     16  O   UNL     1      -4.021  -1.548  -2.695  0.00  0.00    -0.275 OA
ATOM     17  N   UNL     1      -5.902  -2.615  -3.189  0.00  0.00    -0.312 N 
ATOM     18  H   UNL     1      -6.582  -3.254  -2.924  0.00  0.00    +0.149 HD
BRANCH  17  19
ATOM     19  C   UNL     1      -5.996  -1.942  -4.487  0.00  0.00    +0.070 C 
ATOM     20  C   UNL     1      -5.162  -2.704  -5.519  0.00  0.00    +0.028 C 
BRANCH  19  21
ATOM     21  C   UNL     1      -7.457  -1.905  -4.938  0.00  0.00    +0.026 C 
BRANCH  21  22
ATOM     22  C   UNL     1      -8.268  -1.038  -3.972  0.00  0.00    +0.037 C 
BRANCH  22  23
ATOM     23  C   UNL     1      -9.707  -1.003  -4.417  0.00  0.00    -0.047 A 
ATOM     24  C   UNL     1     -10.134  -0.025  -5.296  0.00  0.00    +0.007 A 
ATOM     25  C   UNL     1     -11.453   0.010  -5.705  0.00  0.00    +0.046 A 
ATOM     26  C   UNL     1     -12.350  -0.937  -5.232  0.00  0.00    +0.120 A 
ATOM     27  C   UNL     1     -11.919  -1.917  -4.349  0.00  0.00    +0.046 A 
ATOM     28  C   UNL     1     -10.598  -1.951  -3.948  0.00  0.00    +0.007 A 
BRANCH  26  29
ATOM     29  O   UNL     1     -13.649  -0.904  -5.632  0.00  0.00    -0.495 OA
ATOM     30  C   UNL     1     -14.515  -1.910  -5.104  0.00  0.00    +0.277 C 
ENDBRANCH  26  29
ENDBRANCH  22  23
ENDBRANCH  21  22
ENDBRANCH  19  21
ENDBRANCH  17  19
ENDBRANCH   5  15
BRANCH   1  31
ATOM     31  C   UNL     1      -1.702  -0.273   0.168  0.00  0.00    +0.072 C 
ATOM     32  C   UNL     1      -2.465   0.048   1.455  0.00  0.00    +0.017 C 
BRANCH  31  34
ATOM     33  C   UNL     1      -0.466   1.897   0.236  0.00  0.00    +0.004 C 
ATOM     34  C   UNL     1      -0.317   0.375   0.222  0.00  0.00    +0.009 C 
ENDBRANCH  31  34
ENDBRANCH   1  31
TORSDOF 8
