REMARK  Name = ZINC01064053
REMARK  3 active torsions:
REMARK  status: ('A' for Active; 'I' for Inactive)
REMARK    1  A    between atoms: C_11  and  C_26
REMARK    2  A    between atoms: C_16  and  C_18
REMARK    3  A    between atoms: C_29  and  N_32
REMARK                            x       y       z     vdW  Elec       q    Type
REMARK                         _______ _______ _______ _____ _____    ______ ____
ROOT
ATOM      1  C   UNL     1      -1.759   2.139   5.273  0.00  0.00    +0.001 A 
ATOM      2  C   UNL     1      -0.535   1.502   5.150  0.00  0.00    +0.002 A 
ATOM      3  C   UNL     1      -0.015   1.132   3.921  0.00  0.00    +0.026 A 
ATOM      4  C   UNL     1      -0.782   1.430   2.796  0.00  0.00    +0.047 A 
ATOM      5  C   UNL     1      -2.034   2.082   2.928  0.00  0.00    +0.003 A 
ATOM      6  C   UNL     1      -2.535   2.445   4.182  0.00  0.00    +0.010 A 
ATOM      7  C   UNL     1      -2.552   2.232   1.583  0.00  0.00    -0.015 A 
ATOM      8  C   UNL     1      -1.637   1.696   0.747  0.00  0.00    +0.046 A 
ATOM      9  N   UNL     1      -0.575   1.212   1.465  0.00  0.00    -0.356 N 
ATOM     10  H   UNL     1       0.206   0.780   1.084  0.00  0.00    +0.166 HD
ATOM     11  C   UNL     1      -1.801   1.657  -0.756  0.00  0.00    +0.153 C 
ATOM     12  N   UNL     1      -3.193   2.031  -1.059  0.00  0.00    -0.285 N 
ATOM     13  C   UNL     1      -3.776   3.180  -0.348  0.00  0.00    +0.114 C 
ATOM     14  C   UNL     1      -3.855   2.852   1.148  0.00  0.00    +0.056 C 
ATOM     15  C   UNL     1      -3.914   1.340  -1.964  0.00  0.00    +0.247 C 
ATOM     16  O   UNL     1      -5.010   1.741  -2.303  0.00  0.00    -0.270 OA
ENDROOT
BRANCH  15  17
ATOM     17  C   UNL     1      -3.371   0.094  -2.544  0.00  0.00    +0.040 A 
ATOM     18  C   UNL     1      -3.672  -0.254  -3.862  0.00  0.00    +0.016 A 
ATOM     19  C   UNL     1      -3.164  -1.418  -4.399  0.00  0.00    +0.042 A 
ATOM     20  C   UNL     1      -2.355  -2.243  -3.634  0.00  0.00    +0.158 A 
ATOM     21  C   UNL     1      -2.052  -1.902  -2.322  0.00  0.00    +0.159 A 
ATOM     22  C   UNL     1      -2.551  -0.736  -1.777  0.00  0.00    +0.054 A 
ATOM     23  F   UNL     1      -1.263  -2.710  -1.581  0.00  0.00    -0.202 F 
ATOM     24  F   UNL     1      -1.860  -3.381  -4.166  0.00  0.00    -0.202 F 
ENDBRANCH  15  17
BRANCH  11  25
ATOM     25  C   UNL     1      -0.855   2.638  -1.400  0.00  0.00    -0.021 A 
ATOM     26  C   UNL     1       0.039   2.206  -2.361  0.00  0.00    +0.008 A 
ATOM     27  C   UNL     1       0.903   3.107  -2.956  0.00  0.00    +0.033 A 
ATOM     28  C   UNL     1       0.875   4.438  -2.585  0.00  0.00    +0.126 A 
ATOM     29  C   UNL     1      -0.016   4.869  -1.621  0.00  0.00    +0.033 A 
ATOM     30  C   UNL     1      -0.880   3.968  -1.027  0.00  0.00    +0.008 A 
BRANCH  28  31
ATOM     31  N   UNL     1       1.800   5.403  -3.222  0.00  0.00    +0.056 N 
ATOM     32  O   UNL     1       2.586   5.023  -4.072  0.00  0.00    -0.126 OA
ATOM     33  O   UNL     1       1.776   6.576  -2.896  0.00  0.00    -0.126 OA
ENDBRANCH  28  31
ENDBRANCH  11  25
TORSDOF 3
