REMARK  Name = ZINC19499540
REMARK  11 active torsions:
REMARK  status: ('A' for Active; 'I' for Inactive)
REMARK    1  A    between atoms: C_1  and  C_2
REMARK    2  A    between atoms: C_2  and  C_3
REMARK    3  A    between atoms: C_3  and  C_4
REMARK    4  A    between atoms: C_3  and  C_5
REMARK    5  A    between atoms: C_3  and  N_6
REMARK    6  A    between atoms: C_7  and  C_11
REMARK    7  A    between atoms: C_11  and  C_13
REMARK    8  A    between atoms: C_11  and  N_27
REMARK    9  A    between atoms: C_16  and  C_26
REMARK   10  A    between atoms: C_19  and  C_25
REMARK   11  A    between atoms: N_30  and  C_33
REMARK                            x       y       z     vdW  Elec       q    Type
REMARK                         _______ _______ _______ _____ _____    ______ ____
ROOT
ATOM      1  C   UNL     1       2.524   1.007  -0.060  0.00  0.00    +0.162 C 
ENDROOT
BRANCH   1   2
ATOM      2  C   UNL     1       1.325   1.907  -0.217  0.00  0.00    +0.042 A 
ATOM      3  C   UNL     1       0.078   1.375  -0.223  0.00  0.00    +0.021 A 
ATOM      4  C   UNL     1      -1.065   2.276  -0.384  0.00  0.00    +0.002 A 
ATOM      5  C   UNL     1      -2.376   1.787  -0.392  0.00  0.00    -0.041 A 
ATOM      6  C   UNL     1      -3.421   2.654  -0.538  0.00  0.00    +0.004 A 
ATOM      7  C   UNL     1      -3.195   4.017  -0.673  0.00  0.00    +0.005 A 
ATOM      8  C   UNL     1      -1.912   4.522  -0.663  0.00  0.00    -0.026 A 
ATOM      9  C   UNL     1      -0.832   3.658  -0.515  0.00  0.00    +0.052 A 
ATOM     10  N   UNL     1       0.462   4.135  -0.501  0.00  0.00    -0.322 N 
ATOM     11  H   UNL     1       0.651   5.213  -0.608  0.00  0.00    +0.169 HD
ATOM     12  C   UNL     1       1.505   3.300  -0.359  0.00  0.00    +0.254 A 
ATOM     13  O   UNL     1       2.635   3.756  -0.351  0.00  0.00    -0.268 OA
ATOM     14  C   UNL     1      -1.681   6.003  -0.811  0.00  0.00    +0.046 C 
ATOM     15  C   UNL     1      -2.633   0.309  -0.246  0.00  0.00    +0.044 C 
ENDBRANCH   1   2
BRANCH   1  16
ATOM     16  N   UNL     1       3.450   1.225  -1.179  0.00  0.00    -0.292 NA
ATOM     17  C   UNL     1       2.777   1.014  -2.469  0.00  0.00    +0.067 C 
ATOM     18  C   UNL     1       3.751   1.327  -3.607  0.00  0.00    -0.063 C 
ATOM     19  N   UNL     1       4.935   0.465  -3.487  0.00  0.00    +0.383 N 
ATOM     20  C   UNL     1       5.608   0.676  -2.197  0.00  0.00    -0.063 C 
ATOM     21  C   UNL     1       4.634   0.362  -1.059  0.00  0.00    +0.067 C 
ATOM     22  H   UNL     1       4.598  -0.582  -3.527  0.00  0.00    -0.081 HD
BRANCH  19  23
ATOM     23  C   UNL     1       5.861   0.682  -4.606  0.00  0.00    -0.068 C 
ATOM     24  C   UNL     1       6.293   2.150  -4.632  0.00  0.00    -0.015 C 
ATOM     25  C   UNL     1       7.258   2.377  -5.798  0.00  0.00    -0.002 C 
ATOM     26  C   UNL     1       6.559   2.028  -7.113  0.00  0.00    -0.000 C 
ATOM     27  C   UNL     1       6.126   0.561  -7.087  0.00  0.00    -0.002 C 
ATOM     28  C   UNL     1       5.162   0.334  -5.922  0.00  0.00    -0.015 C 
ENDBRANCH  19  23
ENDBRANCH   1  16
BRANCH   1  30
ATOM     29  N   UNL     1       3.277   0.539   2.331  0.00  0.00    -0.222 N 
ATOM     30  C   UNL     1       3.222   1.322   1.238  0.00  0.00    +0.174 A 
ATOM     31  N   UNL     1       3.898   2.410   1.519  0.00  0.00    -0.111 NA
ATOM     32  N   UNL     1       4.338   2.304   2.725  0.00  0.00    -0.023 NA
ATOM     33  N   UNL     1       3.967   1.173   3.218  0.00  0.00    -0.043 NA
BRANCH  29  34
ATOM     34  C   UNL     1       2.668  -0.784   2.486  0.00  0.00    +0.062 C 
ATOM     35  C   UNL     1       1.162  -0.685   2.235  0.00  0.00    +0.036 C 
ATOM     36  C   UNL     1       3.290  -1.752   1.478  0.00  0.00    +0.036 C 
BRANCH  34  38
ATOM     37  C   UNL     1       2.280  -2.679   4.067  0.00  0.00    +0.006 C 
ATOM     38  C   UNL     1       2.916  -1.297   3.906  0.00  0.00    +0.026 C 
ENDBRANCH  34  38
ENDBRANCH  29  34
ENDBRANCH   1  30
TORSDOF 6
