REMARK  Name = ZINC35966546
REMARK  14 active torsions:
REMARK  status: ('A' for Active; 'I' for Inactive)
REMARK    1  A    between atoms: C_1  and  C_2
REMARK    2  A    between atoms: C_2  and  N_3
REMARK    3  A    between atoms: C_6  and  C_11
REMARK    4  A    between atoms: C_16  and  C_17
REMARK    5  A    between atoms: N_23  and  C_25
REMARK    6  A    between atoms: C_25  and  C_27
REMARK    7  A    between atoms: C_25  and  C_30
REMARK    8  A    between atoms: C_27  and  C_28
REMARK    9  A    between atoms: C_27  and  C_29
REMARK   10  A    between atoms: N_32  and  C_33
REMARK   11  A    between atoms: C_33  and  C_34
REMARK   12  A    between atoms: C_34  and  N_35
REMARK   13  A    between atoms: N_35  and  C_36
REMARK   14  A    between atoms: N_35  and  C_37
REMARK                            x       y       z     vdW  Elec       q    Type
REMARK                         _______ _______ _______ _____ _____    ______ ____
ROOT
ATOM      1  N   UNL     1      -1.228  -0.761  -1.584  0.00  0.00    -0.257 N 
ATOM      2  C   UNL     1      -1.374  -1.241  -2.854  0.00  0.00    +0.042 C 
ATOM      3  C   UNL     1      -0.334  -1.784  -3.519  0.00  0.00    +0.058 C 
ATOM      4  C   UNL     1       1.004  -1.842  -2.809  0.00  0.00    +0.142 C 
ATOM      5  N   UNL     1       1.057  -1.298  -1.442  0.00  0.00    -0.288 N 
ATOM      6  C   UNL     1      -0.069  -0.782  -0.912  0.00  0.00    +0.307 C 
ATOM      7  O   UNL     1      -0.034  -0.327   0.215  0.00  0.00    -0.252 OA
ATOM      8  C   UNL     1      -0.739  -2.203  -4.803  0.00  0.00    +0.247 C 
ATOM      9  O   UNL     1      -0.003  -2.728  -5.619  0.00  0.00    -0.270 OA
ATOM     10  N   UNL     1      -2.043  -1.948  -5.009  0.00  0.00    -0.280 N 
ATOM     11  C   UNL     1      -2.561  -1.314  -3.787  0.00  0.00    +0.160 C 
ATOM     12  H   UNL     1       1.885  -1.307  -0.936  0.00  0.00    +0.151 HD
ENDROOT
BRANCH   4  13
ATOM     13  C   UNL     1       2.007  -1.092  -3.647  0.00  0.00    -0.011 A 
ATOM     14  C   UNL     1       1.951   0.287  -3.724  0.00  0.00    +0.006 A 
ATOM     15  C   UNL     1       2.871   0.975  -4.492  0.00  0.00    +0.000 A 
ATOM     16  C   UNL     1       3.849   0.284  -5.183  0.00  0.00    +0.001 A 
ATOM     17  C   UNL     1       3.906  -1.095  -5.106  0.00  0.00    +0.013 A 
ATOM     18  C   UNL     1       2.988  -1.783  -4.334  0.00  0.00    +0.060 A 
BRANCH  18  19
ATOM     19  C   UNL     1       3.054  -3.286  -4.245  0.00  0.00    +0.418 C 
ATOM     20  F   UNL     1       4.079  -3.757  -5.072  0.00  0.00    -0.166 F 
ATOM     21  F   UNL     1       3.309  -3.664  -2.923  0.00  0.00    -0.166 F 
ATOM     22  F   UNL     1       1.833  -3.831  -4.659  0.00  0.00    -0.166 F 
ENDBRANCH  18  19
ENDBRANCH   4  13
BRANCH   1  24
ATOM     23  C   UNL     1      -2.475   1.313  -1.228  0.00  0.00    +0.025 C 
ATOM     24  C   UNL     1      -2.401  -0.185  -0.922  0.00  0.00    +0.111 C 
ENDBRANCH   1  24
BRANCH  10  25
ATOM     25  C   UNL     1      -2.806  -2.246  -6.224  0.00  0.00    +0.165 C 
BRANCH  25  26
ATOM     26  C   UNL     1      -2.773  -3.729  -6.487  0.00  0.00    +0.234 C 
ATOM     27  O   UNL     1      -1.936  -4.422  -5.947  0.00  0.00    -0.274 OA
ATOM     28  N   UNL     1      -3.672  -4.286  -7.322  0.00  0.00    -0.316 N 
ATOM     29  H   UNL     1      -4.285  -3.722  -7.821  0.00  0.00    +0.149 HD
BRANCH  28  30
ATOM     30  C   UNL     1      -3.725  -5.742  -7.476  0.00  0.00    +0.085 C 
BRANCH  30  31
ATOM     31  C   UNL     1      -4.826  -6.109  -8.474  0.00  0.00    -0.061 C 
BRANCH  31  32
ATOM     32  N   UNL     1      -4.879  -7.569  -8.629  0.00  0.00    +0.377 N 
ATOM     33  C   UNL     1      -6.011  -7.928  -9.493  0.00  0.00    -0.097 C 
ATOM     34  C   UNL     1      -3.629  -8.043  -9.237  0.00  0.00    -0.097 C 
ATOM     35  H   UNL     1      -4.997  -7.999  -7.724  0.00  0.00    -0.083 HD
ENDBRANCH  31  32
ENDBRANCH  30  31
ENDBRANCH  28  30
ENDBRANCH  25  26
BRANCH  25  36
ATOM     36  C   UNL     1      -2.187  -1.503  -7.409  0.00  0.00    +0.012 C 
ATOM     37  C   UNL     1      -3.055  -1.712  -8.652  0.00  0.00    +0.009 C 
ATOM     38  C   UNL     1      -2.105  -0.009  -7.089  0.00  0.00    +0.009 C 
ENDBRANCH  25  36
ENDBRANCH  10  25
TORSDOF 9
