REMARK  Name = ZINC22077503
REMARK  3 active torsions:
REMARK  status: ('A' for Active; 'I' for Inactive)
REMARK    1  A    between atoms: C_4  and  C_7
REMARK    2  A    between atoms: C_15  and  N_17
REMARK    3  A    between atoms: N_17  and  C_18
REMARK                            x       y       z     vdW  Elec       q    Type
REMARK                         _______ _______ _______ _____ _____    ______ ____
ROOT
ATOM      1  C   UNL     1       0.569  -1.795  -5.247  0.00  0.00    +0.162 A 
ATOM      2  N   UNL     1       0.215  -1.054  -6.281  0.00  0.00    -0.227 NA
ATOM      3  C   UNL     1      -0.184   0.212  -6.103  0.00  0.00    +0.077 A 
ATOM      4  C   UNL     1      -0.566   1.028  -7.178  0.00  0.00    +0.028 A 
ATOM      5  C   UNL     1      -0.964   2.310  -6.943  0.00  0.00    +0.002 A 
ATOM      6  C   UNL     1      -0.999   2.824  -5.650  0.00  0.00    +0.001 A 
ATOM      7  C   UNL     1      -0.635   2.058  -4.581  0.00  0.00    +0.013 A 
ATOM      8  C   UNL     1      -0.226   0.737  -4.787  0.00  0.00    +0.040 A 
ATOM      9  C   UNL     1       0.170  -0.103  -3.716  0.00  0.00    +0.131 A 
ATOM     10  N   UNL     1       0.549  -1.341  -3.996  0.00  0.00    -0.212 NA
ENDROOT
BRANCH   1  14
ATOM     11  C   UNL     1       1.821  -5.797  -5.944  0.00  0.00    +0.000 A 
ATOM     12  C   UNL     1       1.445  -4.998  -7.008  0.00  0.00    +0.001 A 
ATOM     13  C   UNL     1       1.037  -3.698  -6.788  0.00  0.00    +0.011 A 
ATOM     14  C   UNL     1       1.005  -3.191  -5.490  0.00  0.00    +0.019 A 
ATOM     15  C   UNL     1       1.391  -3.999  -4.422  0.00  0.00    +0.011 A 
ATOM     16  C   UNL     1       1.791  -5.300  -4.653  0.00  0.00    +0.001 A 
ENDBRANCH   1  14
BRANCH   9  17
ATOM     17  N   UNL     1       0.154   0.355  -2.416  0.00  0.00    -0.317 N 
ATOM     18  H   UNL     1      -0.164   1.385  -2.199  0.00  0.00    +0.148 HD
BRANCH  17  19
ATOM     19  C   UNL     1       0.560  -0.531  -1.322  0.00  0.00    +0.158 C 
ATOM     20  C   UNL     1       0.076   0.042   0.012  0.00  0.00    +0.032 C 
ATOM     21  C   UNL     1       0.125   1.559  -0.006  0.00  0.00    +0.004 C 
ATOM     22  C   UNL     1       1.531   2.127  -0.077  0.00  0.00    +0.019 C 
ATOM     23  C   UNL     1       2.183   1.799  -1.421  0.00  0.00    +0.104 C 
ATOM     24  N   UNL     1       2.817   0.474  -1.327  0.00  0.00    -0.314 N 
ATOM     25  C   UNL     1       2.071  -0.631  -1.282  0.00  0.00    +0.233 C 
ATOM     26  O   UNL     1       2.603  -1.718  -1.210  0.00  0.00    -0.274 OA
ATOM     27  H   UNL     1       3.914   0.390  -1.293  0.00  0.00    +0.149 HD
ENDBRANCH  17  19
ENDBRANCH   9  17
TORSDOF 3
