REMARK  Name = ZINC20881912
REMARK  7 active torsions:
REMARK  status: ('A' for Active; 'I' for Inactive)
REMARK    1  A    between atoms: C_1  and  C_2
REMARK    2  A    between atoms: C_2  and  C_3
REMARK    3  A    between atoms: C_3  and  O_4
REMARK    4  A    between atoms: O_4  and  C_5
REMARK    5  A    between atoms: C_8  and  C_11
REMARK    6  A    between atoms: C_16  and  C_22
REMARK    7  A    between atoms: C_25  and  O_28
REMARK                            x       y       z     vdW  Elec       q    Type
REMARK                         _______ _______ _______ _____ _____    ______ ____
ROOT
ATOM      1  C   UNL     1      -2.553   3.867   0.046  0.00  0.00    +0.032 C 
ATOM      2  C   UNL     1      -3.374   3.477  -1.185  0.00  0.00    +0.059 C 
ATOM      3  C   UNL     1      -4.711   4.173  -1.144  0.00  0.00    +0.018 C 
ATOM      4  C   UNL     1      -5.301   4.469   0.034  0.00  0.00    +0.020 C 
ATOM      5  C   UNL     1      -6.646   5.156   0.051  0.00  0.00    +0.063 C 
ATOM      6  C   UNL     1      -6.731   6.135  -1.122  0.00  0.00    +0.109 C 
ATOM      7  C   UNL     1      -6.284   5.437  -2.381  0.00  0.00    +0.218 C 
ATOM      8  O   UNL     1      -6.793   5.722  -3.443  0.00  0.00    -0.275 OA
ATOM      9  N   UNL     1      -5.322   4.499  -2.328  0.00  0.00    -0.289 N 
ATOM     10  C   UNL     1      -4.689   4.151   1.258  0.00  0.00    +0.162 C 
ATOM     11  O   UNL     1      -5.257   4.422   2.298  0.00  0.00    -0.292 OA
ATOM     12  C   UNL     1      -3.343   3.480   1.302  0.00  0.00    +0.088 C 
ATOM     13  H   UNL     1      -5.028   3.989  -3.257  0.00  0.00    +0.155 HD
ENDROOT
BRANCH   1  17
ATOM     14  C   UNL     1       1.179   1.786   0.000  0.00  0.00    +0.121 A 
ATOM     15  C   UNL     1      -0.013   1.076   0.008  0.00  0.00    +0.046 A 
ATOM     16  C   UNL     1      -1.218   1.751   0.017  0.00  0.00    +0.007 A 
ATOM     17  C   UNL     1      -1.237   3.133   0.030  0.00  0.00    -0.043 A 
ATOM     18  C   UNL     1      -0.051   3.844   0.023  0.00  0.00    +0.007 A 
ATOM     19  C   UNL     1       1.157   3.174   0.008  0.00  0.00    +0.046 A 
BRANCH  14  20
ATOM     20  O   UNL     1       2.366   1.125  -0.015  0.00  0.00    -0.492 OA
BRANCH  20  21
ATOM     21  C   UNL     1       3.553   1.921  -0.022  0.00  0.00    +0.229 C 
BRANCH  21  23
ATOM     22  C   UNL     1       6.050   1.860  -0.047  0.00  0.00    +0.007 C 
ATOM     23  C   UNL     1       4.780   1.007  -0.039  0.00  0.00    +0.038 C 
ENDBRANCH  21  23
ENDBRANCH  20  21
ENDBRANCH  14  20
ENDBRANCH   1  17
BRANCH   5  24
ATOM     24  C   UNL     1      -7.739   4.125  -0.074  0.00  0.00    -0.039 A 
ATOM     25  C   UNL     1      -7.797   3.313  -1.192  0.00  0.00    +0.008 A 
ATOM     26  C   UNL     1      -8.794   2.364  -1.306  0.00  0.00    +0.045 A 
ATOM     27  C   UNL     1      -9.744   2.233  -0.303  0.00  0.00    +0.117 A 
ATOM     28  C   UNL     1      -9.686   3.053   0.815  0.00  0.00    +0.045 A 
ATOM     29  C   UNL     1      -8.684   3.997   0.927  0.00  0.00    +0.008 A 
BRANCH  27  30
ATOM     30  O   UNL     1     -10.729   1.304  -0.415  0.00  0.00    -0.507 OA
ATOM     31  H   UNL     1     -11.481   1.201   0.380  0.00  0.00    +0.292 HD
ENDBRANCH  27  30
ENDBRANCH   5  24
TORSDOF 6
