REMARK  Name = ZINC34914265
REMARK  10 active torsions:
REMARK  status: ('A' for Active; 'I' for Inactive)
REMARK    1  A    between atoms: C_1  and  C_2
REMARK    2  A    between atoms: C_2  and  N_3
REMARK    3  A    between atoms: C_10  and  C_22
REMARK    4  A    between atoms: C_12  and  C_20
REMARK    5  A    between atoms: C_13  and  N_19
REMARK    6  A    between atoms: C_14  and  C_15
REMARK    7  A    between atoms: C_14  and  C_17
REMARK    8  A    between atoms: C_25  and  C_28
REMARK    9  A    between atoms: C_28  and  O_30
REMARK   10  A    between atoms: O_30  and  C_31
REMARK                            x       y       z     vdW  Elec       q    Type
REMARK                         _______ _______ _______ _____ _____    ______ ____
ROOT
ATOM      1  N   UNL     1       0.690  -0.478  -1.207  0.00  0.00    -0.298 NA
ATOM      2  C   UNL     1       2.120  -0.133  -1.169  0.00  0.00    +0.111 C 
ATOM      3  C   UNL     1       2.742  -0.567  -2.470  0.00  0.00    -0.009 C 
ATOM      4  C   UNL     1       2.271  -1.573  -3.147  0.00  0.00    -0.028 C 
ATOM      5  C   UNL     1       1.097  -2.401  -2.699  0.00  0.00    +0.044 C 
ATOM      6  C   UNL     1       0.525  -1.924  -1.371  0.00  0.00    +0.093 C 
ATOM      7  C   UNL     1       1.560  -3.855  -2.552  0.00  0.00    +0.069 C 
ATOM      8  C   UNL     1       2.390  -4.274  -3.725  0.00  0.00    +0.057 C 
ATOM      9  C   UNL     1       3.009  -3.444  -4.561  0.00  0.00    +0.054 C 
ATOM     10  C   UNL     1       2.924  -1.947  -4.464  0.00  0.00    +0.202 C 
ENDROOT
BRANCH   7  11
ATOM     11  C   UNL     1       2.379  -3.989  -1.294  0.00  0.00    -0.039 A 
ATOM     12  C   UNL     1       3.533  -3.242  -1.141  0.00  0.00    +0.005 A 
ATOM     13  C   UNL     1       4.288  -3.359   0.007  0.00  0.00    +0.015 A 
ATOM     14  C   UNL     1       3.884  -4.235   1.017  0.00  0.00    +0.059 A 
ATOM     15  C   UNL     1       2.718  -4.986   0.857  0.00  0.00    +0.015 A 
ATOM     16  C   UNL     1       1.970  -4.854  -0.295  0.00  0.00    +0.005 A 
BRANCH  14  17
ATOM     17  C   UNL     1       4.688  -4.366   2.250  0.00  0.00    +0.339 C 
ATOM     18  O   UNL     1       5.702  -3.712   2.387  0.00  0.00    -0.245 OA
BRANCH  17  19
ATOM     19  O   UNL     1       4.295  -5.212   3.223  0.00  0.00    -0.464 OA
ATOM     20  C   UNL     1       5.120  -5.289   4.387  0.00  0.00    +0.280 C 
ENDBRANCH  17  19
ENDBRANCH  14  17
ENDBRANCH   7  11
BRANCH   9  21
ATOM     21  N   UNL     1       3.766  -3.985  -5.567  0.00  0.00    -0.358 N 
ATOM     22  H   UNL     1       3.839  -4.948  -5.655  0.00  0.00    +0.142 HD
ATOM     23  H   UNL     1       4.228  -3.405  -6.192  0.00  0.00    +0.142 HD
ENDBRANCH   9  21
BRANCH   1  25
ATOM     24  C   UNL     1      -0.019   1.526   0.010  0.00  0.00    +0.020 C 
ATOM     25  C   UNL     1       0.002  -0.004   0.002  0.00  0.00    +0.081 C 
ENDBRANCH   1  25
BRANCH  10  26
ATOM     26  C   UNL     1       2.117  -1.426  -5.579  0.00  0.00    +0.095 C 
ATOM     27  N   UNL     1       1.494  -1.024  -6.440  0.00  0.00    -0.194 NA
ENDBRANCH  10  26
BRANCH  10  28
ATOM     28  C   UNL     1       4.277  -1.373  -4.523  0.00  0.00    +0.095 C 
ATOM     29  N   UNL     1       5.322  -0.929  -4.569  0.00  0.00    -0.194 NA
ENDBRANCH  10  28
BRANCH   8  30
ATOM     30  C   UNL     1       2.529  -5.679  -3.966  0.00  0.00    +0.097 C 
ATOM     31  N   UNL     1       2.640  -6.793  -4.157  0.00  0.00    -0.191 NA
ENDBRANCH   8  30
TORSDOF 8
