REMARK  Name = ZINC32619820
REMARK  3 active torsions:
REMARK  status: ('A' for Active; 'I' for Inactive)
REMARK    1  A    between atoms: C_3  and  C_6
REMARK    2  A    between atoms: N_7  and  N_8
REMARK    3  A    between atoms: C_14  and  C_15
REMARK                            x       y       z     vdW  Elec       q    Type
REMARK                         _______ _______ _______ _____ _____    ______ ____
ROOT
ATOM      1  N   UNL     1      -5.091   7.363  -0.269  0.00  0.00    -0.126 NA
ATOM      2  C   UNL     1      -3.791   7.155  -0.209  0.00  0.00    +0.187 C 
ATOM      3  N   UNL     1      -2.773   8.083  -0.240  0.00  0.00    -0.259 N 
ATOM      4  C   UNL     1      -1.509   7.700  -0.164  0.00  0.00    +0.256 C 
ATOM      5  O   UNL     1      -0.598   8.506  -0.183  0.00  0.00    -0.269 OA
ATOM      6  C   UNL     1      -1.255   6.250  -0.058  0.00  0.00    +0.078 C 
ATOM      7  C   UNL     1      -0.074   5.587   0.030  0.00  0.00    +0.028 C 
ATOM      8  S   UNL     1      -2.921   5.602  -0.070  0.00  0.00    -0.047 S 
ATOM      9  H   UNL     1      -3.007   9.154  -0.328  0.00  0.00    +0.157 HD
ENDROOT
BRANCH   7  10
ATOM     10  C   UNL     1      -0.049   4.119  -0.034  0.00  0.00    -0.024 A 
ATOM     11  C   UNL     1      -1.153   3.418  -0.532  0.00  0.00    +0.011 A 
ATOM     12  C   UNL     1      -1.123   2.042  -0.588  0.00  0.00    +0.039 A 
ATOM     13  C   UNL     1      -0.002   1.351  -0.153  0.00  0.00    +0.123 A 
ATOM     14  C   UNL     1       1.094   2.039   0.346  0.00  0.00    +0.039 A 
ATOM     15  C   UNL     1       1.080   3.415   0.403  0.00  0.00    +0.011 A 
ATOM     16  F   UNL     1       0.020   0.001  -0.211  0.00  0.00    -0.205 F 
ENDBRANCH   7  10
BRANCH   1  18
ATOM     17  C   UNL     1      -6.839   8.771  -0.429  0.00  0.00    +0.150 C 
ATOM     18  N   UNL     1      -5.548   8.565  -0.370  0.00  0.00    -0.154 NA
BRANCH  17  21
ATOM     19  C   UNL     1      -8.911  11.916  -0.725  0.00  0.00    +0.008 A 
ATOM     20  C   UNL     1      -8.673  10.566  -0.625  0.00  0.00    +0.017 A 
ATOM     21  C   UNL     1      -7.357  10.134  -0.544  0.00  0.00    +0.032 A 
ATOM     22  S   UNL     1      -6.461  11.676  -0.622  0.00  0.00    -0.096 S 
ATOM     23  C   UNL     1      -7.860  12.777  -0.750  0.00  0.00    +0.046 A 
ENDBRANCH  17  21
ENDBRANCH   1  18
TORSDOF 3
