REMARK  Name = ZINC08961274
REMARK  4 active torsions:
REMARK  status: ('A' for Active; 'I' for Inactive)
REMARK    1  A    between atoms: C_1  and  C_2
REMARK    2  A    between atoms: C_13  and  N_18
REMARK    3  A    between atoms: N_18  and  S_19
REMARK    4  A    between atoms: S_19  and  C_22
REMARK                            x       y       z     vdW  Elec       q    Type
REMARK                         _______ _______ _______ _____ _____    ______ ____
ROOT
ATOM      1  C   UNL     1      -2.352   4.386   0.244  0.00  0.00    +0.044 C 
ATOM      2  C   UNL     1      -1.006   3.713   0.167  0.00  0.00    -0.048 A 
ATOM      3  C   UNL     1       0.141   4.476   0.050  0.00  0.00    +0.007 A 
ATOM      4  C   UNL     1       1.375   3.860  -0.036  0.00  0.00    +0.048 A 
ATOM      5  C   UNL     1       1.469   2.475  -0.007  0.00  0.00    +0.150 A 
ATOM      6  C   UNL     1       0.320   1.709   0.139  0.00  0.00    +0.077 A 
ATOM      7  C   UNL     1      -0.919   2.336   0.212  0.00  0.00    +0.030 A 
ATOM      8  N   UNL     1       0.379   0.318   0.221  0.00  0.00    -0.278 N 
ATOM      9  C   UNL     1       1.175  -0.475  -0.484  0.00  0.00    +0.252 C 
ATOM     10  O   UNL     1       1.077  -1.673  -0.302  0.00  0.00    -0.270 OA
ATOM     11  C   UNL     1       2.164  -0.018  -1.469  0.00  0.00    +0.081 A 
ATOM     12  C   UNL     1       2.359  -0.747  -2.647  0.00  0.00    +0.041 A 
ATOM     13  C   UNL     1       3.309  -0.335  -3.565  0.00  0.00    +0.049 A 
ATOM     14  C   UNL     1       4.072   0.802  -3.318  0.00  0.00    +0.028 A 
ATOM     15  C   UNL     1       3.878   1.531  -2.162  0.00  0.00    +0.049 A 
ATOM     16  C   UNL     1       2.919   1.138  -1.240  0.00  0.00    +0.141 A 
ATOM     17  O   UNL     1       2.689   1.900  -0.145  0.00  0.00    -0.453 OA
ATOM     18  H   UNL     1      -0.218  -0.111   0.854  0.00  0.00    +0.155 HD
ENDROOT
BRANCH  13  19
ATOM     19  N   UNL     1       3.502  -1.063  -4.745  0.00  0.00    -0.216 N 
ATOM     20  H   UNL     1       3.572  -2.030  -4.712  0.00  0.00    +0.174 HD
BRANCH  19  21
ATOM     21  S   UNL     1       3.611  -0.274  -6.196  0.00  0.00    +0.073 S 
ATOM     22  O   UNL     1       4.607   0.728  -6.041  0.00  0.00    -0.150 OA
ATOM     23  O   UNL     1       3.690  -1.277  -7.199  0.00  0.00    -0.150 OA
BRANCH  21  24
ATOM     24  C   UNL     1       2.084   0.570  -6.447  0.00  0.00    +0.122 A 
ATOM     25  C   UNL     1       2.057   1.950  -6.501  0.00  0.00    +0.030 A 
ATOM     26  C   UNL     1       0.860   2.612  -6.702  0.00  0.00    +0.002 A 
ATOM     27  C   UNL     1      -0.313   1.893  -6.839  0.00  0.00    +0.001 A 
ATOM     28  C   UNL     1      -0.288   0.512  -6.779  0.00  0.00    +0.017 A 
ATOM     29  C   UNL     1       0.911  -0.150  -6.583  0.00  0.00    +0.044 A 
ATOM     30 BR   UNL     1       0.945  -2.039  -6.501  0.00  0.00    -0.048 Br
ENDBRANCH  21  24
ENDBRANCH  19  21
ENDBRANCH  13  19
TORSDOF 3
