REMARK  Name = ZINC13346685
REMARK  8 active torsions:
REMARK  status: ('A' for Active; 'I' for Inactive)
REMARK    1  A    between atoms: C_1  and  C_2
REMARK    2  A    between atoms: C_2  and  O_3
REMARK    3  A    between atoms: O_3  and  C_4
REMARK    4  A    between atoms: C_7  and  N_17
REMARK    5  A    between atoms: C_12  and  C_13
REMARK    6  A    between atoms: C_13  and  O_15
REMARK    7  A    between atoms: O_15  and  C_16
REMARK    8  A    between atoms: C_18  and  C_20
REMARK                            x       y       z     vdW  Elec       q    Type
REMARK                         _______ _______ _______ _____ _____    ______ ____
ROOT
ATOM      1  N   UNL     1      -1.518  -2.436   4.951  0.00  0.00    -0.280 N 
ATOM      2  C   UNL     1      -1.105  -3.221   5.965  0.00  0.00    +0.269 C 
ATOM      3  O   UNL     1      -0.709  -4.348   5.739  0.00  0.00    -0.268 OA
ATOM      4  H   UNL     1      -1.761  -1.512   5.120  0.00  0.00    +0.155 HD
ENDROOT
BRANCH   2   5
ATOM      5  C   UNL     1      -1.132  -2.712   7.351  0.00  0.00    +0.151 A 
ATOM      6  C   UNL     1      -0.737  -3.404   8.498  0.00  0.00    +0.010 A 
ATOM      7  C   UNL     1      -0.928  -2.531   9.544  0.00  0.00    +0.070 A 
ATOM      8  N   UNL     1      -1.427  -1.393   9.023  0.00  0.00    -0.276 N 
ATOM      9  H   UNL     1      -1.679  -0.581   9.550  0.00  0.00    +0.189 HD
ATOM     10  N   UNL     1      -1.529  -1.510   7.742  0.00  0.00    -0.168 NA
ATOM     11  C   UNL     1      -0.587  -2.932  10.923  0.00  0.00    +0.003 A 
ATOM     12  C   UNL     1      -1.045  -2.227  12.028  0.00  0.00    +0.010 A 
ATOM     13  C   UNL     1      -0.766  -2.694  13.299  0.00  0.00    +0.001 A 
ATOM     14  C   UNL     1      -0.033  -3.856  13.460  0.00  0.00    +0.000 A 
ATOM     15  C   UNL     1       0.440  -4.549  12.362  0.00  0.00    +0.004 A 
ATOM     16  C   UNL     1       0.181  -4.091  11.084  0.00  0.00    -0.038 A 
ATOM     17  C   UNL     1       0.728  -4.831   9.895  0.00  0.00    +0.040 C 
ATOM     18  C   UNL     1      -0.218  -4.798   8.696  0.00  0.00    +0.044 C 
ENDBRANCH   2   5
BRANCH   1  22
ATOM     19  C   UNL     1      -1.154  -1.922   0.011  0.00  0.00    +0.149 A 
ATOM     20  C   UNL     1      -1.401  -2.632   1.256  0.00  0.00    +0.033 A 
ATOM     21  C   UNL     1      -1.328  -2.135   2.581  0.00  0.00    +0.036 A 
ATOM     22  C   UNL     1      -1.598  -2.953   3.652  0.00  0.00    +0.034 A 
ATOM     23  C   UNL     1      -1.950  -4.291   3.468  0.00  0.00    +0.024 A 
ATOM     24  C   UNL     1      -2.029  -4.803   2.191  0.00  0.00    +0.017 A 
ATOM     25  C   UNL     1      -1.760  -3.990   1.107  0.00  0.00    +0.024 A 
ATOM     26  S   UNL     1      -1.750  -4.248  -0.648  0.00  0.00    -0.078 S 
ATOM     27  C   UNL     1      -1.290  -2.609  -1.173  0.00  0.00    +0.139 A 
BRANCH  27  28
ATOM     28  C   UNL     1      -1.107  -2.127  -2.494  0.00  0.00    +0.349 C 
ATOM     29  O   UNL     1      -0.788  -0.968  -2.681  0.00  0.00    -0.244 OA
BRANCH  28  30
ATOM     30  O   UNL     1      -1.287  -2.955  -3.545  0.00  0.00    -0.464 OA
ATOM     31  C   UNL     1      -1.086  -2.403  -4.848  0.00  0.00    +0.280 C 
ENDBRANCH  28  30
ENDBRANCH  27  28
BRANCH  19  32
ATOM     32  O   UNL     1      -0.801  -0.613   0.018  0.00  0.00    -0.490 OA
BRANCH  32  34
ATOM     33  C   UNL     1       0.796   1.200   0.075  0.00  0.00    +0.048 C 
ATOM     34  C   UNL     1       0.595  -0.317   0.077  0.00  0.00    +0.226 C 
ENDBRANCH  32  34
ENDBRANCH  19  32
ENDBRANCH   1  22
TORSDOF 6
