REMARK  Name = ZINC35089596
REMARK  16 active torsions:
REMARK  status: ('A' for Active; 'I' for Inactive)
REMARK    1  A    between atoms: C_1  and  C_2
REMARK    2  A    between atoms: C_2  and  C_3
REMARK    3  A    between atoms: C_3  and  C_4
REMARK    4  A    between atoms: C_4  and  C_5
REMARK    5  A    between atoms: C_5  and  C_7
REMARK    6  A    between atoms: C_5  and  C_9
REMARK    7  A    between atoms: C_7  and  C_8
REMARK    8  A    between atoms: N_11  and  C_12
REMARK    9  A    between atoms: N_11  and  C_17
REMARK   10  A    between atoms: C_12  and  C_13
REMARK   11  A    between atoms: C_13  and  N_14
REMARK   12  A    between atoms: N_14  and  C_15
REMARK   13  A    between atoms: N_14  and  C_16
REMARK   14  A    between atoms: C_17  and  C_19
REMARK   15  A    between atoms: C_17  and  C_20
REMARK   16  A    between atoms: N_30  and  C_31
REMARK                            x       y       z     vdW  Elec       q    Type
REMARK                         _______ _______ _______ _____ _____    ______ ____
ROOT
ATOM      1  C   UNL     1       1.087  -6.098  -4.864  0.00  0.00    +0.138 A 
ATOM      2  N   UNL     1       2.025  -5.856  -5.729  0.00  0.00    -0.231 NA
ATOM      3  C   UNL     1       1.851  -6.095  -7.053  0.00  0.00    +0.078 A 
ATOM      4  C   UNL     1       2.860  -5.836  -7.983  0.00  0.00    +0.028 A 
ATOM      5  C   UNL     1       2.640  -6.093  -9.317  0.00  0.00    +0.002 A 
ATOM      6  C   UNL     1       1.425  -6.607  -9.752  0.00  0.00    +0.001 A 
ATOM      7  C   UNL     1       0.414  -6.871  -8.854  0.00  0.00    +0.015 A 
ATOM      8  C   UNL     1       0.617  -6.618  -7.498  0.00  0.00    +0.065 A 
ATOM      9  C   UNL     1      -0.425  -6.881  -6.495  0.00  0.00    +0.266 A 
ATOM     10  O   UNL     1      -1.510  -7.332  -6.812  0.00  0.00    -0.267 OA
ATOM     11  N   UNL     1      -0.129  -6.606  -5.203  0.00  0.00    -0.263 N 
ENDROOT
BRANCH  11  12
ATOM     12  C   UNL     1      -1.083  -6.843  -4.207  0.00  0.00    +0.052 A 
ATOM     13  C   UNL     1      -2.234  -6.048  -4.147  0.00  0.00    +0.027 A 
ATOM     14  C   UNL     1      -3.177  -6.255  -3.191  0.00  0.00    +0.010 A 
ATOM     15  C   UNL     1      -3.003  -7.281  -2.244  0.00  0.00    -0.018 A 
ATOM     16  C   UNL     1      -3.962  -7.518  -1.245  0.00  0.00    +0.008 A 
ATOM     17  C   UNL     1      -3.763  -8.519  -0.344  0.00  0.00    +0.001 A 
ATOM     18  C   UNL     1      -2.620  -9.315  -0.396  0.00  0.00    +0.001 A 
ATOM     19  C   UNL     1      -1.670  -9.114  -1.350  0.00  0.00    +0.008 A 
ATOM     20  C   UNL     1      -1.841  -8.091  -2.298  0.00  0.00    -0.016 A 
ATOM     21  C   UNL     1      -0.884  -7.859  -3.299  0.00  0.00    +0.034 A 
ENDBRANCH  11  12
BRANCH   1  22
ATOM     22  C   UNL     1       1.361  -5.805  -3.412  0.00  0.00    +0.139 C 
ATOM     23  C   UNL     1       2.650  -6.508  -2.984  0.00  0.00    +0.036 C 
BRANCH  22  26
ATOM     24  C   UNL     1       0.673  -3.700  -2.396  0.00  0.00    +0.219 C 
ATOM     25  O   UNL     1      -0.251  -4.285  -1.873  0.00  0.00    -0.275 OA
ATOM     26  N   UNL     1       1.507  -4.359  -3.224  0.00  0.00    -0.293 N 
BRANCH  24  27
ATOM     27  C   UNL     1       0.889  -2.234  -2.120  0.00  0.00    +0.075 C 
BRANCH  27  28
ATOM     28  C   UNL     1       0.507  -1.926  -0.671  0.00  0.00    +0.009 C 
ATOM     29  C   UNL     1       1.459  -2.661   0.275  0.00  0.00    +0.004 C 
ENDBRANCH  27  28
BRANCH  27  30
ATOM     30  C   UNL     1       0.018  -1.403  -3.065  0.00  0.00    +0.013 C 
BRANCH  30  31
ATOM     31  C   UNL     1       0.328   0.082  -2.871  0.00  0.00    +0.000 C 
BRANCH  31  33
ATOM     32  C   UNL     1      -0.233   2.398  -3.622  0.00  0.00    +0.004 C 
ATOM     33  C   UNL     1      -0.543   0.912  -3.816  0.00  0.00    -0.003 C 
ENDBRANCH  31  33
ENDBRANCH  30  31
ENDBRANCH  27  30
ENDBRANCH  24  27
BRANCH  26  34
ATOM     34  C   UNL     1       2.560  -3.631  -3.936  0.00  0.00    +0.090 C 
BRANCH  34  35
ATOM     35  C   UNL     1       3.799  -3.524  -3.044  0.00  0.00    -0.060 C 
BRANCH  35  36
ATOM     36  N   UNL     1       4.811  -2.692  -3.709  0.00  0.00    +0.377 N 
ATOM     37  C   UNL     1       5.950  -2.490  -2.804  0.00  0.00    -0.097 C 
ATOM     38  C   UNL     1       5.270  -3.365  -4.932  0.00  0.00    -0.097 C 
ATOM     39  H   UNL     1       4.408  -1.799  -3.948  0.00  0.00    -0.083 HD
ENDBRANCH  35  36
ENDBRANCH  34  35
ENDBRANCH  26  34
ENDBRANCH  22  26
ENDBRANCH   1  22
TORSDOF 11
