REMARK  Name = ZINC13959768
REMARK  6 active torsions:
REMARK  status: ('A' for Active; 'I' for Inactive)
REMARK    1  A    between atoms: C_4  and  N_7
REMARK    2  A    between atoms: C_10  and  C_12
REMARK    3  A    between atoms: C_12  and  C_13
REMARK    4  A    between atoms: C_19  and  C_27
REMARK    5  A    between atoms: C_21  and  C_25
REMARK    6  A    between atoms: C_22  and  N_24
REMARK                            x       y       z     vdW  Elec       q    Type
REMARK                         _______ _______ _______ _____ _____    ______ ____
ROOT
ATOM      1  N   UNL     1      -2.195   2.888  -2.542  0.00  0.00    -0.199 N 
ATOM      2  C   UNL     1      -1.296   2.271  -3.340  0.00  0.00    +0.230 A 
ATOM      3  C   UNL     1      -0.388   1.647  -2.530  0.00  0.00    +0.056 A 
ATOM      4  C   UNL     1      -0.746   1.894  -1.211  0.00  0.00    +0.148 A 
ATOM      5  N   UNL     1      -1.831   2.632  -1.211  0.00  0.00    -0.162 NA
ATOM      6  C   UNL     1       0.770   0.849  -3.071  0.00  0.00    +0.103 C 
ATOM      7  C   UNL     1       0.887   1.132  -4.548  0.00  0.00    +0.098 C 
ATOM      8  C   UNL     1      -0.079   1.774  -5.243  0.00  0.00    +0.200 C 
ATOM      9  O   UNL     1      -1.225   2.224  -4.693  0.00  0.00    -0.423 OA
ENDROOT
BRANCH   1  13
ATOM     10  C   UNL     1      -5.471   5.134  -3.807  0.00  0.00    +0.000 A 
ATOM     11  C   UNL     1      -5.563   4.364  -2.662  0.00  0.00    +0.002 A 
ATOM     12  C   UNL     1      -4.479   3.619  -2.240  0.00  0.00    +0.028 A 
ATOM     13  C   UNL     1      -3.296   3.643  -2.968  0.00  0.00    +0.069 A 
ATOM     14  C   UNL     1      -3.205   4.421  -4.114  0.00  0.00    +0.028 A 
ATOM     15  C   UNL     1      -4.294   5.160  -4.534  0.00  0.00    +0.002 A 
ENDBRANCH   1  13
BRANCH   6  16
ATOM     16  C   UNL     1       0.520  -0.621  -2.853  0.00  0.00    -0.016 A 
ATOM     17  C   UNL     1       1.401  -1.378  -2.094  0.00  0.00    +0.007 A 
ATOM     18  C   UNL     1       1.128  -2.725  -1.916  0.00  0.00    +0.020 A 
ATOM     19  C   UNL     1       0.002  -3.269  -2.506  0.00  0.00    +0.111 A 
ATOM     20  N   UNL     1      -0.810  -2.520  -3.225  0.00  0.00    -0.263 NA
ATOM     21  C   UNL     1      -0.586  -1.234  -3.411  0.00  0.00    +0.115 A 
ENDBRANCH   6  16
BRANCH   4  22
ATOM     22  C   UNL     1      -0.017   1.395   0.010  0.00  0.00    +0.385 C 
ATOM     23  F   UNL     1       0.002  -0.004   0.002  0.00  0.00    -0.189 F 
ATOM     24  F   UNL     1       1.296   1.879  -0.000  0.00  0.00    -0.189 F 
BRANCH  22  25
ATOM     25  C   UNL     1      -0.733   1.888   1.268  0.00  0.00    +0.460 C 
ATOM     26  F   UNL     1      -0.056   1.425   2.402  0.00  0.00    -0.165 F 
ATOM     27  F   UNL     1      -0.752   3.287   1.276  0.00  0.00    -0.165 F 
ATOM     28  F   UNL     1      -2.046   1.404   1.278  0.00  0.00    -0.165 F 
ENDBRANCH  22  25
ENDBRANCH   4  22
BRANCH   8  29
ATOM     29  N   UNL     1       0.119   1.980  -6.585  0.00  0.00    -0.328 N 
ATOM     30  H   UNL     1      -0.556   2.438  -7.110  0.00  0.00    +0.145 HD
ATOM     31  H   UNL     1       0.934   1.667  -7.009  0.00  0.00    +0.145 HD
ENDBRANCH   8  29
BRANCH   7  32
ATOM     32  C   UNL     1       2.065   0.703  -5.241  0.00  0.00    +0.101 C 
ATOM     33  N   UNL     1       2.999   0.363  -5.790  0.00  0.00    -0.191 NA
ENDBRANCH   7  32
TORSDOF 6
