REMARK  Name = ZINC12457065
REMARK  9 active torsions:
REMARK  status: ('A' for Active; 'I' for Inactive)
REMARK    1  A    between atoms: C_1  and  O_2
REMARK    2  A    between atoms: O_2  and  C_3
REMARK    3  A    between atoms: C_8  and  C_9
REMARK    4  A    between atoms: C_9  and  C_10
REMARK    5  A    between atoms: C_10  and  N_11
REMARK    6  A    between atoms: C_22  and  N_65
REMARK    7  A    between atoms: C_26  and  C_27
REMARK    8  A    between atoms: C_26  and  N_65
REMARK    9  A    between atoms: C_27  and  C_28
REMARK                            x       y       z     vdW  Elec       q    Type
REMARK                         _______ _______ _______ _____ _____    ______ ____
ROOT
ATOM      1  N   UNL     1       1.602   1.360   4.185  0.00  0.00    -0.298 N 
ATOM      2  C   UNL     1       0.764   1.835   5.138  0.00  0.00    +0.203 A 
ATOM      3  N   UNL     1      -0.471   2.208   4.885  0.00  0.00    -0.230 NA
ATOM      4  C   UNL     1      -0.895   2.105   3.629  0.00  0.00    +0.116 A 
ATOM      5  C   UNL     1      -0.100   1.622   2.567  0.00  0.00    +0.076 A 
ATOM      6  C   UNL     1       1.242   1.225   2.886  0.00  0.00    +0.262 A 
ATOM      7  O   UNL     1       2.010   0.796   2.042  0.00  0.00    -0.267 OA
ATOM      8  C   UNL     1      -0.732   1.580   1.260  0.00  0.00    -0.023 A 
ATOM      9  C   UNL     1      -2.017   2.007   1.189  0.00  0.00    -0.006 A 
ATOM     10  S   UNL     1      -2.441   2.480   2.847  0.00  0.00    -0.073 S 
ATOM     11  C   UNL     1      -2.889   2.065  -0.027  0.00  0.00    +0.027 C 
ATOM     12  C   UNL     1      -2.239   1.220  -1.132  0.00  0.00    -0.067 C 
ATOM     13  C   UNL     1      -0.757   1.595  -1.227  0.00  0.00    -0.011 C 
ATOM     14  C   UNL     1      -0.013   1.086   0.008  0.00  0.00    +0.035 C 
ENDROOT
BRANCH  12  15
ATOM     15  N   UNL     1      -2.896   1.502  -2.423  0.00  0.00    +0.381 N 
ATOM     16  H   UNL     1      -2.237   1.311  -3.187  0.00  0.00    -0.086 HD
ATOM     17  H   UNL     1      -3.177   2.489  -2.451  0.00  0.00    -0.086 HD
BRANCH  15  18
ATOM     18  C   UNL     1      -4.090   0.651  -2.586  0.00  0.00    -0.078 C 
BRANCH  18  19
ATOM     19  C   UNL     1      -4.749   0.964  -3.930  0.00  0.00    +0.011 C 
BRANCH  19  20
ATOM     20  C   UNL     1      -5.970   0.099  -4.105  0.00  0.00    -0.075 C 
ATOM     21  C   UNL     1      -7.117   0.592  -3.765  0.00  0.00    -0.028 C 
ATOM     22  C   UNL     1      -8.417  -0.151  -3.871  0.00  0.00    +0.027 C 
ATOM     23  C   UNL     1      -8.261  -1.355  -4.803  0.00  0.00    +0.004 C 
ATOM     24  C   UNL     1      -7.014  -2.140  -4.378  0.00  0.00    +0.005 C 
ATOM     25  C   UNL     1      -5.781  -1.279  -4.669  0.00  0.00    +0.030 C 
ENDBRANCH  19  20
ENDBRANCH  18  19
ENDBRANCH  15  18
ENDBRANCH  12  15
BRANCH   1  26
ATOM     26  C   UNL     1       2.959   0.974   4.578  0.00  0.00    +0.131 C 
BRANCH  26  27
ATOM     27  C   UNL     1       2.973  -0.503   4.979  0.00  0.00    +0.060 C 
BRANCH  27  33
ATOM     28  C   UNL     1       4.805  -0.680   6.682  0.00  0.00    +0.123 A 
ATOM     29  C   UNL     1       6.091  -1.048   7.051  0.00  0.00    +0.046 A 
ATOM     30  C   UNL     1       6.934  -1.632   6.125  0.00  0.00    +0.004 A 
ATOM     31  C   UNL     1       6.497  -1.850   4.831  0.00  0.00    +0.000 A 
ATOM     32  C   UNL     1       5.214  -1.489   4.463  0.00  0.00    +0.007 A 
ATOM     33  C   UNL     1       4.369  -0.900   5.383  0.00  0.00    -0.004 A 
BRANCH  28  35
ATOM     34  C   UNL     1       4.490   0.090   8.909  0.00  0.00    +0.277 C 
ATOM     35  O   UNL     1       3.974  -0.106   7.591  0.00  0.00    -0.495 OA
ENDBRANCH  28  35
ENDBRANCH  27  33
ENDBRANCH  26  27
ENDBRANCH   1  26
TORSDOF 8
