REMARK  Name = ZINC09083588
REMARK  12 active torsions:
REMARK  status: ('A' for Active; 'I' for Inactive)
REMARK    1  A    between atoms: C_1  and  C_2
REMARK    2  A    between atoms: C_2  and  C_4
REMARK    3  A    between atoms: C_2  and  O_33
REMARK    4  A    between atoms: C_4  and  C_6
REMARK    5  A    between atoms: C_4  and  N_21
REMARK    6  A    between atoms: C_6  and  O_8
REMARK    7  A    between atoms: O_8  and  C_9
REMARK    8  A    between atoms: C_9  and  C_11
REMARK    9  A    between atoms: C_9  and  C_12
REMARK   10  A    between atoms: N_14  and  C_15
REMARK   11  A    between atoms: N_21  and  S_22
REMARK   12  A    between atoms: S_22  and  C_25
REMARK                            x       y       z     vdW  Elec       q    Type
REMARK                         _______ _______ _______ _____ _____    ______ ____
ROOT
ATOM      1  C   UNL     1       2.059   1.114   1.233  0.00  0.00    +0.213 C 
ENDROOT
BRANCH   1   3
ATOM      2  C   UNL     1       2.043   1.139  -1.265  0.00  0.00    +0.040 C 
ATOM      3  C   UNL     1       1.288   1.571  -0.007  0.00  0.00    +0.141 C 
BRANCH   3   4
ATOM      4  O   UNL     1      -0.012   0.978  -0.004  0.00  0.00    -0.390 OA
ATOM      5  H   UNL     1      -0.004   0.011  -0.014  0.00  0.00    +0.210 HD
ENDBRANCH   3   4
ENDBRANCH   1   3
BRANCH   1   6
ATOM      6  C   UNL     1       1.256   1.430   2.469  0.00  0.00    +0.329 C 
ATOM      7  O   UNL     1       0.914   0.540   3.211  0.00  0.00    -0.249 OA
BRANCH   6   8
ATOM      8  O   UNL     1       0.922   2.700   2.745  0.00  0.00    -0.451 OA
BRANCH   8   9
ATOM      9  C   UNL     1       0.148   2.931   3.952  0.00  0.00    +0.259 C 
ATOM     10  C   UNL     1       1.097   3.170   5.128  0.00  0.00    +0.062 C 
BRANCH   9  11
ATOM     11  C   UNL     1      -0.730   4.140   3.762  0.00  0.00    +0.258 C 
ATOM     12  O   UNL     1      -0.707   4.748   2.713  0.00  0.00    -0.271 OA
ATOM     13  N   UNL     1      -1.542   4.546   4.758  0.00  0.00    -0.282 N 
ATOM     14  H   UNL     1      -1.611   4.023   5.572  0.00  0.00    +0.155 HD
BRANCH  13  15
ATOM     15  C   UNL     1      -2.286   5.724   4.619  0.00  0.00    +0.033 A 
ATOM     16  C   UNL     1      -2.523   6.532   5.723  0.00  0.00    +0.023 A 
ATOM     17  C   UNL     1      -3.252   7.696   5.581  0.00  0.00    +0.002 A 
ATOM     18  C   UNL     1      -3.756   8.051   4.343  0.00  0.00    +0.000 A 
ATOM     19  C   UNL     1      -3.526   7.246   3.243  0.00  0.00    +0.002 A 
ATOM     20  C   UNL     1      -2.793   6.084   3.377  0.00  0.00    +0.023 A 
ENDBRANCH  13  15
ENDBRANCH   9  11
ENDBRANCH   8   9
ENDBRANCH   6   8
ENDBRANCH   1   6
BRANCH   1  21
ATOM     21  N   UNL     1       2.292  -0.331   1.159  0.00  0.00    -0.174 NA
ATOM     22  H   UNL     1       1.611  -0.948   1.468  0.00  0.00    +0.149 HD
BRANCH  21  23
ATOM     23  S   UNL     1       3.717  -0.909   0.545  0.00  0.00    +0.059 S 
ATOM     24  O   UNL     1       3.651  -2.326   0.630  0.00  0.00    -0.153 OA
ATOM     25  O   UNL     1       3.936  -0.229  -0.684  0.00  0.00    -0.153 OA
BRANCH  23  26
ATOM     26  C   UNL     1       5.001  -0.398   1.638  0.00  0.00    +0.107 A 
ATOM     27  C   UNL     1       5.645   0.808   1.432  0.00  0.00    +0.030 A 
ATOM     28  C   UNL     1       6.648   1.212   2.292  0.00  0.00    +0.023 A 
ATOM     29  C   UNL     1       7.016   0.405   3.354  0.00  0.00    +0.059 A 
ATOM     30  C   UNL     1       6.375  -0.805   3.558  0.00  0.00    +0.061 A 
ATOM     31  C   UNL     1       5.367  -1.206   2.699  0.00  0.00    +0.050 A 
ATOM     32 CL   UNL     1       6.834  -1.818   4.890  0.00  0.00    -0.082 Cl
ATOM     33 CL   UNL     1       8.280   0.910   4.431  0.00  0.00    -0.082 Cl
ENDBRANCH  23  26
ENDBRANCH  21  23
ENDBRANCH   1  21
TORSDOF 10
