REMARK  Name = ZINC63941321
REMARK  10 active torsions:
REMARK  status: ('A' for Active; 'I' for Inactive)
REMARK    1  A    between atoms: C_1  and  C_2
REMARK    2  A    between atoms: C_2  and  C_3
REMARK    3  A    between atoms: C_2  and  C_4
REMARK    4  A    between atoms: C_8  and  N_11
REMARK    5  A    between atoms: C_12  and  C_14
REMARK    6  A    between atoms: N_19  and  C_21
REMARK    7  A    between atoms: C_21  and  C_22
REMARK    8  A    between atoms: C_22  and  C_23
REMARK    9  A    between atoms: C_26  and  O_32
REMARK   10  A    between atoms: O_32  and  C_33
REMARK                            x       y       z     vdW  Elec       q    Type
REMARK                         _______ _______ _______ _____ _____    ______ ____
ROOT
ATOM      1  C   UNL     1      -5.854  -3.335  -3.665  0.00  0.00    +0.101 C 
ATOM      2  C   UNL     1      -6.921  -3.118  -2.567  0.00  0.00    +0.110 C 
ATOM      3  C   UNL     1      -8.024  -4.090  -2.923  0.00  0.00    +0.216 C 
ATOM      4  O   UNL     1      -9.155  -4.047  -2.488  0.00  0.00    -0.276 OA
ATOM      5  N   UNL     1      -7.568  -5.008  -3.793  0.00  0.00    -0.300 N 
ATOM      6  C   UNL     1      -6.152  -4.784  -4.112  0.00  0.00    +0.121 C 
ENDROOT
BRANCH   1   8
ATOM      7  N   UNL     1      -4.035  -2.049  -2.590  0.00  0.00    -0.290 N 
ATOM      8  C   UNL     1      -4.463  -3.223  -3.095  0.00  0.00    +0.220 C 
ATOM      9  O   UNL     1      -3.730  -4.188  -3.091  0.00  0.00    -0.275 OA
ATOM     10  H   UNL     1      -4.622  -1.276  -2.593  0.00  0.00    +0.151 HD
BRANCH   7  14
ATOM     11  C   UNL     1      -1.433  -0.534   0.013  0.00  0.00    +0.132 C 
ATOM     12  N   UNL     1      -1.454  -2.023   0.047  0.00  0.00    -0.241 NA
ATOM     13  N   UNL     1      -2.596  -2.565  -0.680  0.00  0.00    -0.227 NA
ATOM     14  C   UNL     1      -2.683  -1.939  -2.037  0.00  0.00    +0.216 C 
ATOM     15  S   UNL     1      -2.276  -0.194  -1.590  0.00  0.00    -0.102 S 
ATOM     16  H   UNL     1      -1.435  -2.363   0.996  0.00  0.00    +0.142 HD
ATOM     17  H   UNL     1      -2.536  -3.570  -0.749  0.00  0.00    +0.143 HD
BRANCH  11  19
ATOM     18  C   UNL     1      -0.019   1.526   0.010  0.00  0.00    +0.009 C 
ATOM     19  C   UNL     1       0.002  -0.004   0.002  0.00  0.00    +0.011 C 
ATOM     20  C   UNL     1       0.742  -0.511   1.242  0.00  0.00    +0.009 C 
ENDBRANCH  11  19
ENDBRANCH   7  14
ENDBRANCH   1   8
BRANCH   5  21
ATOM     21  C   UNL     1      -8.379  -6.092  -4.351  0.00  0.00    +0.112 C 
BRANCH  21  22
ATOM     22  C   UNL     1      -9.043  -5.618  -5.646  0.00  0.00    +0.052 C 
BRANCH  22  23
ATOM     23  C   UNL     1      -9.878  -6.734  -6.220  0.00  0.00    -0.040 C 
ATOM     24  C   UNL     1     -11.204  -6.931  -6.043  0.00  0.00    +0.002 A 
ATOM     25  C   UNL     1     -12.228  -6.197  -5.292  0.00  0.00    +0.055 A 
ATOM     26  C   UNL     1     -13.507  -6.642  -5.298  0.00  0.00    +0.121 A 
ATOM     27  C   UNL     1     -13.897  -7.795  -6.002  0.00  0.00    +0.047 A 
ATOM     28  C   UNL     1     -13.028  -8.537  -6.721  0.00  0.00    +0.029 A 
ATOM     29  C   UNL     1     -11.616  -8.145  -6.785  0.00  0.00    +0.043 A 
ATOM     30  N   UNL     1     -10.587  -8.676  -7.396  0.00  0.00    -0.380 N 
ATOM     31  C   UNL     1      -9.403  -7.856  -7.116  0.00  0.00    +0.144 C 
ATOM     32  H   UNL     1     -10.605  -9.476  -7.944  0.00  0.00    +0.160 HD
BRANCH  26  33
ATOM     33  O   UNL     1     -14.445  -5.952  -4.597  0.00  0.00    -0.495 OA
ATOM     34  C   UNL     1     -15.782  -6.458  -4.630  0.00  0.00    +0.277 C 
ENDBRANCH  26  33
ENDBRANCH  22  23
ENDBRANCH  21  22
ENDBRANCH   5  21
TORSDOF 7
