REMARK  Name = ZINC39654077
REMARK  13 active torsions:
REMARK  status: ('A' for Active; 'I' for Inactive)
REMARK    1  A    between atoms: C_1  and  C_2
REMARK    2  A    between atoms: C_2  and  O_3
REMARK    3  A    between atoms: O_3  and  C_4
REMARK    4  A    between atoms: C_7  and  C_10
REMARK    5  A    between atoms: C_10  and  C_11
REMARK    6  A    between atoms: C_11  and  N_12
REMARK    7  A    between atoms: C_13  and  C_15
REMARK    8  A    between atoms: C_26  and  C_28
REMARK    9  A    between atoms: C_28  and  C_30
REMARK   10  A    between atoms: C_28  and  O_33
REMARK   11  A    between atoms: C_30  and  C_31
REMARK   12  A    between atoms: C_30  and  C_32
REMARK   13  A    between atoms: O_33  and  C_34
REMARK                            x       y       z     vdW  Elec       q    Type
REMARK                         _______ _______ _______ _____ _____    ______ ____
ROOT
ATOM      1  C   UNL     1       3.476 -10.390   0.641  0.00  0.00    +0.100 C 
ATOM      2  C   UNL     1       3.730 -10.634   2.146  0.00  0.00    +0.121 C 
ATOM      3  N   UNL     1       4.758 -11.700   2.184  0.00  0.00    -0.297 N 
ATOM      4  C   UNL     1       5.681 -11.362   1.074  0.00  0.00    +0.115 C 
ATOM      5  C   UNL     1       4.759 -10.869  -0.059  0.00  0.00    -0.004 C 
ATOM      6  C   UNL     1       5.415  -9.713  -0.807  0.00  0.00    -0.010 C 
ATOM      7  C   UNL     1       6.657 -10.226  -1.542  0.00  0.00    -0.082 C 
ATOM      8  N   UNL     1       6.269 -11.285  -2.481  0.00  0.00    +0.379 N 
ATOM      9  C   UNL     1       5.724 -12.432  -1.745  0.00  0.00    -0.082 C 
ATOM     10  C   UNL     1       4.443 -12.012  -1.018  0.00  0.00    -0.010 C 
ATOM     11  C   UNL     1       4.836 -12.742   3.035  0.00  0.00    +0.257 C 
ATOM     12  O   UNL     1       5.790 -13.489   2.993  0.00  0.00    -0.272 OA
ATOM     13  H   UNL     1       5.569 -10.931  -3.115  0.00  0.00    -0.086 HD
ATOM     14  H   UNL     1       7.078 -11.579  -3.007  0.00  0.00    -0.086 HD
ENDROOT
BRANCH   1  16
ATOM     15  N   UNL     1       2.604  -8.531  -0.738  0.00  0.00    -0.315 N 
ATOM     16  C   UNL     1       3.250  -8.924   0.378  0.00  0.00    +0.218 C 
ATOM     17  O   UNL     1       3.649  -8.097   1.170  0.00  0.00    -0.275 OA
ATOM     18  H   UNL     1       2.285  -9.193  -1.372  0.00  0.00    +0.149 HD
BRANCH  15  19
ATOM     19  C   UNL     1       2.385  -7.106  -0.995  0.00  0.00    +0.109 C 
BRANCH  19  20
ATOM     20  C   UNL     1       1.635  -6.934  -2.317  0.00  0.00    +0.054 C 
BRANCH  20  24
ATOM     21  C   UNL     1       0.995  -2.776  -3.065  0.00  0.00    +0.121 A 
ATOM     22  C   UNL     1       2.146  -3.396  -3.529  0.00  0.00    +0.046 A 
ATOM     23  C   UNL     1       2.350  -4.741  -3.286  0.00  0.00    +0.007 A 
ATOM     24  C   UNL     1       1.410  -5.468  -2.581  0.00  0.00    -0.046 A 
ATOM     25  C   UNL     1       0.262  -4.852  -2.117  0.00  0.00    +0.007 A 
ATOM     26  C   UNL     1       0.055  -3.507  -2.353  0.00  0.00    +0.046 A 
BRANCH  21  27
ATOM     27  O   UNL     1       0.791  -1.453  -3.303  0.00  0.00    -0.492 OA
BRANCH  27  29
ATOM     28  C   UNL     1       1.400   0.703  -4.209  0.00  0.00    +0.048 C 
ATOM     29  C   UNL     1       1.801  -0.764  -4.043  0.00  0.00    +0.225 C 
ENDBRANCH  27  29
ENDBRANCH  21  27
ENDBRANCH  20  24
ENDBRANCH  19  20
ENDBRANCH  15  19
ENDBRANCH   1  16
BRANCH  11  30
ATOM     30  C   UNL     1       3.738 -12.979   4.040  0.00  0.00    +0.261 C 
BRANCH  30  31
ATOM     31  C   UNL     1       4.032 -12.185   5.314  0.00  0.00    +0.033 C 
ATOM     32  C   UNL     1       4.223 -10.708   4.963  0.00  0.00    +0.011 C 
ATOM     33  C   UNL     1       2.861 -12.330   6.287  0.00  0.00    +0.011 C 
ENDBRANCH  30  31
BRANCH  30  34
ATOM     34  O   UNL     1       3.669 -14.371   4.351  0.00  0.00    -0.479 OA
BRANCH  34  35
ATOM     35  C   UNL     1       2.439 -14.884   4.618  0.00  0.00    +0.122 A 
ATOM     36  C   UNL     1       1.311 -14.086   4.490  0.00  0.00    +0.045 A 
ATOM     37  C   UNL     1       0.062 -14.610   4.762  0.00  0.00    +0.004 A 
ATOM     38  C   UNL     1      -0.065 -15.928   5.161  0.00  0.00    +0.000 A 
ATOM     39  C   UNL     1       1.058 -16.724   5.290  0.00  0.00    +0.004 A 
ATOM     40  C   UNL     1       2.308 -16.207   5.013  0.00  0.00    +0.045 A 
ENDBRANCH  34  35
ENDBRANCH  30  34
ENDBRANCH  11  30
TORSDOF 10
