REMARK  Name = ZINC65319309
REMARK  10 active torsions:
REMARK  status: ('A' for Active; 'I' for Inactive)
REMARK    1  A    between atoms: C_1  and  C_2
REMARK    2  A    between atoms: C_11  and  N_23
REMARK    3  A    between atoms: C_12  and  C_14
REMARK    4  A    between atoms: C_17  and  O_21
REMARK    5  A    between atoms: C_18  and  O_20
REMARK    6  A    between atoms: O_21  and  C_22
REMARK    7  A    between atoms: N_23  and  C_24
REMARK    8  A    between atoms: C_24  and  C_25
REMARK    9  A    between atoms: C_24  and  C_26
REMARK   10  A    between atoms: C_24  and  C_27
REMARK                            x       y       z     vdW  Elec       q    Type
REMARK                         _______ _______ _______ _____ _____    ______ ____
ROOT
ATOM      1  C   UNL     1      -0.215   2.032  -1.401  0.00  0.00    +0.044 C 
ATOM      2  C   UNL     1      -0.131   0.570  -1.043  0.00  0.00    -0.049 A 
ATOM      3  C   UNL     1      -0.140  -0.396  -2.035  0.00  0.00    +0.005 A 
ATOM      4  C   UNL     1      -0.063  -1.734  -1.728  0.00  0.00    +0.027 A 
ATOM      5  C   UNL     1       0.027  -2.160  -0.393  0.00  0.00    +0.064 A 
ATOM      6  C   UNL     1       0.034  -1.162   0.587  0.00  0.00    +0.040 A 
ATOM      7  C   UNL     1      -0.037   0.177   0.280  0.00  0.00    +0.020 A 
ATOM      8  S   UNL     1       0.155  -2.075   2.105  0.00  0.00    -0.049 S 
ATOM      9  C   UNL     1       0.192  -3.709   1.405  0.00  0.00    +0.180 A 
ATOM     10  N   UNL     1       0.110  -3.486   0.057  0.00  0.00    -0.274 N 
ATOM     11  C   UNL     1       0.135  -4.749  -0.528  0.00  0.00    +0.132 A 
ATOM     12  C   UNL     1       0.228  -5.662   0.477  0.00  0.00    +0.112 A 
ATOM     13  N   UNL     1       0.262  -4.983   1.655  0.00  0.00    -0.219 NA
ENDROOT
BRANCH  12  14
ATOM     14  C   UNL     1       0.284  -7.133   0.317  0.00  0.00    +0.007 A 
ATOM     15  C   UNL     1      -0.432  -7.753  -0.707  0.00  0.00    +0.014 A 
ATOM     16  C   UNL     1      -0.379  -9.124  -0.856  0.00  0.00    +0.050 A 
ATOM     17  C   UNL     1       0.386  -9.889   0.012  0.00  0.00    +0.161 A 
ATOM     18  C   UNL     1       1.104  -9.276   1.036  0.00  0.00    +0.159 A 
ATOM     19  C   UNL     1       1.058  -7.902   1.186  0.00  0.00    +0.059 A 
BRANCH  18  20
ATOM     20  O   UNL     1       1.853 -10.029   1.885  0.00  0.00    -0.503 OA
ATOM     21  H   UNL     1       2.765 -10.161   1.592  0.00  0.00    +0.292 HD
ENDBRANCH  18  20
BRANCH  17  22
ATOM     22  O   UNL     1       0.435 -11.240  -0.138  0.00  0.00    -0.491 OA
ATOM     23  C   UNL     1      -0.325 -11.802  -1.210  0.00  0.00    +0.277 C 
ENDBRANCH  17  22
ENDBRANCH  12  14
BRANCH  11  24
ATOM     24  N   UNL     1       0.074  -5.029  -1.894  0.00  0.00    -0.324 N 
ATOM     25  H   UNL     1       0.128  -5.946  -2.205  0.00  0.00    +0.148 HD
BRANCH  24  26
ATOM     26  C   UNL     1      -0.069  -3.936  -2.860  0.00  0.00    +0.025 C 
ATOM     27  C   UNL     1       1.165  -3.034  -2.796  0.00  0.00    +0.031 C 
ATOM     28  C   UNL     1      -0.205  -4.516  -4.269  0.00  0.00    +0.031 C 
ATOM     29  C   UNL     1      -1.317  -3.117  -2.522  0.00  0.00    +0.031 C 
ENDBRANCH  24  26
ENDBRANCH  11  24
TORSDOF 5
