REMARK  Name = ZINC45945451
REMARK  13 active torsions:
REMARK  status: ('A' for Active; 'I' for Inactive)
REMARK    1  A    between atoms: C_1  and  C_2
REMARK    2  A    between atoms: C_5  and  C_35
REMARK    3  A    between atoms: N_8  and  C_10
REMARK    4  A    between atoms: C_10  and  C_11
REMARK    5  A    between atoms: C_11  and  N_12
REMARK    6  A    between atoms: N_12  and  C_13
REMARK    7  A    between atoms: N_12  and  S_23
REMARK    8  A    between atoms: C_13  and  C_14
REMARK    9  A    between atoms: C_14  and  C_15
REMARK   10  A    between atoms: S_23  and  C_26
REMARK   11  A    between atoms: C_29  and  C_32
REMARK   12  A    between atoms: C_32  and  C_33
REMARK   13  A    between atoms: C_32  and  C_34
REMARK                            x       y       z     vdW  Elec       q    Type
REMARK                         _______ _______ _______ _____ _____    ______ ____
ROOT
ATOM      1  N   UNL     1       2.927  -0.202   4.830  0.00  0.00    -0.178 NA
ENDROOT
BRANCH   1   2
ATOM      2  S   UNL     1       2.897   0.722   6.204  0.00  0.00    +0.061 S 
ATOM      3  O   UNL     1       4.080   0.413   6.927  0.00  0.00    -0.153 OA
ATOM      4  O   UNL     1       2.577   2.046   5.796  0.00  0.00    -0.153 OA
BRANCH   2   5
ATOM      5  C   UNL     1       1.545   0.157   7.183  0.00  0.00    +0.105 A 
ATOM      6  C   UNL     1       0.292   0.716   7.019  0.00  0.00    +0.029 A 
ATOM      7  C   UNL     1      -0.769   0.272   7.787  0.00  0.00    +0.006 A 
ATOM      8  C   UNL     1      -0.575  -0.731   8.718  0.00  0.00    -0.045 A 
ATOM      9  C   UNL     1       0.678  -1.291   8.881  0.00  0.00    +0.006 A 
ATOM     10  C   UNL     1       1.737  -0.850   8.110  0.00  0.00    +0.029 A 
BRANCH   8  11
ATOM     11  C   UNL     1      -1.731  -1.214   9.556  0.00  0.00    +0.013 C 
ATOM     12  C   UNL     1      -1.957  -2.706   9.302  0.00  0.00    +0.012 C 
ATOM     13  C   UNL     1      -1.416  -0.991  11.037  0.00  0.00    +0.012 C 
ENDBRANCH   8  11
ENDBRANCH   2   5
ENDBRANCH   1   2
BRANCH   1  14
ATOM     14  C   UNL     1       2.174   0.221   3.646  0.00  0.00    +0.091 C 
BRANCH  14  15
ATOM     15  C   UNL     1       0.807  -0.464   3.639  0.00  0.00    -0.061 C 
BRANCH  15  21
ATOM     16  C   UNL     1      -0.019   1.526   0.010  0.00  0.00    +0.005 C 
ATOM     17  C   UNL     1       0.002  -0.004   0.002  0.00  0.00    -0.031 C 
ATOM     18  C   UNL     1      -1.434  -0.535   0.015  0.00  0.00    +0.003 C 
ATOM     19  C   UNL     1      -2.117  -0.099   1.315  0.00  0.00    -0.031 C 
ATOM     20  C   UNL     1      -1.302  -0.604   2.507  0.00  0.00    -0.076 C 
ATOM     21  N   UNL     1       0.052  -0.040   2.452  0.00  0.00    +0.381 N 
ATOM     22  C   UNL     1       0.740  -0.512   1.242  0.00  0.00    -0.076 C 
ATOM     23  C   UNL     1      -3.528  -0.689   1.373  0.00  0.00    +0.005 C 
ATOM     24  H   UNL     1      -0.004   0.967   2.434  0.00  0.00    -0.082 HD
ENDBRANCH  15  21
ENDBRANCH  14  15
ENDBRANCH   1  14
BRANCH   1  25
ATOM     25  C   UNL     1       3.705  -1.442   4.798  0.00  0.00    +0.118 C 
BRANCH  25  26
ATOM     26  C   UNL     1       5.086  -1.163   4.202  0.00  0.00    +0.113 C 
BRANCH  26  27
ATOM     27  C   UNL     1       5.887  -2.439   4.169  0.00  0.00    +0.217 C 
ATOM     28  O   UNL     1       5.401  -3.470   4.582  0.00  0.00    -0.276 OA
ATOM     29  N   UNL     1       7.143  -2.433   3.681  0.00  0.00    -0.299 N 
ATOM     30  C   UNL     1       7.754  -1.192   3.180  0.00  0.00    +0.123 C 
ATOM     31  C   UNL     1       8.317  -1.457   1.780  0.00  0.00    +0.100 C 
ATOM     32  N   UNL     1       9.218  -2.617   1.829  0.00  0.00    -0.313 NA
ATOM     33  C   UNL     1       8.496  -3.836   2.216  0.00  0.00    +0.100 C 
ATOM     34  C   UNL     1       7.942  -3.668   3.640  0.00  0.00    +0.123 C 
ATOM     35  H   UNL     1       9.694  -2.742   0.949  0.00  0.00    +0.122 HD
ENDBRANCH  26  27
ENDBRANCH  25  26
ENDBRANCH   1  25
TORSDOF 9
