REMARK  Name = ZINC38705042
REMARK  14 active torsions:
REMARK  status: ('A' for Active; 'I' for Inactive)
REMARK    1  A    between atoms: C_1  and  C_2
REMARK    2  A    between atoms: C_2  and  C_3
REMARK    3  A    between atoms: C_3  and  C_4
REMARK    4  A    between atoms: C_4  and  C_5
REMARK    5  A    between atoms: C_5  and  N_6
REMARK    6  A    between atoms: C_7  and  C_26
REMARK    7  A    between atoms: C_10  and  C_17
REMARK    8  A    between atoms: C_18  and  C_25
REMARK    9  A    between atoms: C_20  and  C_24
REMARK   10  A    between atoms: C_22  and  O_23
REMARK   11  A    between atoms: C_29  and  O_35
REMARK   12  A    between atoms: C_30  and  O_32
REMARK   13  A    between atoms: O_32  and  C_33
REMARK   14  A    between atoms: C_33  and  C_34
REMARK                            x       y       z     vdW  Elec       q    Type
REMARK                         _______ _______ _______ _____ _____    ______ ____
ROOT
ATOM      1  N   UNL     1       1.484  -4.078   2.525  0.00  0.00    -0.285 N 
ATOM      2  C   UNL     1       0.458  -4.995   3.038  0.00  0.00    +0.141 C 
ATOM      3  C   UNL     1       0.971  -6.384   2.773  0.00  0.00    +0.035 A 
ATOM      4  C   UNL     1       0.752  -7.762   2.877  0.00  0.00    +0.102 A 
ATOM      5  N   UNL     1       1.797  -8.369   2.348  0.00  0.00    -0.173 NA
ATOM      6  N   UNL     1       2.653  -7.511   1.920  0.00  0.00    -0.272 N 
ATOM      7  H   UNL     1       3.496  -7.730   1.493  0.00  0.00    +0.189 HD
ATOM      8  C   UNL     1       2.199  -6.244   2.154  0.00  0.00    +0.126 A 
ATOM      9  C   UNL     1       2.487  -4.812   2.010  0.00  0.00    +0.265 C 
ATOM     10  O   UNL     1       3.491  -4.355   1.499  0.00  0.00    -0.268 OA
ENDROOT
BRANCH   4  11
ATOM     11  C   UNL     1      -0.436  -8.420   3.475  0.00  0.00    +0.047 A 
ATOM     12  C   UNL     1      -0.275  -9.435   4.415  0.00  0.00    -0.037 A 
ATOM     13  C   UNL     1      -1.383 -10.044   4.968  0.00  0.00    +0.007 A 
ATOM     14  C   UNL     1      -2.655  -9.650   4.592  0.00  0.00    -0.047 A 
ATOM     15  C   UNL     1      -2.826  -8.644   3.660  0.00  0.00    +0.049 A 
ATOM     16  C   UNL     1      -1.722  -8.021   3.101  0.00  0.00    +0.127 A 
ATOM     17  C   UNL     1      -3.859 -10.321   5.201  0.00  0.00    +0.044 C 
ATOM     18  C   UNL     1       1.109  -9.869   4.827  0.00  0.00    +0.044 C 
BRANCH  16  19
ATOM     19  O   UNL     1      -1.889  -7.028   2.189  0.00  0.00    -0.506 OA
ATOM     20  H   UNL     1      -2.010  -7.343   1.283  0.00  0.00    +0.292 HD
ENDBRANCH  16  19
ENDBRANCH   4  11
BRANCH   2  21
ATOM     21  C   UNL     1       0.268  -4.785   4.518  0.00  0.00    -0.019 A 
ATOM     22  C   UNL     1       1.370  -4.668   5.345  0.00  0.00    +0.009 A 
ATOM     23  C   UNL     1       1.201  -4.475   6.704  0.00  0.00    +0.049 A 
ATOM     24  C   UNL     1      -0.075  -4.397   7.239  0.00  0.00    +0.158 A 
ATOM     25  C   UNL     1      -1.184  -4.514   6.406  0.00  0.00    +0.162 A 
ATOM     26  C   UNL     1      -1.007  -4.703   5.045  0.00  0.00    +0.055 A 
BRANCH  24  27
ATOM     27  O   UNL     1      -0.243  -4.208   8.575  0.00  0.00    -0.503 OA
ATOM     28  H   UNL     1      -0.290  -3.278   8.838  0.00  0.00    +0.292 HD
ENDBRANCH  24  27
BRANCH  25  29
ATOM     29  O   UNL     1      -2.438  -4.439   6.927  0.00  0.00    -0.489 OA
BRANCH  29  30
ATOM     30  C   UNL     1      -3.529  -4.567   6.013  0.00  0.00    +0.226 C 
ATOM     31  C   UNL     1      -4.850  -4.457   6.776  0.00  0.00    +0.048 C 
ENDBRANCH  29  30
ENDBRANCH  25  29
ENDBRANCH   2  21
BRANCH   1  32
ATOM     32  C   UNL     1       1.423  -2.615   2.561  0.00  0.00    +0.109 C 
BRANCH  32  33
ATOM     33  C   UNL     1       0.746  -2.101   1.289  0.00  0.00    +0.019 C 
BRANCH  33  34
ATOM     34  C   UNL     1       0.682  -0.573   1.327  0.00  0.00    +0.001 C 
BRANCH  34  36
ATOM     35  C   UNL     1      -0.059   1.470   0.094  0.00  0.00    +0.004 C 
ATOM     36  C   UNL     1       0.005  -0.058   0.055  0.00  0.00    -0.003 C 
ENDBRANCH  34  36
ENDBRANCH  33  34
ENDBRANCH  32  33
ENDBRANCH   1  32
TORSDOF 10
