REMARK  Name = ZINC43746648
REMARK  8 active torsions:
REMARK  status: ('A' for Active; 'I' for Inactive)
REMARK    1  A    between atoms: C_1  and  S_2
REMARK    2  A    between atoms: S_2  and  C_3
REMARK    3  A    between atoms: C_3  and  C_4
REMARK    4  A    between atoms: C_4  and  C_5
REMARK    5  A    between atoms: C_5  and  C_7
REMARK    6  A    between atoms: C_5  and  N_16
REMARK    7  A    between atoms: N_9  and  C_10
REMARK    8  A    between atoms: C_17  and  C_19
REMARK                            x       y       z     vdW  Elec       q    Type
REMARK                         _______ _______ _______ _____ _____    ______ ____
ROOT
ATOM      1  C   UNL     1      -5.056  -0.244   2.704  0.00  0.00    +0.167 C 
ATOM      2  C   UNL     1      -4.032  -0.357   3.842  0.00  0.00    +0.069 C 
ATOM      3  C   UNL     1      -3.096   0.825   3.820  0.00  0.00    -0.015 A 
ATOM      4  C   UNL     1      -1.817   0.946   4.498  0.00  0.00    +0.003 A 
ATOM      5  C   UNL     1      -1.095   0.069   5.313  0.00  0.00    +0.010 A 
ATOM      6  C   UNL     1       0.107   0.521   5.797  0.00  0.00    +0.001 A 
ATOM      7  C   UNL     1       0.592   1.784   5.500  0.00  0.00    +0.002 A 
ATOM      8  C   UNL     1      -0.102   2.672   4.696  0.00  0.00    +0.026 A 
ATOM      9  C   UNL     1      -1.325   2.239   4.188  0.00  0.00    +0.047 A 
ATOM     10  N   UNL     1      -2.245   2.840   3.379  0.00  0.00    -0.356 N 
ATOM     11  H   UNL     1      -2.169   3.736   3.016  0.00  0.00    +0.166 HD
ATOM     12  C   UNL     1      -3.292   1.986   3.156  0.00  0.00    +0.046 A 
ATOM     13  C   UNL     1      -4.499   2.242   2.287  0.00  0.00    +0.155 C 
ATOM     14  N   UNL     1      -5.464   1.160   2.601  0.00  0.00    -0.273 N 
ATOM     15  C   UNL     1      -6.671   1.709   2.792  0.00  0.00    +0.248 C 
ATOM     16  O   UNL     1      -7.719   1.095   2.844  0.00  0.00    -0.270 OA
ATOM     17  C   UNL     1      -6.534   3.163   2.927  0.00  0.00    +0.042 A 
ATOM     18  C   UNL     1      -5.183   3.525   2.618  0.00  0.00    -0.009 A 
ATOM     19  C   UNL     1      -4.736   4.826   2.660  0.00  0.00    +0.006 A 
ATOM     20  C   UNL     1      -5.666   5.804   2.999  0.00  0.00    +0.000 A 
ATOM     21  C   UNL     1      -6.981   5.492   3.280  0.00  0.00    +0.001 A 
ATOM     22  C   UNL     1      -7.472   4.140   3.265  0.00  0.00    +0.013 A 
ENDROOT
BRANCH   1  24
ATOM     23  N   UNL     1      -3.966  -1.949   1.281  0.00  0.00    -0.302 N 
ATOM     24  C   UNL     1      -4.430  -0.690   1.408  0.00  0.00    +0.235 C 
ATOM     25  O   UNL     1      -4.343   0.084   0.478  0.00  0.00    -0.274 OA
ATOM     26  H   UNL     1      -4.035  -2.568   2.025  0.00  0.00    +0.150 HD
BRANCH  23  27
ATOM     27  C   UNL     1      -3.356  -2.382   0.021  0.00  0.00    +0.160 C 
BRANCH  27  28
ATOM     28  C   UNL     1      -3.482  -3.878  -0.109  0.00  0.00    +0.234 C 
ATOM     29  O   UNL     1      -4.027  -4.519   0.764  0.00  0.00    -0.274 OA
ATOM     30  N   UNL     1      -2.989  -4.503  -1.197  0.00  0.00    -0.311 N 
ATOM     31  H   UNL     1      -2.554  -3.990  -1.895  0.00  0.00    +0.149 HD
BRANCH  30  32
ATOM     32  C   UNL     1      -3.112  -5.958  -1.324  0.00  0.00    +0.073 C 
ATOM     33  C   UNL     1      -1.951  -6.633  -0.591  0.00  0.00    +0.022 C 
ATOM     34  C   UNL     1      -2.079  -8.152  -0.723  0.00  0.00    +0.002 C 
ATOM     35  C   UNL     1      -2.042  -8.540  -2.203  0.00  0.00    +0.000 C 
ATOM     36  C   UNL     1      -3.203  -7.864  -2.936  0.00  0.00    +0.002 C 
ATOM     37  C   UNL     1      -3.075  -6.345  -2.803  0.00  0.00    +0.022 C 
ENDBRANCH  30  32
ENDBRANCH  27  28
BRANCH  27  38
ATOM     38  C   UNL     1      -1.877  -1.992   0.009  0.00  0.00    +0.042 C 
BRANCH  38  39
ATOM     39  C   UNL     1      -1.752  -0.467   0.016  0.00  0.00    +0.071 C 
BRANCH  39  41
ATOM     40  C   UNL     1      -0.022   1.810   0.012  0.00  0.00    +0.084 C 
ATOM     41  S   UNL     1       0.002  -0.004   0.002  0.00  0.00    -0.164 S 
ENDBRANCH  39  41
ENDBRANCH  38  39
ENDBRANCH  27  38
ENDBRANCH  23  27
ENDBRANCH   1  24
TORSDOF 7
