REMARK  Name = ZINC28535031
REMARK  7 active torsions:
REMARK  status: ('A' for Active; 'I' for Inactive)
REMARK    1  A    between atoms: C_1  and  C_2
REMARK    2  A    between atoms: C_5  and  C_24
REMARK    3  A    between atoms: C_6  and  C_8
REMARK    4  A    between atoms: C_8  and  C_10
REMARK    5  A    between atoms: C_10  and  N_11
REMARK    6  A    between atoms: N_14  and  N_18
REMARK    7  A    between atoms: N_18  and  C_19
REMARK                            x       y       z     vdW  Elec       q    Type
REMARK                         _______ _______ _______ _____ _____    ______ ____
ROOT
ATOM      1  N   UNL     1      -0.083   0.344  -5.232  0.00  0.00    -0.230 N 
ATOM      2  C   UNL     1      -1.018   0.509  -6.190  0.00  0.00    +0.197 A 
ATOM      3  S   UNL     1      -1.710  -0.726  -7.153  0.00  0.00    -0.010 S 
ATOM      4  N   UNL     1      -1.311   1.823  -6.250  0.00  0.00    -0.206 N 
ATOM      5  C   UNL     1      -0.540   2.482  -5.320  0.00  0.00    +0.231 A 
ATOM      6  N   UNL     1       0.202   1.610  -4.701  0.00  0.00    -0.133 NA
ATOM      7  N   UNL     1      -0.551   3.848  -5.082  0.00  0.00    -0.326 N 
ATOM      8  H   UNL     1       0.107   4.278  -4.312  0.00  0.00    +0.145 HD
ATOM      9  H   UNL     1      -1.219   4.502  -5.662  0.00  0.00    +0.145 HD
ENDROOT
BRANCH   4  10
ATOM     10  N   UNL     1      -2.239   2.418  -7.114  0.00  0.00    -0.242 N 
ATOM     11  H   UNL     1      -1.924   2.750  -8.115  0.00  0.00    +0.174 HD
BRANCH  10  12
ATOM     12  C   UNL     1      -3.563   2.590  -6.707  0.00  0.00    +0.084 A 
ATOM     13  C   UNL     1      -4.579   3.240  -7.340  0.00  0.00    +0.032 A 
ATOM     14  C   UNL     1      -5.824   3.277  -6.738  0.00  0.00    +0.009 A 
ATOM     15  C   UNL     1      -5.992   2.677  -5.536  0.00  0.00    +0.047 A 
ATOM     16  S   UNL     1      -4.363   2.021  -5.215  0.00  0.00    -0.081 S 
ENDBRANCH  10  12
ENDBRANCH   4  10
BRANCH   1  17
ATOM     17  C   UNL     1       0.527  -0.924  -4.825  0.00  0.00    +0.225 C 
BRANCH  17  18
ATOM     18  C   UNL     1      -0.284  -1.538  -3.712  0.00  0.00    +0.185 C 
ATOM     19  O   UNL     1      -1.274  -0.972  -3.300  0.00  0.00    -0.290 OA
BRANCH  18  25
ATOM     20  C   UNL     1       2.999  -5.276  -3.381  0.00  0.00    +0.044 C 
ATOM     21  C   UNL     1       1.704  -4.628  -2.962  0.00  0.00    -0.050 A 
ATOM     22  C   UNL     1       0.893  -5.248  -2.027  0.00  0.00    +0.003 A 
ATOM     23  C   UNL     1      -0.298  -4.662  -1.636  0.00  0.00    +0.004 A 
ATOM     24  C   UNL     1      -0.686  -3.454  -2.177  0.00  0.00    -0.040 A 
ATOM     25  C   UNL     1       0.125  -2.824  -3.126  0.00  0.00    +0.022 A 
ATOM     26  C   UNL     1       1.331  -3.421  -3.512  0.00  0.00    +0.015 A 
ATOM     27  C   UNL     1      -1.983  -2.817  -1.750  0.00  0.00    +0.044 C 
ENDBRANCH  18  25
ENDBRANCH  17  18
ENDBRANCH   1  17
TORSDOF 5
