REMARK  Name = ZINC09963353
REMARK  10 active torsions:
REMARK  status: ('A' for Active; 'I' for Inactive)
REMARK    1  A    between atoms: C_1  and  C_2
REMARK    2  A    between atoms: C_7  and  C_37
REMARK    3  A    between atoms: C_9  and  C_10
REMARK    4  A    between atoms: C_9  and  N_76
REMARK    5  A    between atoms: C_10  and  C_11
REMARK    6  A    between atoms: C_11  and  N_12
REMARK    7  A    between atoms: C_13  and  C_15
REMARK    8  A    between atoms: C_15  and  N_16
REMARK    9  A    between atoms: C_19  and  S_27
REMARK   10  A    between atoms: S_27  and  N_30
REMARK                            x       y       z     vdW  Elec       q    Type
REMARK                         _______ _______ _______ _____ _____    ______ ____
ROOT
ATOM      1  N   UNL     1      -1.198   2.781  -2.876  0.00  0.00    -0.256 N 
ATOM      2  C   UNL     1       0.105   2.355  -3.174  0.00  0.00    +0.081 A 
ATOM      3  C   UNL     1       1.186   3.199  -2.987  0.00  0.00    +0.055 A 
ATOM      4  C   UNL     1       2.462   2.759  -3.287  0.00  0.00    +0.107 A 
ATOM      5  C   UNL     1       2.660   1.479  -3.772  0.00  0.00    +0.032 A 
ATOM      6  C   UNL     1       1.584   0.631  -3.961  0.00  0.00    +0.049 A 
ATOM      7  C   UNL     1       0.304   1.067  -3.667  0.00  0.00    +0.143 A 
ATOM      8  O   UNL     1      -0.765   0.244  -3.841  0.00  0.00    -0.481 OA
ATOM      9  C   UNL     1      -1.852   0.397  -2.925  0.00  0.00    +0.325 C 
ATOM     10  C   UNL     1      -2.179   1.860  -2.766  0.00  0.00    +0.258 C 
ATOM     11  O   UNL     1      -3.319   2.208  -2.539  0.00  0.00    -0.271 OA
ENDROOT
BRANCH   4  12
ATOM     12  S   UNL     1       3.840   3.831  -3.050  0.00  0.00    +0.061 S 
ATOM     13  O   UNL     1       3.449   4.785  -2.072  0.00  0.00    -0.153 OA
ATOM     14  O   UNL     1       4.980   2.999  -2.888  0.00  0.00    -0.153 OA
BRANCH  12  15
ATOM     15  N   UNL     1       4.060   4.666  -4.463  0.00  0.00    -0.177 NA
ATOM     16  C   UNL     1       4.936   4.108  -5.468  0.00  0.00    +0.109 C 
ATOM     17  C   UNL     1       6.383   4.591  -5.231  0.00  0.00    +0.017 C 
ATOM     18  C   UNL     1       6.505   6.018  -5.567  0.00  0.00    +0.001 C 
ATOM     19  C   UNL     1       5.650   6.942  -4.704  0.00  0.00    +0.001 C 
ATOM     20  C   UNL     1       4.260   7.021  -5.284  0.00  0.00    +0.017 C 
ATOM     21  C   UNL     1       3.357   5.952  -4.642  0.00  0.00    +0.109 C 
ENDBRANCH  12  15
ENDBRANCH   4  12
BRANCH   1  22
ATOM     22  C   UNL     1      -1.489   4.205  -2.688  0.00  0.00    +0.209 C 
BRANCH  22  24
ATOM     23  N   UNL     1      -2.175   6.129  -4.082  0.00  0.00    -0.314 N 
ATOM     24  C   UNL     1      -1.864   4.820  -4.012  0.00  0.00    +0.231 C 
ATOM     25  O   UNL     1      -1.886   4.137  -5.013  0.00  0.00    -0.274 OA
ATOM     26  H   UNL     1      -2.158   6.676  -3.281  0.00  0.00    +0.149 HD
BRANCH  23  27
ATOM     27  C   UNL     1      -2.540   6.727  -5.369  0.00  0.00    +0.102 C 
BRANCH  27  28
ATOM     28  C   UNL     1      -2.845   8.214  -5.172  0.00  0.00    +0.000 C 
BRANCH  28  29
ATOM     29  C   UNL     1      -3.226   8.838  -6.516  0.00  0.00    -0.077 C 
BRANCH  29  37
ATOM     30  C   UNL     1      -5.773   9.771  -5.768  0.00  0.00    -0.013 C 
ATOM     31  C   UNL     1      -4.511  10.533  -5.360  0.00  0.00    -0.071 C 
ATOM     32  C   UNL     1      -4.814  12.032  -5.310  0.00  0.00    -0.016 C 
ATOM     33  C   UNL     1      -3.544  12.793  -4.920  0.00  0.00    -0.003 C 
ATOM     34  C   UNL     1      -2.438  12.474  -5.930  0.00  0.00    -0.016 C 
ATOM     35  C   UNL     1      -2.203  10.962  -5.962  0.00  0.00    -0.071 C 
ATOM     36  C   UNL     1      -1.113  10.637  -6.984  0.00  0.00    -0.013 C 
ATOM     37  N   UNL     1      -3.457  10.290  -6.367  0.00  0.00    +0.383 N 
ATOM     38  H   UNL     1      -3.763  10.673  -7.269  0.00  0.00    -0.081 HD
ENDBRANCH  29  37
ENDBRANCH  28  29
ENDBRANCH  27  28
ENDBRANCH  23  27
ENDBRANCH  22  24
ENDBRANCH   1  22
TORSDOF 8
