REMARK  Name = ZINC56017326
REMARK  6 active torsions:
REMARK  status: ('A' for Active; 'I' for Inactive)
REMARK    1  A    between atoms: C_1  and  C_2
REMARK    2  A    between atoms: C_6  and  C_28
REMARK    3  A    between atoms: C_10  and  C_12
REMARK    4  A    between atoms: C_12  and  C_13
REMARK    5  A    between atoms: C_13  and  N_14
REMARK    6  A    between atoms: N_17  and  C_18
REMARK                            x       y       z     vdW  Elec       q    Type
REMARK                         _______ _______ _______ _____ _____    ______ ____
ROOT
ATOM      1  C   UNL     1       3.885  -2.348   1.907  0.00  0.00    +0.115 C 
ENDROOT
BRANCH   1   2
ATOM      2  N   UNL     1       4.576  -2.830   3.105  0.00  0.00    -0.299 N 
ATOM      3  C   UNL     1       5.748  -3.485   2.990  0.00  0.00    +0.300 C 
ATOM      4  O   UNL     1       6.232  -3.676   1.891  0.00  0.00    -0.253 OA
ATOM      5  N   UNL     1       6.383  -3.929   4.093  0.00  0.00    -0.294 N 
ATOM      6  H   UNL     1       4.189  -2.678   3.982  0.00  0.00    +0.150 HD
ATOM      7  H   UNL     1       5.997  -3.777   4.970  0.00  0.00    +0.151 HD
BRANCH   5   8
ATOM      8  C   UNL     1       7.657  -4.641   3.968  0.00  0.00    +0.037 C 
ATOM      9  C   UNL     1       8.685  -3.732   3.290  0.00  0.00    +0.029 C 
ATOM     10  C   UNL     1      10.016  -4.476   3.159  0.00  0.00    -0.008 C 
ATOM     11  C   UNL     1      10.520  -4.867   4.550  0.00  0.00    +0.007 C 
ATOM     12  C   UNL     1       9.492  -5.776   5.228  0.00  0.00    -0.008 C 
ATOM     13  C   UNL     1       8.162  -5.032   5.358  0.00  0.00    +0.029 C 
ATOM     14  C   UNL     1       9.291  -7.037   4.384  0.00  0.00    +0.007 C 
ATOM     15  C   UNL     1       8.787  -6.645   2.994  0.00  0.00    -0.008 C 
ATOM     16  C   UNL     1       9.815  -5.737   2.316  0.00  0.00    +0.007 C 
ATOM     17  C   UNL     1       7.457  -5.902   3.125  0.00  0.00    +0.029 C 
ENDBRANCH   5   8
ENDBRANCH   1   2
BRANCH   1  18
ATOM     18  C   UNL     1       2.589  -1.645   2.313  0.00  0.00    +0.114 C 
BRANCH  18  26
ATOM     19  C   UNL     1      -0.019   1.526   0.010  0.00  0.00    +0.028 C 
ATOM     20  C   UNL     1       0.002  -0.004   0.002  0.00  0.00    +0.073 C 
ATOM     21  C   UNL     1      -1.434  -0.537   0.020  0.00  0.00    +0.023 C 
ATOM     22  C   UNL     1      -2.101  -0.151   1.343  0.00  0.00    +0.016 C 
ATOM     23  C   UNL     1      -1.335  -0.786   2.506  0.00  0.00    +0.092 C 
ATOM     24  C   UNL     1       0.102  -0.256   2.516  0.00  0.00    +0.120 C 
ATOM     25  N   UNL     1       0.706  -0.494   1.195  0.00  0.00    -0.298 N 
ATOM     26  C   UNL     1       1.879  -1.149   1.080  0.00  0.00    +0.217 C 
ATOM     27  O   UNL     1       2.362  -1.339  -0.016  0.00  0.00    -0.276 OA
BRANCH  23  28
ATOM     28  C   UNL     1      -2.011  -0.433   3.805  0.00  0.00    +0.215 C 
ATOM     29  O   UNL     1      -3.008   0.259   3.802  0.00  0.00    -0.276 OA
ATOM     30  N   UNL     1      -1.509  -0.885   4.971  0.00  0.00    -0.329 N 
ATOM     31  H   UNL     1      -0.712  -1.438   4.974  0.00  0.00    +0.145 HD
ATOM     32  H   UNL     1      -1.945  -0.658   5.808  0.00  0.00    +0.145 HD
ENDBRANCH  23  28
ENDBRANCH  18  26
ENDBRANCH   1  18
TORSDOF 5
