REMARK  Name = ZINC38156722
REMARK  12 active torsions:
REMARK  status: ('A' for Active; 'I' for Inactive)
REMARK    1  A    between atoms: C_1  and  C_2
REMARK    2  A    between atoms: C_2  and  C_3
REMARK    3  A    between atoms: C_2  and  C_33
REMARK    4  A    between atoms: C_2  and  O_37
REMARK    5  A    between atoms: C_9  and  O_31
REMARK    6  A    between atoms: N_15  and  C_27
REMARK    7  A    between atoms: C_22  and  O_25
REMARK    8  A    between atoms: C_27  and  C_28
REMARK    9  A    between atoms: O_31  and  C_32
REMARK   10  A    between atoms: C_33  and  C_34
REMARK   11  A    between atoms: C_33  and  C_35
REMARK   12  A    between atoms: C_33  and  C_36
REMARK                            x       y       z     vdW  Elec       q    Type
REMARK                         _______ _______ _______ _____ _____    ______ ____
ROOT
ATOM      1  C   UNL     1       0.990  -0.306   0.435  0.00  0.00    +0.057 C 
ATOM      2  C   UNL     1       1.153  -1.818   0.636  0.00  0.00    +0.015 C 
ATOM      3  C   UNL     1       2.559  -2.225   0.220  0.00  0.00    -0.027 C 
ATOM      4  C   UNL     1       2.764  -1.888  -1.262  0.00  0.00    +0.009 C 
ATOM      5  C   UNL     1       2.595  -0.384  -1.476  0.00  0.00    +0.039 C 
ATOM      6  C   UNL     1       2.270   0.300  -0.148  0.00  0.00    +0.112 C 
ATOM      7  C   UNL     1       3.425   0.087   0.834  0.00  0.00    +0.217 C 
ATOM      8  C   UNL     1       3.575  -1.420   1.044  0.00  0.00    +0.042 C 
ATOM      9  C   UNL     1       3.567  -1.816   2.499  0.00  0.00    -0.003 C 
ATOM     10  C   UNL     1       3.686  -3.333   2.655  0.00  0.00    -0.077 C 
ATOM     11  N   UNL     1       2.625  -3.994   1.880  0.00  0.00    +0.382 N 
ATOM     12  C   UNL     1       2.853  -3.703   0.447  0.00  0.00    -0.057 C 
ATOM     13  C   UNL     1       4.288  -4.117   0.123  0.00  0.00    +0.021 C 
ATOM     14  C   UNL     1       5.231  -2.984  -0.101  0.00  0.00    -0.041 A 
ATOM     15  C   UNL     1       4.859  -1.725   0.331  0.00  0.00    +0.011 A 
ATOM     16  C   UNL     1       5.488  -0.539   0.014  0.00  0.00    +0.166 A 
ATOM     17  C   UNL     1       6.746  -0.622  -0.599  0.00  0.00    +0.159 A 
ATOM     18  C   UNL     1       7.206  -1.898  -0.920  0.00  0.00    +0.049 A 
ATOM     19  C   UNL     1       6.471  -3.054  -0.704  0.00  0.00    +0.007 A 
ATOM     20  O   UNL     1       4.677   0.520   0.271  0.00  0.00    -0.481 OA
ATOM     21  H   UNL     1       1.724  -3.637   2.161  0.00  0.00    -0.081 HD
ENDROOT
BRANCH   1  23
ATOM     22  C   UNL     1      -0.214   1.438  -0.889  0.00  0.00    +0.042 C 
ATOM     23  C   UNL     1      -0.174  -0.048  -0.524  0.00  0.00    +0.074 C 
BRANCH  23  24
ATOM     24  C   UNL     1      -1.489  -0.443   0.151  0.00  0.00    -0.009 C 
ATOM     25  C   UNL     1      -2.665   0.039  -0.702  0.00  0.00    +0.013 C 
ATOM     26  C   UNL     1      -1.552  -1.964   0.294  0.00  0.00    +0.013 C 
ATOM     27  C   UNL     1      -1.565   0.203   1.536  0.00  0.00    +0.013 C 
ENDBRANCH  23  24
BRANCH  23  28
ATOM     28  O   UNL     1       0.005  -0.825  -1.710  0.00  0.00    -0.388 OA
ATOM     29  H   UNL     1       0.039  -1.778  -1.554  0.00  0.00    +0.210 HD
ENDBRANCH  23  28
ENDBRANCH   1  23
BRANCH  17  30
ATOM     30  O   UNL     1       7.483   0.489  -0.867  0.00  0.00    -0.503 OA
ATOM     31  H   UNL     1       8.079   0.748  -0.151  0.00  0.00    +0.292 HD
ENDBRANCH  17  30
BRANCH   6  32
ATOM     32  O   UNL     1       2.078   1.699  -0.368  0.00  0.00    -0.373 OA
ATOM     33  C   UNL     1       3.219   2.364  -0.913  0.00  0.00    +0.194 C 
ENDBRANCH   6  32
BRANCH  11  34
ATOM     34  C   UNL     1       2.676  -5.445   2.105  0.00  0.00    -0.075 C 
BRANCH  34  35
ATOM     35  C   UNL     1       2.349  -5.746   3.570  0.00  0.00    -0.028 C 
ATOM     36  C   UNL     1       3.446  -6.389   4.420  0.00  0.00    +0.002 C 
ATOM     37  C   UNL     1       2.236  -7.215   3.981  0.00  0.00    +0.002 C 
ENDBRANCH  34  35
ENDBRANCH  11  34
TORSDOF 7
