REMARK  Name = ZINC22277323
REMARK  10 active torsions:
REMARK  status: ('A' for Active; 'I' for Inactive)
REMARK    1  A    between atoms: C_1  and  C_2
REMARK    2  A    between atoms: C_2  and  C_3
REMARK    3  A    between atoms: C_3  and  C_4
REMARK    4  A    between atoms: C_4  and  C_5
REMARK    5  A    between atoms: C_5  and  C_7
REMARK    6  A    between atoms: C_5  and  N_23
REMARK    7  A    between atoms: N_9  and  C_10
REMARK    8  A    between atoms: C_10  and  C_11
REMARK    9  A    between atoms: C_16  and  C_17
REMARK   10  A    between atoms: C_17  and  N_18
REMARK                            x       y       z     vdW  Elec       q    Type
REMARK                         _______ _______ _______ _____ _____    ______ ____
ROOT
ATOM      1  C   UNL     1      -1.290   1.681   0.017  0.00  0.00    +0.158 C 
ENDROOT
BRANCH   1   2
ATOM      2  N   UNL     1      -0.011   0.966   0.007  0.00  0.00    -0.316 N 
ATOM      3  C   UNL     1       1.173   1.671  -0.000  0.00  0.00    +0.150 C 
ATOM      4  N   UNL     1       1.164   2.966   0.007  0.00  0.00    -0.113 NA
ATOM      5  S   UNL     1       2.770   3.435  -0.006  0.00  0.00    +0.101 S 
ATOM      6  O   UNL     1       3.029   4.057  -1.256  0.00  0.00    -0.146 OA
ATOM      7  O   UNL     1       3.054   4.044   1.246  0.00  0.00    -0.146 OA
ATOM      8  C   UNL     1       3.550   1.844  -0.022  0.00  0.00    +0.123 A 
ATOM      9  C   UNL     1       2.461   0.961  -0.011  0.00  0.00    +0.043 A 
ATOM     10  C   UNL     1       2.744  -0.413  -0.028  0.00  0.00    +0.013 A 
ATOM     11  C   UNL     1       4.048  -0.854  -0.043  0.00  0.00    +0.001 A 
ATOM     12  C   UNL     1       5.103   0.041  -0.048  0.00  0.00    +0.002 A 
ATOM     13  C   UNL     1       4.842   1.404  -0.038  0.00  0.00    +0.030 A 
ATOM     14  H   UNL     1       0.004  -0.134   0.006  0.00  0.00    +0.148 HD
ENDBRANCH   1   2
BRANCH   1  15
ATOM     15  C   UNL     1      -2.360   0.806  -0.583  0.00  0.00    +0.234 C 
ATOM     16  O   UNL     1      -2.081  -0.306  -0.980  0.00  0.00    -0.274 OA
ATOM     17  N   UNL     1      -3.625   1.258  -0.678  0.00  0.00    -0.310 N 
ATOM     18  H   UNL     1      -3.878   2.267  -0.319  0.00  0.00    +0.149 HD
BRANCH  17  19
ATOM     19  C   UNL     1      -4.665   0.407  -1.262  0.00  0.00    +0.139 C 
BRANCH  19  20
ATOM     20  C   UNL     1      -5.981   1.143  -1.252  0.00  0.00    -0.029 A 
ATOM     21  C   UNL     1      -6.917   0.872  -0.271  0.00  0.00    +0.005 A 
ATOM     22  C   UNL     1      -8.121   1.550  -0.259  0.00  0.00    +0.000 A 
ATOM     23  C   UNL     1      -8.394   2.492  -1.233  0.00  0.00    +0.000 A 
ATOM     24  C   UNL     1      -7.460   2.760  -2.217  0.00  0.00    +0.002 A 
ATOM     25  C   UNL     1      -6.253   2.085  -2.226  0.00  0.00    -0.059 A 
BRANCH  25  26
ATOM     26  C   UNL     1      -5.235   2.376  -3.298  0.00  0.00    -0.043 C 
BRANCH  26  27
ATOM     27  N   UNL     1      -5.305   1.338  -4.335  0.00  0.00    +0.382 N 
ATOM     28  C   UNL     1      -6.695   1.175  -4.832  0.00  0.00    -0.078 C 
ATOM     29  C   UNL     1      -6.502   0.485  -6.206  0.00  0.00    -0.020 C 
ATOM     30  C   UNL     1      -5.224   1.160  -6.755  0.00  0.00    -0.020 C 
ATOM     31  C   UNL     1      -4.496   1.711  -5.515  0.00  0.00    -0.078 C 
ATOM     32  H   UNL     1      -4.929   0.418  -3.863  0.00  0.00    -0.081 HD
ENDBRANCH  26  27
ENDBRANCH  25  26
ENDBRANCH  19  20
ENDBRANCH  17  19
ENDBRANCH   1  15
BRANCH   1  33
ATOM     33  C   UNL     1      -1.667   2.032   1.458  0.00  0.00    +0.032 C 
BRANCH  33  34
ATOM     34  C   UNL     1      -0.646   3.020   2.026  0.00  0.00    +0.002 C 
BRANCH  34  36
ATOM     35  C   UNL     1      -0.002   4.359   4.035  0.00  0.00    +0.004 C 
ATOM     36  C   UNL     1      -1.022   3.371   3.467  0.00  0.00    -0.003 C 
ENDBRANCH  34  36
ENDBRANCH  33  34
ENDBRANCH   1  33
TORSDOF 9
