REMARK  Name = ZINC09050664
REMARK  12 active torsions:
REMARK  status: ('A' for Active; 'I' for Inactive)
REMARK    1  A    between atoms: C_1  and  C_2
REMARK    2  A    between atoms: C_2  and  C_3
REMARK    3  A    between atoms: C_3  and  C_5
REMARK    4  A    between atoms: C_3  and  N_29
REMARK    5  A    between atoms: N_7  and  N_8
REMARK    6  A    between atoms: C_20  and  C_23
REMARK    7  A    between atoms: C_20  and  C_24
REMARK    8  A    between atoms: C_30  and  O_32
REMARK    9  A    between atoms: O_32  and  C_33
REMARK   10  A    between atoms: C_33  and  C_34
REMARK   11  A    between atoms: C_33  and  C_35
REMARK   12  A    between atoms: C_33  and  C_36
REMARK                            x       y       z     vdW  Elec       q    Type
REMARK                         _______ _______ _______ _____ _____    ______ ____
ROOT
ATOM      1  N   UNL     1      -1.147   2.017   0.018  0.00  0.00    -0.142 NA
ATOM      2  C   UNL     1      -0.030   1.377  -0.213  0.00  0.00    +0.239 A 
ATOM      3  C   UNL     1       1.178   2.094  -0.657  0.00  0.00    +0.020 A 
ATOM      4  C   UNL     1       2.079   1.409  -1.389  0.00  0.00    -0.028 A 
ATOM      5  C   UNL     1       1.781  -0.001  -1.697  0.00  0.00    +0.021 A 
ATOM      6  C   UNL     1       2.506  -0.690  -2.670  0.00  0.00    +0.019 A 
ATOM      7  C   UNL     1       2.210  -2.011  -2.944  0.00  0.00    -0.005 A 
ATOM      8  C   UNL     1       1.194  -2.657  -2.252  0.00  0.00    +0.128 A 
ATOM      9  C   UNL     1       0.467  -1.976  -1.280  0.00  0.00    +0.092 A 
ATOM     10  C   UNL     1       0.751  -0.654  -0.999  0.00  0.00    +0.141 A 
ATOM     11  O   UNL     1       0.050   0.025  -0.055  0.00  0.00    -0.436 OA
ATOM     12  O   UNL     1       0.882  -3.958  -2.491  0.00  0.00    -0.486 OA
ATOM     13  C   UNL     1       1.347  -4.542  -3.709  0.00  0.00    +0.105 C 
ATOM     14  C   UNL     1       2.843  -4.236  -3.853  0.00  0.00    +0.052 C 
ATOM     15  C   UNL     1       3.010  -2.722  -4.007  0.00  0.00    +0.043 C 
ATOM     16  C   UNL     1       1.133  -6.057  -3.668  0.00  0.00    +0.055 C 
ATOM     17  C   UNL     1       0.582  -3.945  -4.892  0.00  0.00    +0.055 C 
ATOM     18  C   UNL     1       3.358   2.017  -1.889  0.00  0.00    +0.036 C 
ATOM     19  C   UNL     1       3.280   3.543  -1.846  0.00  0.00    +0.005 C 
ATOM     20  C   UNL     1       2.807   3.965  -0.450  0.00  0.00    +0.005 C 
ATOM     21  C   UNL     1       1.348   3.538  -0.286  0.00  0.00    +0.041 C 
ENDROOT
BRANCH   1  24
ATOM     22  C   UNL     1      -2.308   4.084   0.243  0.00  0.00    +0.253 C 
ATOM     23  O   UNL     1      -3.359   3.477   0.244  0.00  0.00    -0.272 OA
ATOM     24  N   UNL     1      -1.143   3.413   0.132  0.00  0.00    -0.202 N 
ATOM     25  H   UNL     1      -0.303   3.898   0.131  0.00  0.00    +0.177 HD
BRANCH  22  26
ATOM     26  C   UNL     1      -2.304   5.586   0.364  0.00  0.00    +0.163 C 
BRANCH  26  27
ATOM     27  N   UNL     1      -3.682   6.071   0.470  0.00  0.00    -0.270 N 
ATOM     28  C   UNL     1      -3.938   7.248   1.074  0.00  0.00    +0.401 C 
ATOM     29  O   UNL     1      -3.025   7.908   1.530  0.00  0.00    -0.226 OA
ATOM     30  H   UNL     1      -4.411   5.544   0.106  0.00  0.00    +0.153 HD
BRANCH  28  31
ATOM     31  O   UNL     1      -5.204   7.694   1.172  0.00  0.00    -0.445 OA
BRANCH  31  32
ATOM     32  C   UNL     1      -5.405   8.970   1.834  0.00  0.00    +0.107 C 
ATOM     33  C   UNL     1      -4.642  10.062   1.081  0.00  0.00    +0.055 C 
ATOM     34  C   UNL     1      -6.897   9.308   1.849  0.00  0.00    +0.055 C 
ATOM     35  C   UNL     1      -4.887   8.886   3.271  0.00  0.00    +0.055 C 
ENDBRANCH  31  32
ENDBRANCH  28  31
ENDBRANCH  26  27
BRANCH  26  37
ATOM     36  C   UNL     1      -1.526   7.711  -0.694  0.00  0.00    +0.006 C 
ATOM     37  C   UNL     1      -1.642   6.196  -0.873  0.00  0.00    +0.028 C 
ENDBRANCH  26  37
ENDBRANCH  22  26
ENDBRANCH   1  24
TORSDOF 6
