REMARK  Name = ZINC15671543
REMARK  6 active torsions:
REMARK  status: ('A' for Active; 'I' for Inactive)
REMARK    1  A    between atoms: C_1  and  C_2
REMARK    2  A    between atoms: C_5  and  C_9
REMARK    3  A    between atoms: C_6  and  O_8
REMARK    4  A    between atoms: C_14  and  C_23
REMARK    5  A    between atoms: N_32  and  C_37
REMARK    6  A    between atoms: N_35  and  C_36
REMARK                            x       y       z     vdW  Elec       q    Type
REMARK                         _______ _______ _______ _____ _____    ______ ____
ROOT
ATOM      1  C   UNL     1      -2.162   1.289   0.235  0.00  0.00    +0.256 C 
ATOM      2  C   UNL     1      -2.935   1.048   1.513  0.00  0.00    +0.094 A 
ATOM      3  C   UNL     1      -3.999   1.666   1.998  0.00  0.00    +0.084 A 
ATOM      4  C   UNL     1      -4.312   1.015   3.296  0.00  0.00    +0.089 A 
ATOM      5  C   UNL     1      -3.372   0.029   3.477  0.00  0.00    +0.069 A 
ATOM      6  N   UNL     1      -2.554   0.042   2.395  0.00  0.00    -0.303 N 
ATOM      7  C   UNL     1      -1.468  -0.787   2.083  0.00  0.00    +0.089 A 
ATOM      8  C   UNL     1      -0.923  -1.654   3.010  0.00  0.00    +0.030 A 
ATOM      9  C   UNL     1       0.162  -2.439   2.661  0.00  0.00    +0.002 A 
ATOM     10  C   UNL     1       0.693  -2.357   1.387  0.00  0.00    +0.004 A 
ATOM     11  C   UNL     1       0.137  -1.507   0.450  0.00  0.00    +0.048 A 
ATOM     12  C   UNL     1      -0.958  -0.724   0.783  0.00  0.00    +0.146 A 
ATOM     13  O   UNL     1      -1.544   0.060  -0.158  0.00  0.00    -0.476 OA
ATOM     14  C   UNL     1      -5.454   1.494   4.080  0.00  0.00    +0.266 A 
ATOM     15  O   UNL     1      -5.758   1.005   5.152  0.00  0.00    -0.267 OA
ATOM     16  N   UNL     1      -6.149   2.522   3.529  0.00  0.00    -0.263 N 
ATOM     17  C   UNL     1      -5.842   3.083   2.355  0.00  0.00    +0.332 A 
ATOM     18  O   UNL     1      -6.548   3.996   1.973  0.00  0.00    -0.246 OA
ATOM     19  N   UNL     1      -4.813   2.721   1.558  0.00  0.00    -0.294 N 
ATOM     20  C   UNL     1      -4.557   3.402   0.286  0.00  0.00    +0.154 C 
ATOM     21  C   UNL     1      -7.304   3.046   4.263  0.00  0.00    +0.157 C 
ENDROOT
BRANCH   1  26
ATOM     22  C   UNL     1       1.905   5.298   1.138  0.00  0.00    +0.044 C 
ATOM     23  C   UNL     1       0.842   4.256   0.902  0.00  0.00    -0.047 A 
ATOM     24  C   UNL     1       0.904   3.045   1.567  0.00  0.00    +0.004 A 
ATOM     25  C   UNL     1      -0.070   2.087   1.353  0.00  0.00    +0.011 A 
ATOM     26  C   UNL     1      -1.104   2.336   0.471  0.00  0.00    +0.040 A 
ATOM     27  C   UNL     1      -1.170   3.552  -0.193  0.00  0.00    +0.124 A 
ATOM     28  C   UNL     1      -0.192   4.512   0.024  0.00  0.00    +0.049 A 
BRANCH  27  29
ATOM     29  O   UNL     1      -2.189   3.800  -1.057  0.00  0.00    -0.506 OA
ATOM     30  H   UNL     1      -1.978   3.605  -1.980  0.00  0.00    +0.292 HD
ENDBRANCH  27  29
ENDBRANCH   1  26
BRANCH   5  31
ATOM     31  C   UNL     1      -3.272  -0.878   4.637  0.00  0.00    -0.000 A 
ATOM     32  C   UNL     1      -3.324  -2.262   4.451  0.00  0.00    +0.013 A 
ATOM     33  C   UNL     1      -3.224  -3.104   5.537  0.00  0.00    +0.039 A 
ATOM     34  C   UNL     1      -3.083  -2.581   6.813  0.00  0.00    +0.123 A 
ATOM     35  C   UNL     1      -3.036  -1.209   7.004  0.00  0.00    +0.039 A 
ATOM     36  C   UNL     1      -3.129  -0.356   5.925  0.00  0.00    +0.013 A 
ATOM     37  F   UNL     1      -2.992  -3.412   7.875  0.00  0.00    -0.205 F 
ENDBRANCH   5  31
TORSDOF 3
