REMARK  Name = ZINC39685898
REMARK  12 active torsions:
REMARK  status: ('A' for Active; 'I' for Inactive)
REMARK    1  A    between atoms: C_1  and  C_2
REMARK    2  A    between atoms: C_6  and  C_7
REMARK    3  A    between atoms: C_11  and  C_20
REMARK    4  A    between atoms: N_22  and  C_23
REMARK    5  A    between atoms: C_23  and  C_25
REMARK    6  A    between atoms: C_23  and  C_28
REMARK    7  A    between atoms: C_25  and  C_26
REMARK    8  A    between atoms: C_25  and  C_27
REMARK    9  A    between atoms: N_30  and  C_31
REMARK   10  A    between atoms: C_31  and  C_32
REMARK   11  A    between atoms: C_31  and  C_33
REMARK   12  A    between atoms: C_31  and  C_34
REMARK                            x       y       z     vdW  Elec       q    Type
REMARK                         _______ _______ _______ _____ _____    ______ ____
ROOT
ATOM      1  C   UNL     1      -2.174   0.075   4.040  0.00  0.00    +0.254 C 
ATOM      2  O   UNL     1      -2.667   1.083   4.512  0.00  0.00    -0.269 OA
ATOM      3  N   UNL     1      -2.019  -1.023   4.806  0.00  0.00    -0.296 N 
ATOM      4  C   UNL     1      -1.344  -2.292   4.449  0.00  0.00    +0.121 C 
ATOM      5  C   UNL     1      -0.588  -2.707   5.731  0.00  0.00    +0.100 C 
ATOM      6  C   UNL     1      -1.343  -2.010   6.875  0.00  0.00    -0.004 C 
ATOM      7  C   UNL     1      -2.481  -1.230   6.200  0.00  0.00    +0.115 C 
ATOM      8  C   UNL     1      -0.416  -1.047   7.611  0.00  0.00    -0.010 C 
ATOM      9  C   UNL     1      -1.174  -0.409   8.778  0.00  0.00    -0.082 C 
ATOM     10  N   UNL     1      -1.646  -1.458   9.690  0.00  0.00    +0.379 N 
ATOM     11  C   UNL     1      -2.608  -2.326   9.000  0.00  0.00    -0.082 C 
ATOM     12  C   UNL     1      -1.912  -3.045   7.841  0.00  0.00    -0.010 C 
ATOM     13  H   UNL     1      -0.860  -2.010  10.000  0.00  0.00    -0.086 HD
ATOM     14  H   UNL     1      -2.091  -1.033  10.489  0.00  0.00    -0.086 HD
ENDROOT
BRANCH   1  20
ATOM     15  C   UNL     1      -2.133   2.496   2.080  0.00  0.00    +0.045 C 
ATOM     16  C   UNL     1      -1.708   1.096   1.721  0.00  0.00    -0.031 A 
ATOM     17  C   UNL     1      -1.251   0.770   0.467  0.00  0.00    +0.011 A 
ATOM     18  C   UNL     1      -0.884  -0.510   0.211  0.00  0.00    +0.046 A 
ATOM     19  S   UNL     1      -1.147  -1.312   1.664  0.00  0.00    -0.092 S 
ATOM     20  C   UNL     1      -1.748   0.056   2.637  0.00  0.00    +0.077 A 
ENDBRANCH   1  20
BRANCH   5  21
ATOM     21  C   UNL     1      -0.632  -4.203   5.905  0.00  0.00    +0.219 C 
ATOM     22  O   UNL     1      -1.567  -4.838   5.465  0.00  0.00    -0.275 OA
ATOM     23  N   UNL     1       0.368  -4.836   6.550  0.00  0.00    -0.303 N 
ATOM     24  H   UNL     1       1.116  -4.328   6.902  0.00  0.00    +0.149 HD
BRANCH  23  25
ATOM     25  C   UNL     1       0.326  -6.290   6.720  0.00  0.00    +0.161 C 
BRANCH  25  26
ATOM     26  C   UNL     1       1.144  -6.680   7.924  0.00  0.00    +0.234 C 
ATOM     27  O   UNL     1       2.043  -5.960   8.305  0.00  0.00    -0.274 OA
ATOM     28  N   UNL     1       0.877  -7.828   8.578  0.00  0.00    -0.309 N 
ATOM     29  H   UNL     1       0.212  -8.442   8.228  0.00  0.00    +0.149 HD
BRANCH  28  30
ATOM     30  C   UNL     1       1.591  -8.149   9.816  0.00  0.00    +0.026 C 
ATOM     31  C   UNL     1       1.321  -7.060  10.857  0.00  0.00    +0.031 C 
ATOM     32  C   UNL     1       1.103  -9.497  10.351  0.00  0.00    +0.031 C 
ATOM     33  C   UNL     1       3.093  -8.225   9.534  0.00  0.00    +0.031 C 
ENDBRANCH  28  30
ENDBRANCH  25  26
BRANCH  25  34
ATOM     34  C   UNL     1       0.900  -6.966   5.473  0.00  0.00    +0.012 C 
ATOM     35  C   UNL     1      -0.001  -6.670   4.272  0.00  0.00    +0.009 C 
ATOM     36  C   UNL     1       2.305  -6.426   5.202  0.00  0.00    +0.009 C 
ENDBRANCH  25  34
ENDBRANCH  23  25
ENDBRANCH   5  21
TORSDOF 6
