REMARK  Name = ZINC43219051
REMARK  5 active torsions:
REMARK  status: ('A' for Active; 'I' for Inactive)
REMARK    1  A    between atoms: C_4  and  C_7
REMARK    2  A    between atoms: C_7  and  C_38
REMARK    3  A    between atoms: C_12  and  C_15
REMARK    4  A    between atoms: N_26  and  C_29
REMARK    5  A    between atoms: C_33  and  N_35
REMARK                            x       y       z     vdW  Elec       q    Type
REMARK                         _______ _______ _______ _____ _____    ______ ____
ROOT
ATOM      1  C   UNL     1       3.428  -0.980  -0.119  0.00  0.00    +0.074 C 
ATOM      2  C   UNL     1       3.631  -2.136   0.882  0.00  0.00    +0.091 C 
ATOM      3  C   UNL     1       5.037  -1.892   1.494  0.00  0.00    +0.080 C 
ATOM      4  C   UNL     1       5.558  -0.620   0.793  0.00  0.00    +0.011 C 
ATOM      5  N   UNL     1       4.323   0.101   0.368  0.00  0.00    +0.400 N 
ATOM      6  C   UNL     1       4.739  -1.591   2.945  0.00  0.00    +0.229 C 
ATOM      7  O   UNL     1       5.568  -1.338   3.793  0.00  0.00    -0.275 OA
ATOM      8  N   UNL     1       3.417  -1.646   3.148  0.00  0.00    -0.210 N 
ATOM      9  C   UNL     1       2.688  -1.953   2.051  0.00  0.00    +0.229 C 
ATOM     10  O   UNL     1       1.482  -2.063   2.002  0.00  0.00    -0.275 OA
ATOM     11  H   UNL     1       4.536   0.746  -0.379  0.00  0.00    -0.083 HD
ATOM     12  H   UNL     1       3.901   0.586   1.145  0.00  0.00    -0.083 HD
ENDROOT
BRANCH   4  13
ATOM     13  C   UNL     1       6.340   0.229   1.760  0.00  0.00    +0.093 A 
ATOM     14  C   UNL     1       7.678   0.271   1.837  0.00  0.00    +0.051 A 
ATOM     15  C   UNL     1       7.996   1.223   2.908  0.00  0.00    +0.020 A 
ATOM     16  C   UNL     1       9.181   1.700   3.468  0.00  0.00    +0.011 A 
ATOM     17  C   UNL     1       9.130   2.611   4.486  0.00  0.00    +0.001 A 
ATOM     18  C   UNL     1       7.909   3.063   4.964  0.00  0.00    +0.004 A 
ATOM     19  C   UNL     1       6.728   2.604   4.423  0.00  0.00    +0.047 A 
ATOM     20  C   UNL     1       6.756   1.677   3.388  0.00  0.00    +0.135 A 
ATOM     21  O   UNL     1       5.798   1.060   2.668  0.00  0.00    -0.461 OA
ENDBRANCH   4  13
BRANCH   1  25
ATOM     22  C   UNL     1      -0.638   0.327  -0.084  0.00  0.00    +0.000 A 
ATOM     23  C   UNL     1       0.367   1.185   0.320  0.00  0.00    +0.000 A 
ATOM     24  C   UNL     1       1.683   0.762   0.309  0.00  0.00    +0.003 A 
ATOM     25  C   UNL     1       1.994  -0.519  -0.106  0.00  0.00    -0.047 A 
ATOM     26  C   UNL     1       0.988  -1.378  -0.509  0.00  0.00    +0.003 A 
ATOM     27  C   UNL     1      -0.328  -0.954  -0.500  0.00  0.00    +0.000 A 
ENDBRANCH   1  25
BRANCH   8  28
ATOM     28  C   UNL     1       2.832  -1.412   4.401  0.00  0.00    +0.046 A 
ATOM     29  C   UNL     1       2.044  -0.286   4.601  0.00  0.00    +0.024 A 
ATOM     30  C   UNL     1       1.469  -0.058   5.835  0.00  0.00    +0.004 A 
ATOM     31  C   UNL     1       1.678  -0.950   6.872  0.00  0.00    +0.033 A 
ATOM     32  C   UNL     1       2.462  -2.071   6.676  0.00  0.00    +0.128 A 
ATOM     33  C   UNL     1       3.035  -2.308   5.441  0.00  0.00    +0.056 A 
BRANCH  32  34
ATOM     34  N   UNL     1       2.683  -3.022   7.788  0.00  0.00    +0.056 N 
ATOM     35  O   UNL     1       2.178  -2.818   8.867  0.00  0.00    -0.126 OA
ATOM     36  O   UNL     1       3.369  -4.003   7.618  0.00  0.00    -0.126 OA
ENDBRANCH  32  34
ENDBRANCH   8  28
BRANCH   1  37
ATOM     37  C   UNL     1       3.829  -1.408  -1.507  0.00  0.00    +0.350 C 
ATOM     38  O   UNL     1       4.739  -0.836  -2.083  0.00  0.00    -0.248 OA
ATOM     39  O   UNL     1       3.243  -2.326  -2.055  0.00  0.00    -0.248 OA
ENDBRANCH   1  37
TORSDOF 5
