REMARK  Name = ZINC33260162
REMARK  7 active torsions:
REMARK  status: ('A' for Active; 'I' for Inactive)
REMARK    1  A    between atoms: C_1  and  C_2
REMARK    2  A    between atoms: N_5  and  C_8
REMARK    3  A    between atoms: C_8  and  C_9
REMARK    4  A    between atoms: C_9  and  C_10
REMARK    5  A    between atoms: C_10  and  N_11
REMARK    6  A    between atoms: C_12  and  C_14
REMARK    7  A    between atoms: C_26  and  C_29
REMARK                            x       y       z     vdW  Elec       q    Type
REMARK                         _______ _______ _______ _____ _____    ______ ____
ROOT
ATOM      1  C   UNL     1       5.608   7.939   2.262  0.00  0.00    +0.078 C 
ATOM      2  C   UNL     1       4.845   8.595   1.108  0.00  0.00    +0.031 C 
ATOM      3  C   UNL     1       4.777  10.106   1.341  0.00  0.00    +0.107 C 
ATOM      4  N   UNL     1       6.137  10.652   1.427  0.00  0.00    -0.314 N 
ATOM      5  C   UNL     1       6.873  10.072   2.557  0.00  0.00    +0.107 C 
ATOM      6  C   UNL     1       7.005   8.560   2.360  0.00  0.00    +0.031 C 
ATOM      7  C   UNL     1       6.112  12.041   1.508  0.00  0.00    +0.142 A 
ATOM      8  C   UNL     1       5.452  12.785   0.511  0.00  0.00    +0.049 A 
ATOM      9  C   UNL     1       5.421  14.142   0.581  0.00  0.00    +0.053 A 
ATOM     10  C   UNL     1       6.056  14.788   1.658  0.00  0.00    +0.178 A 
ATOM     11  N   UNL     1       6.202  16.059   2.005  0.00  0.00    -0.128 NA
ATOM     12  N   UNL     1       6.878  16.133   3.098  0.00  0.00    -0.127 NA
ATOM     13  C   UNL     1       7.202  14.923   3.513  0.00  0.00    +0.185 A 
ATOM     14  N   UNL     1       6.691  14.035   2.613  0.00  0.00    -0.191 N 
ATOM     15  N   UNL     1       6.701  12.642   2.516  0.00  0.00    -0.148 NA
ENDROOT
BRANCH  13  16
ATOM     16  C   UNL     1       7.976  14.591   4.727  0.00  0.00    +0.021 A 
ATOM     17  C   UNL     1       8.510  13.312   4.891  0.00  0.00    +0.013 A 
ATOM     18  C   UNL     1       9.235  13.010   6.025  0.00  0.00    +0.021 A 
ATOM     19  C   UNL     1       9.427  13.971   7.004  0.00  0.00    +0.041 A 
ATOM     20  C   UNL     1       8.896  15.240   6.849  0.00  0.00    +0.021 A 
ATOM     21  C   UNL     1       8.172  15.555   5.718  0.00  0.00    +0.013 A 
ATOM     22 CL   UNL     1      10.335  13.582   8.431  0.00  0.00    -0.084 Cl
ENDBRANCH  13  16
BRANCH   1  24
ATOM     23  N   UNL     1       4.624   5.702   1.882  0.00  0.00    -0.315 N 
ATOM     24  C   UNL     1       5.732   6.459   2.007  0.00  0.00    +0.216 C 
ATOM     25  O   UNL     1       6.829   5.949   1.915  0.00  0.00    -0.276 OA
ATOM     26  H   UNL     1       3.630   6.164   1.965  0.00  0.00    +0.149 HD
BRANCH  23  27
ATOM     27  C   UNL     1       4.745   4.263   1.634  0.00  0.00    +0.102 C 
BRANCH  27  28
ATOM     28  C   UNL     1       3.349   3.644   1.534  0.00  0.00    +0.000 C 
BRANCH  28  29
ATOM     29  C   UNL     1       3.474   2.142   1.275  0.00  0.00    -0.077 C 
BRANCH  29  34
ATOM     30  C   UNL     1      -1.431  -0.535   0.074  0.00  0.00    +0.007 C 
ATOM     31  C   UNL     1       0.002  -0.004   0.002  0.00  0.00    -0.018 C 
ATOM     32  C   UNL     1      -0.019   1.527   0.010  0.00  0.00    -0.016 C 
ATOM     33  C   UNL     1       1.419   2.052  -0.001  0.00  0.00    -0.079 C 
ATOM     34  N   UNL     1       2.134   1.548   1.179  0.00  0.00    +0.380 N 
ATOM     35  C   UNL     1       2.208   0.081   1.168  0.00  0.00    -0.079 C 
ATOM     36  C   UNL     1       0.794  -0.503   1.214  0.00  0.00    -0.016 C 
ATOM     37  H   UNL     1       1.565   1.848   2.070  0.00  0.00    -0.082 HD
ENDBRANCH  29  34
ENDBRANCH  28  29
ENDBRANCH  27  28
ENDBRANCH  23  27
ENDBRANCH   1  24
TORSDOF 6
