REMARK  Name = ZINC00930940
REMARK  10 active torsions:
REMARK  status: ('A' for Active; 'I' for Inactive)
REMARK    1  A    between atoms: C_1  and  O_2
REMARK    2  A    between atoms: O_2  and  C_3
REMARK    3  A    between atoms: C_8  and  C_9
REMARK    4  A    between atoms: C_9  and  N_10
REMARK    5  A    between atoms: N_10  and  C_11
REMARK    6  A    between atoms: C_11  and  C_13
REMARK    7  A    between atoms: C_11  and  C_20
REMARK    8  A    between atoms: C_16  and  O_19
REMARK    9  A    between atoms: N_22  and  C_23
REMARK   10  A    between atoms: C_29  and  C_31
REMARK                            x       y       z     vdW  Elec       q    Type
REMARK                         _______ _______ _______ _____ _____    ______ ____
ROOT
ATOM      1  N   UNL     1      -1.104  -1.587   1.249  0.00  0.00    -0.278 N 
ATOM      2  C   UNL     1      -1.749  -2.060   2.333  0.00  0.00    +0.261 C 
ATOM      3  O   UNL     1      -2.907  -1.756   2.531  0.00  0.00    -0.271 OA
ENDROOT
BRANCH   2   4
ATOM      4  C   UNL     1      -1.033  -2.966   3.300  0.00  0.00    +0.296 C 
ATOM      5  C   UNL     1      -1.029  -4.402   2.758  0.00  0.00    +0.283 C 
ATOM      6  O   UNL     1      -0.354  -5.237   3.705  0.00  0.00    -0.484 OA
ATOM      7  C   UNL     1      -0.700  -5.082   5.013  0.00  0.00    +0.162 A 
ATOM      8  C   UNL     1      -0.370  -6.073   5.926  0.00  0.00    +0.049 A 
ATOM      9  C   UNL     1      -0.712  -5.929   7.257  0.00  0.00    +0.004 A 
ATOM     10  C   UNL     1      -1.383  -4.797   7.682  0.00  0.00    +0.004 A 
ATOM     11  C   UNL     1      -1.715  -3.807   6.777  0.00  0.00    +0.049 A 
ATOM     12  C   UNL     1      -1.377  -3.946   5.440  0.00  0.00    +0.163 A 
ATOM     13  O   UNL     1      -1.714  -2.964   4.559  0.00  0.00    -0.473 OA
ENDBRANCH   2   4
BRANCH   1  14
ATOM     14  C   UNL     1       0.274  -2.002   0.977  0.00  0.00    +0.147 C 
BRANCH  14  20
ATOM     15  C   UNL     1       1.525  -0.383   2.427  0.00  0.00    +0.125 A 
ATOM     16  C   UNL     1       2.379   0.699   2.586  0.00  0.00    +0.046 A 
ATOM     17  C   UNL     1       2.894   1.339   1.476  0.00  0.00    +0.004 A 
ATOM     18  C   UNL     1       2.562   0.901   0.207  0.00  0.00    +0.001 A 
ATOM     19  C   UNL     1       1.715  -0.179   0.046  0.00  0.00    +0.009 A 
ATOM     20  C   UNL     1       1.198  -0.824   1.153  0.00  0.00    +0.012 A 
BRANCH  15  22
ATOM     21  C   UNL     1       1.393  -0.504   4.798  0.00  0.00    +0.277 C 
ATOM     22  O   UNL     1       1.013  -1.013   3.518  0.00  0.00    -0.495 OA
ENDBRANCH  15  22
ENDBRANCH  14  20
ENDBRANCH   1  14
BRANCH   1  23
ATOM     23  C   UNL     1      -1.781  -0.657   0.341  0.00  0.00    +0.193 C 
BRANCH  23  24
ATOM     24  C   UNL     1      -2.917  -1.367  -0.349  0.00  0.00    -0.018 A 
ATOM     25  C   UNL     1      -3.493  -0.812  -1.478  0.00  0.00    +0.009 A 
ATOM     26  C   UNL     1      -4.535  -1.461  -2.112  0.00  0.00    +0.046 A 
ATOM     27  C   UNL     1      -5.003  -2.669  -1.617  0.00  0.00    +0.117 A 
ATOM     28  C   UNL     1      -4.423  -3.223  -0.485  0.00  0.00    +0.046 A 
ATOM     29  C   UNL     1      -3.382  -2.571   0.146  0.00  0.00    +0.009 A 
BRANCH  27  30
ATOM     30  O   UNL     1      -6.028  -3.309  -2.239  0.00  0.00    -0.507 OA
ATOM     31  H   UNL     1      -6.903  -3.062  -1.911  0.00  0.00    +0.292 HD
ENDBRANCH  27  30
ENDBRANCH  23  24
BRANCH  23  32
ATOM     32  C   UNL     1      -2.321   0.509   1.128  0.00  0.00    +0.238 C 
ATOM     33  O   UNL     1      -2.157   0.559   2.329  0.00  0.00    -0.273 OA
ATOM     34  N   UNL     1      -2.987   1.497   0.497  0.00  0.00    -0.311 N 
ATOM     35  H   UNL     1      -3.119   1.457  -0.463  0.00  0.00    +0.149 HD
BRANCH  34  36
ATOM     36  C   UNL     1      -3.513   2.631   1.262  0.00  0.00    +0.073 C 
ATOM     37  C   UNL     1      -4.885   2.269   1.833  0.00  0.00    +0.022 C 
ATOM     38  C   UNL     1      -5.434   3.453   2.631  0.00  0.00    +0.002 C 
ATOM     39  C   UNL     1      -5.568   4.669   1.713  0.00  0.00    +0.000 C 
ATOM     40  C   UNL     1      -4.195   5.031   1.143  0.00  0.00    +0.002 C 
ATOM     41  C   UNL     1      -3.646   3.847   0.344  0.00  0.00    +0.022 C 
ENDBRANCH  34  36
ENDBRANCH  23  32
ENDBRANCH   1  23
TORSDOF 9
