REMARK  Name = ZINC36637700
REMARK  14 active torsions:
REMARK  status: ('A' for Active; 'I' for Inactive)
REMARK    1  A    between atoms: C_1  and  C_2
REMARK    2  A    between atoms: C_2  and  C_3
REMARK    3  A    between atoms: C_3  and  C_4
REMARK    4  A    between atoms: C_4  and  N_5
REMARK    5  A    between atoms: N_5  and  C_6
REMARK    6  A    between atoms: N_5  and  S_8
REMARK    7  A    between atoms: C_6  and  C_7
REMARK    8  A    between atoms: S_8  and  C_11
REMARK    9  A    between atoms: C_14  and  C_17
REMARK   10  A    between atoms: N_19  and  C_20
REMARK   11  A    between atoms: C_20  and  C_21
REMARK   12  A    between atoms: C_21  and  N_22
REMARK   13  A    between atoms: N_22  and  C_23
REMARK   14  A    between atoms: N_22  and  C_24
REMARK                            x       y       z     vdW  Elec       q    Type
REMARK                         _______ _______ _______ _____ _____    ______ ____
ROOT
ATOM      1  C   UNL     1       5.851   1.806   3.546  0.00  0.00    +0.252 C 
ATOM      2  O   UNL     1       6.649   2.041   2.660  0.00  0.00    -0.270 OA
ATOM      3  N   UNL     1       5.862   2.541   4.675  0.00  0.00    -0.248 N 
ATOM      4  C   UNL     1       6.699   3.639   4.779  0.00  0.00    +0.168 A 
ATOM      5  N   UNL     1       6.854   4.464   5.788  0.00  0.00    -0.221 NA
ATOM      6  C   UNL     1       7.716   5.504   5.750  0.00  0.00    +0.116 A 
ATOM      7  C   UNL     1       7.976   6.460   6.761  0.00  0.00    +0.152 A 
ATOM      8  C   UNL     1       8.891   7.463   6.559  0.00  0.00    +0.079 A 
ATOM      9  C   UNL     1       9.591   7.575   5.364  0.00  0.00    +0.127 A 
ATOM     10  C   UNL     1       9.361   6.656   4.355  0.00  0.00    +0.055 A 
ATOM     11  C   UNL     1       8.447   5.650   4.550  0.00  0.00    +0.046 A 
ATOM     12  S   UNL     1       7.849   4.289   3.576  0.00  0.00    -0.052 S 
ATOM     13  F   UNL     1      10.487   8.572   5.189  0.00  0.00    -0.205 F 
ATOM     14  F   UNL     1       7.316   6.385   7.937  0.00  0.00    -0.203 F 
ENDROOT
BRANCH   1  18
ATOM     15  C   UNL     1       3.025  -1.331   3.079  0.00  0.00    +0.106 A 
ATOM     16  C   UNL     1       3.248  -0.444   2.040  0.00  0.00    +0.029 A 
ATOM     17  C   UNL     1       4.164   0.577   2.185  0.00  0.00    +0.015 A 
ATOM     18  C   UNL     1       4.867   0.715   3.383  0.00  0.00    +0.037 A 
ATOM     19  C   UNL     1       4.638  -0.184   4.427  0.00  0.00    +0.015 A 
ATOM     20  C   UNL     1       3.715  -1.197   4.271  0.00  0.00    +0.029 A 
BRANCH  15  21
ATOM     21  S   UNL     1       1.853  -2.632   2.885  0.00  0.00    +0.061 S 
ATOM     22  O   UNL     1       2.221  -3.650   3.806  0.00  0.00    -0.153 OA
ATOM     23  O   UNL     1       1.740  -2.872   1.489  0.00  0.00    -0.153 OA
BRANCH  21  24
ATOM     24  N   UNL     1       0.387  -2.049   3.386  0.00  0.00    -0.177 NA
BRANCH  24  25
ATOM     25  C   UNL     1      -0.017  -2.187   4.787  0.00  0.00    +0.106 C 
ATOM     26  C   UNL     1      -0.873  -3.445   4.950  0.00  0.00    +0.022 C 
ENDBRANCH  24  25
BRANCH  24  27
ATOM     27  C   UNL     1      -0.507  -1.394   2.427  0.00  0.00    +0.109 C 
BRANCH  27  28
ATOM     28  C   UNL     1      -0.296   0.120   2.485  0.00  0.00    +0.017 C 
BRANCH  28  30
ATOM     29  C   UNL     1      -1.018   2.318   1.541  0.00  0.00    +0.004 C 
ATOM     30  C   UNL     1      -1.230   0.803   1.484  0.00  0.00    -0.002 C 
ENDBRANCH  28  30
ENDBRANCH  27  28
ENDBRANCH  24  27
ENDBRANCH  21  24
ENDBRANCH  15  21
ENDBRANCH   1  18
BRANCH   3  31
ATOM     31  C   UNL     1       4.988   2.178   5.794  0.00  0.00    +0.097 C 
BRANCH  31  32
ATOM     32  C   UNL     1       5.785   1.375   6.824  0.00  0.00    -0.060 C 
BRANCH  32  33
ATOM     33  N   UNL     1       4.882   0.899   7.880  0.00  0.00    +0.377 N 
ATOM     34  C   UNL     1       5.623   0.030   8.804  0.00  0.00    -0.097 C 
ATOM     35  C   UNL     1       4.341   2.049   8.617  0.00  0.00    -0.097 C 
ATOM     36  H   UNL     1       4.123   0.379   7.464  0.00  0.00    -0.083 HD
ENDBRANCH  32  33
ENDBRANCH  31  32
ENDBRANCH   3  31
TORSDOF 10
