REMARK  Name = ZINC28056217
REMARK  2 active torsions:
REMARK  status: ('A' for Active; 'I' for Inactive)
REMARK    1  A    between atoms: C_9  and  C_12
REMARK    2  A    between atoms: C_19  and  C_27
REMARK                            x       y       z     vdW  Elec       q    Type
REMARK                         _______ _______ _______ _____ _____    ______ ____
ROOT
ATOM      1  C   UNL     1      -3.688   4.137   4.280  0.00  0.00    +0.001 A 
ATOM      2  C   UNL     1      -3.446   3.224   5.292  0.00  0.00    +0.004 A 
ATOM      3  C   UNL     1      -2.675   2.100   5.054  0.00  0.00    +0.046 A 
ATOM      4  C   UNL     1      -2.142   1.887   3.796  0.00  0.00    +0.131 A 
ATOM      5  C   UNL     1      -2.382   2.809   2.776  0.00  0.00    +0.038 A 
ATOM      6  C   UNL     1      -3.163   3.936   3.018  0.00  0.00    +0.013 A 
ATOM      7  C   UNL     1      -1.802   2.548   1.437  0.00  0.00    +0.050 C 
ATOM      8  C   UNL     1      -0.822   1.652   1.332  0.00  0.00    +0.025 C 
ATOM      9  C   UNL     1      -0.319   0.967   2.583  0.00  0.00    +0.234 C 
ATOM     10  O   UNL     1      -1.380   0.798   3.523  0.00  0.00    -0.479 OA
ATOM     11  C   UNL     1      -0.181   1.300   0.012  0.00  0.00    +0.174 C 
ATOM     12  N   UNL     1      -0.973   1.837  -1.085  0.00  0.00    -0.201 N 
ATOM     13  C   UNL     1      -1.966   2.751  -0.927  0.00  0.00    +0.240 A 
ATOM     14  N   UNL     1      -2.447   3.010  -2.109  0.00  0.00    -0.092 NA
ATOM     15  N   UNL     1      -1.830   2.317  -3.004  0.00  0.00    -0.021 NA
ATOM     16  N   UNL     1      -0.921   1.578  -2.454  0.00  0.00    -0.042 NA
ATOM     17  N   UNL     1      -2.309   3.232   0.326  0.00  0.00    -0.282 N 
ATOM     18  H   UNL     1      -2.951   4.114   0.469  0.00  0.00    +0.155 HD
ENDROOT
BRANCH   9  19
ATOM     19  C   UNL     1       0.767   1.806   3.206  0.00  0.00    -0.003 A 
ATOM     20  C   UNL     1       2.087   1.403   3.120  0.00  0.00    +0.010 A 
ATOM     21  C   UNL     1       3.083   2.174   3.687  0.00  0.00    +0.039 A 
ATOM     22  C   UNL     1       2.759   3.345   4.351  0.00  0.00    +0.123 A 
ATOM     23  C   UNL     1       1.437   3.746   4.441  0.00  0.00    +0.039 A 
ATOM     24  C   UNL     1       0.442   2.976   3.868  0.00  0.00    +0.010 A 
ATOM     25  F   UNL     1       3.733   4.098   4.909  0.00  0.00    -0.205 F 
ENDBRANCH   9  19
BRANCH  11  26
ATOM     26  C   UNL     1       1.207   1.886  -0.041  0.00  0.00    -0.016 A 
ATOM     27  C   UNL     1       2.302   1.055  -0.190  0.00  0.00    +0.006 A 
ATOM     28  C   UNL     1       3.575   1.590  -0.239  0.00  0.00    +0.003 A 
ATOM     29  C   UNL     1       3.755   2.957  -0.139  0.00  0.00    +0.038 A 
ATOM     30  C   UNL     1       2.659   3.790   0.011  0.00  0.00    +0.124 A 
ATOM     31  C   UNL     1       1.384   3.253   0.054  0.00  0.00    +0.044 A 
ATOM     32  F   UNL     1       2.834   5.126   0.110  0.00  0.00    -0.205 F 
ENDBRANCH  11  26
TORSDOF 2
