REMARK  Name = ZINC41645032
REMARK  7 active torsions:
REMARK  status: ('A' for Active; 'I' for Inactive)
REMARK    1  A    between atoms: C_1  and  C_2
REMARK    2  A    between atoms: C_10  and  C_29
REMARK    3  A    between atoms: C_11  and  C_12
REMARK    4  A    between atoms: C_12  and  C_13
REMARK    5  A    between atoms: C_13  and  N_14
REMARK    6  A    between atoms: C_15  and  C_17
REMARK    7  A    between atoms: C_17  and  C_28
REMARK                            x       y       z     vdW  Elec       q    Type
REMARK                         _______ _______ _______ _____ _____    ______ ____
ROOT
ATOM      1  N   UNL     1       1.541  -5.802   3.739  0.00  0.00    -0.313 N 
ATOM      2  C   UNL     1       2.717  -6.422   3.958  0.00  0.00    +0.238 C 
ATOM      3  O   UNL     1       3.759  -5.836   3.751  0.00  0.00    -0.274 OA
ATOM      4  H   UNL     1       0.708  -6.271   3.905  0.00  0.00    +0.149 HD
ENDROOT
BRANCH   2   5
ATOM      5  C   UNL     1       2.739  -7.842   4.462  0.00  0.00    +0.170 C 
ATOM      6  C   UNL     1       4.109  -8.170   4.995  0.00  0.00    +0.242 C 
ATOM      7  O   UNL     1       4.878  -8.774   4.276  0.00  0.00    -0.273 OA
ATOM      8  N   UNL     1       4.518  -7.829   6.212  0.00  0.00    -0.283 N 
ATOM      9  C   UNL     1       3.749  -7.241   7.212  0.00  0.00    +0.047 A 
ATOM     10  C   UNL     1       4.386  -6.635   8.291  0.00  0.00    +0.024 A 
ATOM     11  C   UNL     1       3.645  -6.036   9.290  0.00  0.00    +0.002 A 
ATOM     12  C   UNL     1       2.264  -6.032   9.232  0.00  0.00    +0.001 A 
ATOM     13  C   UNL     1       1.617  -6.634   8.169  0.00  0.00    +0.016 A 
ATOM     14  C   UNL     1       2.355  -7.239   7.165  0.00  0.00    +0.031 A 
ATOM     15  S   UNL     1       1.536  -8.029   5.814  0.00  0.00    -0.098 S 
ATOM     16  C   UNL     1       2.383  -8.798   3.322  0.00  0.00    +0.043 C 
ATOM     17  H   UNL     1       5.447  -8.008   6.426  0.00  0.00    +0.155 HD
ENDBRANCH   2   5
BRANCH   1  18
ATOM     18  C   UNL     1       1.520  -4.422   3.249  0.00  0.00    +0.109 C 
BRANCH  18  19
ATOM     19  C   UNL     1       0.070  -3.960   3.085  0.00  0.00    +0.056 C 
BRANCH  19  30
ATOM     20  C   UNL     1      -0.018   1.503   0.010  0.00  0.00    +0.046 C 
ATOM     21  C   UNL     1       0.002  -0.004   0.002  0.00  0.00    -0.026 A 
ATOM     22  C   UNL     1       0.006  -0.687  -1.194  0.00  0.00    +0.007 A 
ATOM     23  C   UNL     1       0.025  -2.075  -1.218  0.00  0.00    +0.021 A 
ATOM     24  C   UNL     1       0.040  -2.791  -0.041  0.00  0.00    +0.050 A 
ATOM     25  C   UNL     1       0.037  -2.113   1.180  0.00  0.00    +0.022 A 
ATOM     26  C   UNL     1       0.023  -0.707   1.202  0.00  0.00    +0.051 A 
ATOM     27  N   UNL     1       0.029  -0.321   2.525  0.00  0.00    -0.358 N 
ATOM     28  H   UNL     1       0.019   0.597   2.838  0.00  0.00    +0.166 HD
ATOM     29  C   UNL     1       0.052  -1.427   3.331  0.00  0.00    +0.017 A 
ATOM     30  C   UNL     1       0.049  -2.540   2.581  0.00  0.00    -0.017 A 
ATOM     31  C   UNL     1       0.066  -1.398   4.838  0.00  0.00    +0.063 C 
ATOM     32 CL   UNL     1       0.062  -4.526  -0.076  0.00  0.00    -0.083 Cl
ENDBRANCH  19  30
ENDBRANCH  18  19
ENDBRANCH   1  18
TORSDOF 4
