REMARK  Name = ZINC39715064
REMARK  8 active torsions:
REMARK  status: ('A' for Active; 'I' for Inactive)
REMARK    1  A    between atoms: C_4  and  N_7
REMARK    2  A    between atoms: C_8  and  C_10
REMARK    3  A    between atoms: C_10  and  C_11
REMARK    4  A    between atoms: N_15  and  C_28
REMARK    5  A    between atoms: N_17  and  N_18
REMARK    6  A    between atoms: C_19  and  C_20
REMARK    7  A    between atoms: C_23  and  O_26
REMARK    8  A    between atoms: C_31  and  O_34
REMARK                            x       y       z     vdW  Elec       q    Type
REMARK                         _______ _______ _______ _____ _____    ______ ____
ROOT
ATOM      1  C   UNL     1       4.973  -4.248   0.168  0.00  0.00    +0.149 C 
ATOM      2  C   UNL     1       5.961  -5.333   0.565  0.00  0.00    +0.239 C 
ATOM      3  O   UNL     1       6.705  -5.853  -0.239  0.00  0.00    -0.274 OA
ATOM      4  N   UNL     1       5.958  -5.675   1.843  0.00  0.00    -0.217 N 
ATOM      5  C   UNL     1       5.115  -5.088   2.764  0.00  0.00    +0.190 C 
ATOM      6  N   UNL     1       5.018  -5.339   4.052  0.00  0.00    -0.126 NA
ATOM      7  S   UNL     1       4.184  -3.907   1.796  0.00  0.00    -0.075 S 
ENDROOT
BRANCH   4   8
ATOM      8  C   UNL     1       6.846  -6.670   2.277  0.00  0.00    +0.043 A 
ATOM      9  C   UNL     1       6.407  -7.979   2.417  0.00  0.00    +0.027 A 
ATOM     10  C   UNL     1       7.281  -8.959   2.845  0.00  0.00    +0.047 A 
ATOM     11  C   UNL     1       8.598  -8.634   3.136  0.00  0.00    +0.117 A 
ATOM     12  C   UNL     1       9.038  -7.326   2.996  0.00  0.00    +0.047 A 
ATOM     13  C   UNL     1       8.166  -6.347   2.562  0.00  0.00    +0.027 A 
BRANCH  11  14
ATOM     14  O   UNL     1       9.458  -9.599   3.558  0.00  0.00    -0.507 OA
ATOM     15  H   UNL     1       9.932 -10.044   2.842  0.00  0.00    +0.292 HD
ENDBRANCH  11  14
ENDBRANCH   4   8
BRANCH   6  16
ATOM     16  N   UNL     1       5.808  -6.196   4.604  0.00  0.00    -0.155 NA
ATOM     17  C   UNL     1       5.326  -7.108   5.405  0.00  0.00    +0.143 C 
BRANCH  17  18
ATOM     18  C   UNL     1       6.238  -8.010   6.125  0.00  0.00    -0.005 A 
ATOM     19  C   UNL     1       7.622  -7.822   6.043  0.00  0.00    +0.013 A 
ATOM     20  C   UNL     1       8.471  -8.671   6.719  0.00  0.00    +0.046 A 
ATOM     21  C   UNL     1       7.955  -9.711   7.481  0.00  0.00    +0.117 A 
ATOM     22  C   UNL     1       6.582  -9.902   7.566  0.00  0.00    +0.046 A 
ATOM     23  C   UNL     1       5.724  -9.056   6.899  0.00  0.00    +0.013 A 
BRANCH  21  24
ATOM     24  O   UNL     1       8.797 -10.545   8.146  0.00  0.00    -0.507 OA
ATOM     25  H   UNL     1       9.011 -10.255   9.043  0.00  0.00    +0.292 HD
ENDBRANCH  21  24
ENDBRANCH  17  18
ENDBRANCH   6  16
BRANCH   1  26
ATOM     26  C   UNL     1       5.694  -3.011  -0.369  0.00  0.00    +0.120 C 
BRANCH  26  28
ATOM     27  N   UNL     1       5.087  -0.794  -1.282  0.00  0.00    -0.285 N 
ATOM     28  C   UNL     1       4.679  -1.975  -0.777  0.00  0.00    +0.219 C 
ATOM     29  O   UNL     1       3.494  -2.204  -0.651  0.00  0.00    -0.275 OA
ATOM     30  H   UNL     1       6.029  -0.637  -1.450  0.00  0.00    +0.155 HD
BRANCH  27  34
ATOM     31  C   UNL     1       2.300   2.188  -2.121  0.00  0.00    +0.000 A 
ATOM     32  C   UNL     1       2.110   1.351  -1.037  0.00  0.00    +0.002 A 
ATOM     33  C   UNL     1       3.032   0.362  -0.756  0.00  0.00    +0.023 A 
ATOM     34  C   UNL     1       4.151   0.207  -1.564  0.00  0.00    +0.033 A 
ATOM     35  C   UNL     1       4.338   1.049  -2.653  0.00  0.00    +0.023 A 
ATOM     36  C   UNL     1       3.413   2.037  -2.928  0.00  0.00    +0.002 A 
ENDBRANCH  27  34
ENDBRANCH  26  28
ENDBRANCH   1  26
TORSDOF 8
