REMARK  Name = ZINC31164863
REMARK  20 active torsions:
REMARK  status: ('A' for Active; 'I' for Inactive)
REMARK    1  A    between atoms: C_1  and  C_2
REMARK    2  A    between atoms: C_2  and  C_3
REMARK    3  A    between atoms: C_3  and  C_5
REMARK    4  A    between atoms: C_3  and  C_35
REMARK    5  A    between atoms: C_5  and  C_6
REMARK    6  A    between atoms: C_6  and  O_7
REMARK    7  A    between atoms: O_7  and  C_8
REMARK    8  A    between atoms: C_10  and  O_34
REMARK    9  A    between atoms: C_12  and  O_33
REMARK   10  A    between atoms: C_14  and  O_32
REMARK   11  A    between atoms: C_16  and  C_19
REMARK   12  A    between atoms: C_19  and  O_20
REMARK   13  A    between atoms: O_20  and  C_21
REMARK   14  A    between atoms: C_23  and  O_31
REMARK   15  A    between atoms: C_25  and  C_28
REMARK   16  A    between atoms: C_25  and  O_30
REMARK   17  A    between atoms: C_28  and  O_29
REMARK   18  A    between atoms: C_35  and  C_36
REMARK   19  A    between atoms: C_35  and  C_37
REMARK   20  A    between atoms: C_35  and  O_38
REMARK                            x       y       z     vdW  Elec       q    Type
REMARK                         _______ _______ _______ _____ _____    ______ ____
ROOT
ATOM      1  C   UNL     1      -3.289   0.708   3.203  0.00  0.00    +0.282 C 
ATOM      2  C   UNL     1      -3.511   1.040   4.681  0.00  0.00    +0.201 C 
ATOM      3  C   UNL     1      -4.959   0.714   5.059  0.00  0.00    +0.179 C 
ATOM      4  C   UNL     1      -5.903   1.496   4.140  0.00  0.00    +0.177 C 
ATOM      5  C   UNL     1      -5.589   1.146   2.683  0.00  0.00    +0.178 C 
ATOM      6  O   UNL     1      -4.219   1.445   2.407  0.00  0.00    -0.341 OA
ENDROOT
BRANCH   2   7
ATOM      7  O   UNL     1      -2.621   0.261   5.484  0.00  0.00    -0.384 OA
ATOM      8  H   UNL     1      -2.635   0.364   6.579  0.00  0.00    +0.210 HD
ENDBRANCH   2   7
BRANCH   3   9
ATOM      9  O   UNL     1      -5.195   1.088   6.417  0.00  0.00    -0.386 OA
ATOM     10  H   UNL     1      -6.186   0.929   6.867  0.00  0.00    +0.210 HD
ENDBRANCH   3   9
BRANCH   4  11
ATOM     11  O   UNL     1      -7.256   1.144   4.434  0.00  0.00    -0.386 OA
ATOM     12  H   UNL     1      -8.080   1.607   3.872  0.00  0.00    +0.210 HD
ENDBRANCH   4  11
BRANCH   5  13
ATOM     13  C   UNL     1      -6.487   1.969   1.756  0.00  0.00    +0.197 C 
BRANCH  13  14
ATOM     14  O   UNL     1      -6.277   1.561   0.403  0.00  0.00    -0.346 OA
BRANCH  14  15
ATOM     15  C   UNL     1      -7.072   2.271  -0.549  0.00  0.00    +0.282 C 
ATOM     16  C   UNL     1      -6.939   1.628  -1.947  0.00  0.00    +0.206 C 
ATOM     17  C   UNL     1      -6.951   2.831  -2.916  0.00  0.00    +0.142 C 
ATOM     18  C   UNL     1      -7.090   4.059  -1.989  0.00  0.00    +0.202 C 
ATOM     19  O   UNL     1      -6.578   3.618  -0.711  0.00  0.00    -0.346 OA
BRANCH  16  20
ATOM     20  O   UNL     1      -5.707   0.911  -2.054  0.00  0.00    -0.384 OA
ATOM     21  H   UNL     1      -5.452   0.391  -2.989  0.00  0.00    +0.210 HD
ENDBRANCH  16  20
BRANCH  17  22
ATOM     22  O   UNL     1      -5.727   2.894  -3.651  0.00  0.00    -0.381 OA
ATOM     23  H   UNL     1      -5.569   3.695  -4.388  0.00  0.00    +0.210 HD
ENDBRANCH  17  22
BRANCH  17  24
ATOM     24  C   UNL     1      -8.143   2.739  -3.870  0.00  0.00    +0.195 C 
BRANCH  24  25
ATOM     25  O   UNL     1      -8.133   3.861  -4.755  0.00  0.00    -0.392 OA
ATOM     26  H   UNL     1      -8.919   3.967  -5.518  0.00  0.00    +0.210 HD
ENDBRANCH  24  25
ENDBRANCH  17  24
ENDBRANCH  14  15
ENDBRANCH  13  14
ENDBRANCH   5  13
BRANCH   1  27
ATOM     27  O   UNL     1      -1.956   1.062   2.830  0.00  0.00    -0.349 OA
BRANCH  27  28
ATOM     28  C   UNL     1      -1.609   0.691   1.494  0.00  0.00    +0.163 C 
BRANCH  28  29
ATOM     29  C   UNL     1      -0.168   1.117   1.205  0.00  0.00    +0.034 C 
BRANCH  29  30
ATOM     30  C   UNL     1       0.204   0.719  -0.225  0.00  0.00    +0.022 C 
BRANCH  30  31
ATOM     31  C   UNL     1       1.681   1.031  -0.473  0.00  0.00    +0.063 C 
ATOM     32  C   UNL     1       1.898   2.545  -0.421  0.00  0.00    +0.041 C 
ATOM     33  C   UNL     1       2.533   0.357   0.604  0.00  0.00    +0.041 C 
BRANCH  31  34
ATOM     34  O   UNL     1       2.063   0.539  -1.759  0.00  0.00    -0.389 OA
ATOM     35  H   UNL     1       3.095   0.672  -2.115  0.00  0.00    +0.210 HD
ENDBRANCH  31  34
ENDBRANCH  30  31
BRANCH  30  37
ATOM     36  C   UNL     1      -0.391   1.004  -2.634  0.00  0.00    +0.004 C 
ATOM     37  C   UNL     1      -0.657   1.506  -1.214  0.00  0.00    +0.003 C 
ENDBRANCH  30  37
ENDBRANCH  29  30
ENDBRANCH  28  29
ENDBRANCH  27  28
ENDBRANCH   1  27
TORSDOF 17
