REMARK  Name = ZINC20696027
REMARK  6 active torsions:
REMARK  status: ('A' for Active; 'I' for Inactive)
REMARK    1  A    between atoms: C_1  and  N_2
REMARK    2  A    between atoms: N_2  and  C_3
REMARK    3  A    between atoms: N_2  and  S_9
REMARK    4  A    between atoms: S_9  and  C_12
REMARK    5  A    between atoms: C_25  and  C_28
REMARK    6  A    between atoms: C_33  and  O_34
REMARK                            x       y       z     vdW  Elec       q    Type
REMARK                         _______ _______ _______ _____ _____    ______ ____
ROOT
ATOM      1  C   UNL     1       8.892   3.808  -0.303  0.00  0.00    +0.109 A 
ATOM      2  C   UNL     1       8.556   3.015  -1.386  0.00  0.00    +0.030 A 
ATOM      3  C   UNL     1       7.249   2.605  -1.554  0.00  0.00    +0.025 A 
ATOM      4  C   UNL     1       6.277   2.989  -0.639  0.00  0.00    +0.031 A 
ATOM      5  C   UNL     1       6.609   3.782   0.448  0.00  0.00    -0.018 A 
ATOM      6  C   UNL     1       7.927   4.188   0.607  0.00  0.00    +0.034 A 
ATOM      7  C   UNL     1       5.598   4.216   1.461  0.00  0.00    +0.049 C 
ATOM      8  C   UNL     1       5.231   5.670   1.285  0.00  0.00    -0.023 C 
ATOM      9  C   UNL     1       3.959   5.853   1.544  0.00  0.00    -0.030 C 
ATOM     10  C   UNL     1       3.304   4.542   1.934  0.00  0.00    +0.033 C 
ATOM     11  C   UNL     1       4.256   3.468   1.332  0.00  0.00    +0.029 C 
ATOM     12  C   UNL     1       3.887   3.308  -0.146  0.00  0.00    +0.108 C 
ATOM     13  N   UNL     1       4.956   2.568  -0.825  0.00  0.00    -0.336 N 
ATOM     14  H   UNL     1       4.708   1.705  -1.461  0.00  0.00    +0.147 HD
ENDROOT
BRANCH  12  15
ATOM     15  C   UNL     1       2.592   2.547  -0.263  0.00  0.00    +0.015 A 
ATOM     16  C   UNL     1       1.435   3.205  -0.633  0.00  0.00    +0.024 A 
ATOM     17  C   UNL     1       0.246   2.506  -0.741  0.00  0.00    +0.018 A 
ATOM     18  C   UNL     1       0.213   1.148  -0.479  0.00  0.00    +0.019 A 
ATOM     19  C   UNL     1       1.367   0.487  -0.108  0.00  0.00    +0.047 A 
ATOM     20  C   UNL     1       2.561   1.186   0.001  0.00  0.00    +0.122 A 
ATOM     21 BR   UNL     1      -1.337   3.409  -1.247  0.00  0.00    -0.050 Br
BRANCH  20  22
ATOM     22  O   UNL     1       3.698   0.537   0.366  0.00  0.00    -0.506 OA
ATOM     23  H   UNL     1       3.673  -0.543   0.575  0.00  0.00    +0.292 HD
ENDBRANCH  20  22
ENDBRANCH  12  15
BRANCH   1  24
ATOM     24  S   UNL     1      10.559   4.335  -0.085  0.00  0.00    +0.074 S 
ATOM     25  O   UNL     1      11.209   4.155  -1.336  0.00  0.00    -0.150 OA
ATOM     26  O   UNL     1      10.505   5.594   0.571  0.00  0.00    -0.150 OA
BRANCH  24  28
ATOM     27  C   UNL     1      11.203   3.531   2.416  0.00  0.00    +0.157 C 
ATOM     28  N   UNL     1      11.272   3.280   0.974  0.00  0.00    -0.206 N 
BRANCH  28  29
ATOM     29  C   UNL     1      11.938   2.151   0.492  0.00  0.00    +0.051 A 
ATOM     30  C   UNL     1      11.574   1.595  -0.727  0.00  0.00    +0.025 A 
ATOM     31  C   UNL     1      12.239   0.481  -1.203  0.00  0.00    +0.002 A 
ATOM     32  C   UNL     1      13.258  -0.087  -0.461  0.00  0.00    +0.000 A 
ATOM     33  C   UNL     1      13.619   0.461   0.756  0.00  0.00    +0.002 A 
ATOM     34  C   UNL     1      12.963   1.578   1.235  0.00  0.00    +0.025 A 
ENDBRANCH  28  29
ENDBRANCH  24  28
ENDBRANCH   1  24
TORSDOF 5
