REMARK  Name = ZINC39467533
REMARK  8 active torsions:
REMARK  status: ('A' for Active; 'I' for Inactive)
REMARK    1  A    between atoms: C_1  and  C_2
REMARK    2  A    between atoms: C_2  and  O_3
REMARK    3  A    between atoms: O_3  and  C_4
REMARK    4  A    between atoms: P_13  and  C_25
REMARK    5  A    between atoms: C_21  and  O_22
REMARK    6  A    between atoms: O_22  and  C_23
REMARK    7  A    between atoms: C_23  and  C_24
REMARK    8  A    between atoms: C_30  and  O_31
REMARK                            x       y       z     vdW  Elec       q    Type
REMARK                         _______ _______ _______ _____ _____    ______ ____
ROOT
ATOM      1  C   UNL     1       0.802  -1.824   1.306  0.00  0.00    +0.158 C 
ATOM      2  C   UNL     1       0.280  -2.645   0.387  0.00  0.00    +0.026 C 
ATOM      3  C   UNL     1       0.430  -4.130   0.574  0.00  0.00    +0.019 C 
ATOM      4  C   UNL     1       0.305  -4.877  -0.750  0.00  0.00    -0.002 C 
ATOM      5  C   UNL     1       0.503  -6.380  -0.508  0.00  0.00    -0.020 C 
ATOM      6  C   UNL     1       0.391  -7.079  -1.870  0.00  0.00    +0.157 C 
ATOM      7  O   UNL     1       0.482  -8.503  -1.684  0.00  0.00    -0.316 OA
ATOM      8  P   UNL     1       1.721  -9.073  -0.796  0.00  0.00    +0.291 P 
ATOM      9  O   UNL     1       2.952  -9.140  -1.615  0.00  0.00    -0.269 OA
ATOM     10  N   UNL     1       1.911  -7.987   0.433  0.00  0.00    -0.288 NA
ATOM     11  N   UNL     1       1.802  -6.649   0.106  0.00  0.00    +0.398 N 
ATOM     12  C   UNL     1       1.959  -5.918   1.376  0.00  0.00    -0.046 C 
ATOM     13  C   UNL     1       1.822  -4.419   1.151  0.00  0.00    +0.008 C 
ATOM     14  C   UNL     1       1.997  -3.631   2.420  0.00  0.00    +0.025 C 
ATOM     15  C   UNL     1       1.504  -2.391   2.478  0.00  0.00    +0.158 C 
ATOM     16  H   UNL     1       2.097  -8.280   1.339  0.00  0.00    +0.111 HD
ATOM     17  H   UNL     1       2.538  -6.383  -0.531  0.00  0.00    -0.055 HD
ENDROOT
BRANCH   8  18
ATOM     18  C   UNL     1       1.318 -10.713  -0.134  0.00  0.00    +0.091 A 
ATOM     19  C   UNL     1       0.693 -10.829   1.093  0.00  0.00    +0.018 A 
ATOM     20  C   UNL     1       0.386 -12.078   1.598  0.00  0.00    +0.001 A 
ATOM     21  C   UNL     1       0.703 -13.215   0.878  0.00  0.00    +0.004 A 
ATOM     22  C   UNL     1       1.328 -13.104  -0.349  0.00  0.00    +0.046 A 
ATOM     23  C   UNL     1       1.632 -11.851  -0.861  0.00  0.00    +0.131 A 
BRANCH  23  24
ATOM     24  O   UNL     1       2.241 -11.740  -2.071  0.00  0.00    -0.506 OA
ATOM     25  H   UNL     1       3.207 -11.742  -2.026  0.00  0.00    +0.292 HD
ENDBRANCH  23  24
ENDBRANCH   8  18
BRANCH   1  26
ATOM     26  O   UNL     1       0.693  -0.477   1.160  0.00  0.00    -0.489 OA
BRANCH  26  28
ATOM     27  C   UNL     1      -0.019   1.526   0.010  0.00  0.00    +0.048 C 
ATOM     28  C   UNL     1       0.002  -0.004   0.002  0.00  0.00    +0.226 C 
ENDBRANCH  26  28
ENDBRANCH   1  26
BRANCH  15  29
ATOM     29  O   UNL     1       1.641  -1.657   3.613  0.00  0.00    -0.489 OA
BRANCH  29  30
ATOM     30  C   UNL     1       2.330  -2.271   4.704  0.00  0.00    +0.226 C 
ATOM     31  C   UNL     1       2.386  -1.299   5.884  0.00  0.00    +0.048 C 
ENDBRANCH  29  30
ENDBRANCH  15  29
TORSDOF 6
