REMARK  Name = ZINC40044254
REMARK  14 active torsions:
REMARK  status: ('A' for Active; 'I' for Inactive)
REMARK    1  A    between atoms: C_1  and  C_2
REMARK    2  A    between atoms: C_2  and  C_3
REMARK    3  A    between atoms: C_3  and  C_4
REMARK    4  A    between atoms: C_4  and  O_5
REMARK    5  A    between atoms: O_5  and  C_6
REMARK    6  A    between atoms: C_9  and  C_15
REMARK    7  A    between atoms: C_11  and  O_12
REMARK    8  A    between atoms: O_12  and  C_13
REMARK    9  A    between atoms: C_13  and  C_14
REMARK   10  A    between atoms: C_22  and  C_39
REMARK   11  A    between atoms: N_30  and  C_31
REMARK   12  A    between atoms: C_31  and  C_32
REMARK   13  A    between atoms: C_32  and  C_33
REMARK   14  A    between atoms: C_39  and  C_40
REMARK                            x       y       z     vdW  Elec       q    Type
REMARK                         _______ _______ _______ _____ _____    ______ ____
ROOT
ATOM      1  C   UNL     1       1.844  -8.068  -3.111  0.00  0.00    +0.145 C 
ATOM      2  C   UNL     1       2.924  -8.609  -2.232  0.00  0.00    +0.072 A 
ATOM      3  C   UNL     1       4.365  -8.338  -2.194  0.00  0.00    +0.199 A 
ATOM      4  O   UNL     1       4.891  -7.437  -2.823  0.00  0.00    -0.287 OA
ATOM      5  C   UNL     1       5.120  -9.264  -1.314  0.00  0.00    +0.065 A 
ATOM      6  C   UNL     1       6.515  -9.267  -1.322  0.00  0.00    +0.019 A 
ATOM      7  C   UNL     1       7.196 -10.130  -0.510  0.00  0.00    -0.047 A 
ATOM      8  C   UNL     1       6.505 -11.002   0.320  0.00  0.00    +0.007 A 
ATOM      9  C   UNL     1       5.128 -11.011   0.342  0.00  0.00    +0.047 A 
ATOM     10  C   UNL     1       4.410 -10.139  -0.475  0.00  0.00    +0.139 A 
ATOM     11  O   UNL     1       3.058 -10.159  -0.430  0.00  0.00    -0.450 OA
ATOM     12  C   UNL     1       2.351  -9.496  -1.366  0.00  0.00    +0.199 A 
ATOM     13  C   UNL     1       0.908  -9.560  -1.658  0.00  0.00    +0.283 C 
ATOM     14  O   UNL     1       0.109 -10.260  -1.067  0.00  0.00    -0.267 OA
ATOM     15  N   UNL     1       0.602  -8.728  -2.676  0.00  0.00    -0.283 N 
ENDROOT
BRANCH   1  19
ATOM     16  C   UNL     1       1.514  -3.834  -2.603  0.00  0.00    +0.162 A 
ATOM     17  C   UNL     1       0.980  -4.692  -1.655  0.00  0.00    +0.050 A 
ATOM     18  C   UNL     1       1.089  -6.060  -1.822  0.00  0.00    +0.009 A 
ATOM     19  C   UNL     1       1.728  -6.576  -2.934  0.00  0.00    -0.019 A 
ATOM     20  C   UNL     1       2.263  -5.725  -3.884  0.00  0.00    +0.055 A 
ATOM     21  C   UNL     1       2.153  -4.353  -3.725  0.00  0.00    +0.162 A 
BRANCH  16  22
ATOM     22  O   UNL     1       1.408  -2.488  -2.441  0.00  0.00    -0.488 OA
BRANCH  22  23
ATOM     23  C   UNL     1       0.739  -2.027  -1.265  0.00  0.00    +0.229 C 
BRANCH  23  24
ATOM     24  C   UNL     1       0.718  -0.497  -1.257  0.00  0.00    +0.041 C 
BRANCH  24  26
ATOM     25  C   UNL     1      -0.019   1.526   0.010  0.00  0.00    +0.004 C 
ATOM     26  C   UNL     1       0.002  -0.004   0.002  0.00  0.00    -0.000 C 
ENDBRANCH  24  26
ENDBRANCH  23  24
ENDBRANCH  22  23
ENDBRANCH  16  22
BRANCH  21  27
ATOM     27  O   UNL     1       2.673  -3.515  -4.662  0.00  0.00    -0.489 OA
BRANCH  27  28
ATOM     28  C   UNL     1       3.315  -4.118  -5.787  0.00  0.00    +0.226 C 
ATOM     29  C   UNL     1       3.833  -3.026  -6.725  0.00  0.00    +0.048 C 
ENDBRANCH  27  28
ENDBRANCH  21  27
ENDBRANCH   1  19
BRANCH   7  30
ATOM     30  C   UNL     1       8.703 -10.135  -0.515  0.00  0.00    +0.032 C 
ATOM     31  C   UNL     1       9.221  -9.145   0.530  0.00  0.00    +0.009 C 
ENDBRANCH   7  30
BRANCH  15  32
ATOM     32  C   UNL     1      -0.730  -8.518  -3.249  0.00  0.00    +0.114 C 
BRANCH  32  33
ATOM     33  C   UNL     1      -0.957  -9.511  -4.391  0.00  0.00    +0.054 C 
BRANCH  33  34
ATOM     34  C   UNL     1      -2.327  -9.296  -4.979  0.00  0.00    -0.046 A 
ATOM     35  C   UNL     1      -3.414  -9.980  -4.469  0.00  0.00    +0.004 A 
ATOM     36  C   UNL     1      -4.671  -9.783  -5.009  0.00  0.00    +0.000 A 
ATOM     37  C   UNL     1      -4.841  -8.899  -6.059  0.00  0.00    +0.000 A 
ATOM     38  C   UNL     1      -3.754  -8.214  -6.568  0.00  0.00    +0.000 A 
ATOM     39  C   UNL     1      -2.498  -8.408  -6.026  0.00  0.00    +0.004 A 
ENDBRANCH  33  34
ENDBRANCH  32  33
ENDBRANCH  15  32
TORSDOF 11
