REMARK  Name = ZINC08910655
REMARK  8 active torsions:
REMARK  status: ('A' for Active; 'I' for Inactive)
REMARK    1  A    between atoms: C_1  and  C_2
REMARK    2  A    between atoms: C_5  and  N_9
REMARK    3  A    between atoms: C_6  and  C_8
REMARK    4  A    between atoms: C_10  and  N_19
REMARK    5  A    between atoms: C_20  and  C_22
REMARK    6  A    between atoms: N_27  and  C_29
REMARK    7  A    between atoms: C_32  and  C_36
REMARK    8  A    between atoms: C_33  and  C_35
REMARK                            x       y       z     vdW  Elec       q    Type
REMARK                         _______ _______ _______ _____ _____    ______ ____
ROOT
ATOM      1  N   UNL     1       3.103   1.723  -0.309  0.00  0.00    -0.217 N 
ATOM      2  C   UNL     1       1.900   1.161  -0.035  0.00  0.00    +0.134 A 
ATOM      3  C   UNL     1       2.125  -0.146   0.332  0.00  0.00    +0.038 A 
ATOM      4  C   UNL     1       3.490  -0.375   0.269  0.00  0.00    +0.091 A 
ATOM      5  N   UNL     1       4.082   0.747  -0.112  0.00  0.00    -0.168 NA
ATOM      6  C   UNL     1       3.968  -1.779   0.635  0.00  0.00    +0.223 C 
ATOM      7  S   UNL     1       2.490  -2.467   1.493  0.00  0.00    -0.021 S 
ATOM      8  O   UNL     1       2.592  -2.224   2.889  0.00  0.00    -0.174 OA
ATOM      9  O   UNL     1       2.249  -3.786   1.022  0.00  0.00    -0.174 OA
ATOM     10  C   UNL     1       1.250  -1.321   0.763  0.00  0.00    +0.206 C 
ENDROOT
BRANCH   1  15
ATOM     11  C   UNL     1       3.999   7.080  -1.955  0.00  0.00    +0.044 C 
ATOM     12  C   UNL     1       3.761   5.657  -1.518  0.00  0.00    -0.050 A 
ATOM     13  C   UNL     1       2.792   4.895  -2.146  0.00  0.00    +0.005 A 
ATOM     14  C   UNL     1       2.575   3.590  -1.750  0.00  0.00    +0.028 A 
ATOM     15  C   UNL     1       3.324   3.046  -0.715  0.00  0.00    +0.070 A 
ATOM     16  C   UNL     1       4.296   3.813  -0.088  0.00  0.00    -0.025 A 
ATOM     17  C   UNL     1       4.512   5.116  -0.491  0.00  0.00    +0.008 A 
ATOM     18  C   UNL     1       5.115   3.225   1.033  0.00  0.00    +0.046 C 
ENDBRANCH   1  15
BRANCH   2  19
ATOM     19  N   UNL     1       0.659   1.794  -0.107  0.00  0.00    -0.270 N 
ATOM     20  C   UNL     1      -0.452   1.073  -0.358  0.00  0.00    +0.223 C 
ATOM     21  O   UNL     1      -0.361  -0.106  -0.628  0.00  0.00    -0.275 OA
ATOM     22  H   UNL     1       0.596   2.753   0.023  0.00  0.00    +0.156 HD
BRANCH  20  23
ATOM     23  C   UNL     1      -1.805   1.734  -0.308  0.00  0.00    +0.102 C 
ATOM     24  C   UNL     1      -2.134   2.214   1.124  0.00  0.00    +0.110 C 
ATOM     25  C   UNL     1      -3.618   1.958   1.270  0.00  0.00    +0.221 C 
ATOM     26  O   UNL     1      -4.326   2.442   2.127  0.00  0.00    -0.275 OA
ATOM     27  N   UNL     1      -4.038   1.116   0.310  0.00  0.00    -0.271 N 
ATOM     28  C   UNL     1      -2.931   0.707  -0.562  0.00  0.00    +0.127 C 
BRANCH  27  29
ATOM     29  C   UNL     1      -5.361   0.684   0.162  0.00  0.00    +0.037 A 
ATOM     30  C   UNL     1      -6.358   1.202   0.978  0.00  0.00    +0.024 A 
ATOM     31  C   UNL     1      -7.663   0.779   0.825  0.00  0.00    +0.005 A 
ATOM     32  C   UNL     1      -7.977  -0.168  -0.132  0.00  0.00    -0.047 A 
ATOM     33  C   UNL     1      -6.986  -0.690  -0.943  0.00  0.00    -0.046 A 
ATOM     34  C   UNL     1      -5.679  -0.267  -0.799  0.00  0.00    +0.027 A 
ATOM     35  C   UNL     1      -7.332  -1.723  -1.984  0.00  0.00    +0.044 C 
ATOM     36  C   UNL     1      -9.401  -0.633  -0.292  0.00  0.00    +0.044 C 
ENDBRANCH  27  29
ENDBRANCH  20  23
ENDBRANCH   2  19
TORSDOF 4
