REMARK  Name = ZINC20386429
REMARK  11 active torsions:
REMARK  status: ('A' for Active; 'I' for Inactive)
REMARK    1  A    between atoms: C_1  and  C_2
REMARK    2  A    between atoms: C_2  and  N_3
REMARK    3  A    between atoms: C_9  and  N_28
REMARK    4  A    between atoms: C_10  and  C_11
REMARK    5  A    between atoms: C_11  and  C_13
REMARK    6  A    between atoms: C_11  and  N_14
REMARK    7  A    between atoms: N_17  and  C_18
REMARK    8  A    between atoms: C_20  and  O_26
REMARK    9  A    between atoms: C_22  and  O_24
REMARK   10  A    between atoms: O_24  and  C_25
REMARK   11  A    between atoms: O_26  and  C_27
REMARK                            x       y       z     vdW  Elec       q    Type
REMARK                         _______ _______ _______ _____ _____    ______ ____
ROOT
ATOM      1  C   UNL     1       4.588   5.767  -0.029  0.00  0.00    +0.104 C 
ATOM      2  C   UNL     1       3.480   5.077   0.769  0.00  0.00    +0.033 C 
ENDROOT
BRANCH   1  10
ATOM      3  N   UNL     1       5.647   9.450   3.437  0.00  0.00    +0.383 N 
ATOM      4  C   UNL     1       4.372   8.734   3.290  0.00  0.00    -0.074 C 
ATOM      5  C   UNL     1       4.322   8.015   1.939  0.00  0.00    +0.018 C 
ATOM      6  C   UNL     1       5.586   7.170   1.801  0.00  0.00    -0.034 A 
ATOM      7  C   UNL     1       6.657   7.434   2.601  0.00  0.00    -0.021 A 
ATOM      8  S   UNL     1       7.860   6.232   2.107  0.00  0.00    -0.077 S 
ATOM      9  C   UNL     1       6.887   5.418   0.849  0.00  0.00    +0.090 A 
ATOM     10  C   UNL     1       5.724   6.123   0.894  0.00  0.00    +0.007 A 
ATOM     11  C   UNL     1       6.757   8.499   3.643  0.00  0.00    -0.035 C 
ATOM     12  H   UNL     1       5.835  10.007   2.507  0.00  0.00    -0.081 HD
BRANCH   9  13
ATOM     13  N   UNL     1       7.231   4.338   0.029  0.00  0.00    -0.317 N 
ATOM     14  C   UNL     1       6.463   3.232  -0.196  0.00  0.00    +0.092 A 
ATOM     15  C   UNL     1       7.130   2.420  -1.042  0.00  0.00    +0.019 A 
ATOM     16  C   UNL     1       8.358   3.040  -1.343  0.00  0.00    +0.019 A 
ATOM     17  C   UNL     1       8.394   4.212  -0.675  0.00  0.00    +0.092 A 
ENDBRANCH   9  13
BRANCH   3  19
ATOM     18  C   UNL     1       5.208   9.708   5.832  0.00  0.00    -0.017 C 
ATOM     19  C   UNL     1       5.580  10.426   4.533  0.00  0.00    -0.082 C 
ENDBRANCH   3  19
ENDBRANCH   1  10
BRANCH   1  20
ATOM     20  N   UNL     1       4.059   6.986  -0.645  0.00  0.00    -0.292 N 
ATOM     21  C   UNL     1       3.304   6.906  -1.758  0.00  0.00    +0.304 C 
ATOM     22  O   UNL     1       3.061   5.821  -2.251  0.00  0.00    -0.252 OA
ATOM     23  N   UNL     1       2.817   8.028  -2.325  0.00  0.00    -0.269 N 
ATOM     24  H   UNL     1       4.279   7.968  -0.199  0.00  0.00    +0.151 HD
ATOM     25  H   UNL     1       3.099   9.013  -1.925  0.00  0.00    +0.156 HD
BRANCH  23  26
ATOM     26  C   UNL     1       1.954   7.939  -3.423  0.00  0.00    +0.042 A 
ATOM     27  C   UNL     1       2.135   6.941  -4.370  0.00  0.00    +0.069 A 
ATOM     28  C   UNL     1       1.280   6.855  -5.458  0.00  0.00    +0.125 A 
ATOM     29  C   UNL     1       0.243   7.765  -5.599  0.00  0.00    +0.091 A 
ATOM     30  C   UNL     1       0.061   8.762  -4.653  0.00  0.00    +0.125 A 
ATOM     31  C   UNL     1       0.916   8.850  -3.565  0.00  0.00    +0.069 A 
BRANCH  30  32
ATOM     32  O   UNL     1      -0.955   9.654  -4.793  0.00  0.00    -0.495 OA
ATOM     33  C   UNL     1      -1.796   9.505  -5.938  0.00  0.00    +0.277 C 
ENDBRANCH  30  32
BRANCH  28  34
ATOM     34  O   UNL     1       1.454   5.874  -6.383  0.00  0.00    -0.495 OA
ATOM     35  C   UNL     1       0.532   5.841  -7.474  0.00  0.00    +0.277 C 
ENDBRANCH  28  34
ENDBRANCH  23  26
ENDBRANCH   1  20
TORSDOF 7
