REMARK  Name = ZINC15972050
REMARK  5 active torsions:
REMARK  status: ('A' for Active; 'I' for Inactive)
REMARK    1  A    between atoms: C_1  and  N_2
REMARK    2  A    between atoms: C_4  and  C_27
REMARK    3  A    between atoms: C_6  and  C_19
REMARK    4  A    between atoms: C_19  and  C_21
REMARK    5  A    between atoms: C_31  and  N_33
REMARK                            x       y       z     vdW  Elec       q    Type
REMARK                         _______ _______ _______ _____ _____    ______ ____
ROOT
ATOM      1  C   UNL     1      -5.005   7.840  -1.362  0.00  0.00    +0.106 C 
ATOM      2  N   UNL     1      -3.811   7.369  -0.647  0.00  0.00    -0.287 NA
ATOM      3  C   UNL     1      -3.412   6.014  -1.112  0.00  0.00    +0.094 C 
ATOM      4  C   UNL     1      -2.552   5.473   0.059  0.00  0.00    +0.046 C 
ATOM      5  C   UNL     1      -3.277   6.030   1.308  0.00  0.00    +0.103 C 
ATOM      6  C   UNL     1      -4.078   7.232   0.793  0.00  0.00    +0.136 C 
ATOM      7  C   UNL     1      -5.549   7.056   1.058  0.00  0.00    +0.006 A 
ATOM      8  C   UNL     1      -6.472   6.110   0.669  0.00  0.00    +0.046 A 
ATOM      9  C   UNL     1      -7.790   6.218   1.083  0.00  0.00    +0.124 A 
ATOM     10  C   UNL     1      -8.174   7.278   1.886  0.00  0.00    +0.040 A 
ATOM     11  C   UNL     1      -7.251   8.226   2.277  0.00  0.00    +0.026 A 
ATOM     12  C   UNL     1      -5.924   8.124   1.866  0.00  0.00    +0.039 A 
ATOM     13  N   UNL     1      -4.822   8.943   2.126  0.00  0.00    -0.283 N 
ATOM     14  C   UNL     1      -3.701   8.489   1.535  0.00  0.00    +0.243 C 
ATOM     15  O   UNL     1      -2.600   8.994   1.588  0.00  0.00    -0.273 OA
ATOM     16  F   UNL     1      -8.697   5.292   0.702  0.00  0.00    -0.205 F 
ATOM     17  H   UNL     1      -4.939   9.839   2.752  0.00  0.00    +0.155 HD
ENDROOT
BRANCH   4  18
ATOM     18  C   UNL     1      -2.552   3.966   0.070  0.00  0.00    -0.040 A 
ATOM     19  C   UNL     1      -3.750   3.276   0.073  0.00  0.00    +0.004 A 
ATOM     20  C   UNL     1      -3.751   1.893   0.083  0.00  0.00    +0.002 A 
ATOM     21  C   UNL     1      -2.554   1.202   0.090  0.00  0.00    +0.033 A 
ATOM     22  C   UNL     1      -1.356   1.892   0.086  0.00  0.00    +0.126 A 
ATOM     23  C   UNL     1      -1.356   3.275   0.081  0.00  0.00    +0.036 A 
BRANCH  22  24
ATOM     24  N   UNL     1      -0.075   1.152   0.094  0.00  0.00    +0.056 N 
ATOM     25  O   UNL     1      -0.075  -0.066   0.103  0.00  0.00    -0.126 OA
ATOM     26  O   UNL     1       0.980   1.760   0.085  0.00  0.00    -0.126 OA
ENDBRANCH  22  24
ENDBRANCH   4  18
BRANCH   5  27
ATOM     27  C   UNL     1      -2.275   6.472   2.343  0.00  0.00    +0.169 C 
ATOM     28  O   UNL     1      -1.163   6.815   2.002  0.00  0.00    -0.292 OA
BRANCH  27  29
ATOM     29  C   UNL     1      -2.646   6.488   3.767  0.00  0.00    +0.018 A 
ATOM     30  C   UNL     1      -3.930   6.099   4.163  0.00  0.00    +0.011 A 
ATOM     31  C   UNL     1      -4.268   6.110   5.500  0.00  0.00    +0.001 A 
ATOM     32  C   UNL     1      -3.345   6.517   6.447  0.00  0.00    +0.000 A 
ATOM     33  C   UNL     1      -2.074   6.909   6.062  0.00  0.00    +0.001 A 
ATOM     34  C   UNL     1      -1.719   6.897   4.730  0.00  0.00    +0.011 A 
ENDBRANCH  27  29
ENDBRANCH   5  27
TORSDOF 4
