REMARK  Name = ZINC23244782
REMARK  9 active torsions:
REMARK  status: ('A' for Active; 'I' for Inactive)
REMARK    1  A    between atoms: C_1  and  C_2
REMARK    2  A    between atoms: C_5  and  C_8
REMARK    3  A    between atoms: N_13  and  C_15
REMARK    4  A    between atoms: C_15  and  C_16
REMARK    5  A    between atoms: C_16  and  N_17
REMARK    6  A    between atoms: N_20  and  S_23
REMARK    7  A    between atoms: S_23  and  C_26
REMARK    8  A    between atoms: C_28  and  N_33
REMARK    9  A    between atoms: C_31  and  C_32
REMARK                            x       y       z     vdW  Elec       q    Type
REMARK                         _______ _______ _______ _____ _____    ______ ____
ROOT
ATOM      1  N   UNL     1       0.413   7.173   1.254  0.00  0.00    +0.383 N 
ATOM      2  C   UNL     1       1.770   7.633   0.934  0.00  0.00    -0.061 C 
ATOM      3  C   UNL     1       1.758   9.153   0.735  0.00  0.00    +0.091 C 
ATOM      4  N   UNL     1       1.154   9.774   1.924  0.00  0.00    -0.180 NA
ATOM      5  C   UNL     1      -0.147   9.270   2.388  0.00  0.00    +0.091 C 
ATOM      6  C   UNL     1      -0.059   7.746   2.521  0.00  0.00    -0.061 C 
ATOM      7  H   UNL     1      -0.257   7.527   0.456  0.00  0.00    -0.082 HD
ENDROOT
BRANCH   4   8
ATOM      8  S   UNL     1       1.920  11.008   2.719  0.00  0.00    +0.061 S 
ATOM      9  O   UNL     1       2.671  11.717   1.742  0.00  0.00    -0.153 OA
ATOM     10  O   UNL     1       0.939  11.639   3.531  0.00  0.00    -0.153 OA
BRANCH   8  11
ATOM     11  C   UNL     1       3.088  10.276   3.817  0.00  0.00    +0.111 A 
ATOM     12  C   UNL     1       4.442  10.447   3.600  0.00  0.00    +0.061 A 
ATOM     13  C   UNL     1       5.358   9.875   4.463  0.00  0.00    +0.128 A 
ATOM     14  C   UNL     1       4.919   9.125   5.539  0.00  0.00    +0.033 A 
ATOM     15  C   UNL     1       3.565   8.950   5.753  0.00  0.00    +0.007 A 
ATOM     16  C   UNL     1       2.649   9.525   4.891  0.00  0.00    -0.024 A 
ATOM     17  C   UNL     1       1.173   9.334   5.125  0.00  0.00    +0.046 C 
BRANCH  13  18
ATOM     18  N   UNL     1       6.808  10.062   4.234  0.00  0.00    +0.056 N 
ATOM     19  O   UNL     1       7.615   9.555   4.992  0.00  0.00    -0.126 OA
ATOM     20  O   UNL     1       7.195  10.723   3.286  0.00  0.00    -0.126 OA
ENDBRANCH  13  18
ENDBRANCH   8  11
ENDBRANCH   4   8
BRANCH   1  21
ATOM     21  C   UNL     1       0.347   5.706   1.282  0.00  0.00    -0.055 C 
BRANCH  21  22
ATOM     22  C   UNL     1       0.604   5.156  -0.122  0.00  0.00    +0.129 C 
BRANCH  22  28
ATOM     23  C   UNL     1       1.624   1.713   0.178  0.00  0.00    +0.092 A 
ATOM     24  C   UNL     1       0.432   0.982  -0.037  0.00  0.00    +0.035 A 
ATOM     25  C   UNL     1      -0.714   1.675  -0.289  0.00  0.00    +0.074 A 
ATOM     26  C   UNL     1      -0.643   3.086  -0.310  0.00  0.00    +0.267 A 
ATOM     27  O   UNL     1      -1.644   3.749  -0.527  0.00  0.00    -0.266 OA
ATOM     28  N   UNL     1       0.539   3.693  -0.093  0.00  0.00    -0.231 N 
ATOM     29  N   UNL     1       1.611   3.025   0.138  0.00  0.00    -0.168 NA
BRANCH  23  34
ATOM     30  C   UNL     1       6.551  -1.075   1.236  0.00  0.00    +0.044 C 
ATOM     31  C   UNL     1       5.261  -0.345   0.959  0.00  0.00    -0.050 A 
ATOM     32  C   UNL     1       5.248   1.037   0.915  0.00  0.00    +0.004 A 
ATOM     33  C   UNL     1       4.070   1.710   0.662  0.00  0.00    +0.010 A 
ATOM     34  C   UNL     1       2.893   0.995   0.450  0.00  0.00    +0.002 A 
ATOM     35  C   UNL     1       2.912  -0.398   0.500  0.00  0.00    +0.010 A 
ATOM     36  C   UNL     1       4.096  -1.061   0.749  0.00  0.00    +0.004 A 
ENDBRANCH  23  34
ENDBRANCH  22  28
ENDBRANCH  21  22
ENDBRANCH   1  21
TORSDOF 7
