REMARK  Name = ZINC62257633
REMARK  2 active torsions:
REMARK  status: ('A' for Active; 'I' for Inactive)
REMARK    1  A    between atoms: C_3  and  C_8
REMARK    2  A    between atoms: C_10  and  C_13
REMARK                            x       y       z     vdW  Elec       q    Type
REMARK                         _______ _______ _______ _____ _____    ______ ____
ROOT
ATOM      1  C   UNL     1       3.676   2.038  -0.023  0.00  0.00    +0.277 A 
ATOM      2  N   UNL     1       4.863   1.475  -0.042  0.00  0.00    -0.190 NA
ATOM      3  C   UNL     1       5.813   2.413  -0.045  0.00  0.00    +0.173 A 
ATOM      4  N   UNL     1       5.252   3.588  -0.028  0.00  0.00    -0.061 NA
ATOM      5  O   UNL     1       3.849   3.371  -0.018  0.00  0.00    -0.331 OA
ENDROOT
BRANCH   3   6
ATOM      6  C   UNL     1       7.297   2.153  -0.066  0.00  0.00    +0.043 C 
ATOM      7  C   UNL     1       7.941   2.766   1.181  0.00  0.00    +0.008 C 
ATOM      8  C   UNL     1       9.457   2.565   1.112  0.00  0.00    -0.018 C 
ATOM      9  C   UNL     1       9.991   3.186  -0.181  0.00  0.00    -0.083 C 
ATOM     10  N   UNL     1       9.357   2.539  -1.336  0.00  0.00    +0.380 N 
ATOM     11  C   UNL     1       7.910   2.788  -1.316  0.00  0.00    -0.071 C 
ATOM     12  H   UNL     1       9.749   2.913  -2.187  0.00  0.00    -0.086 HD
ATOM     13  H   UNL     1       9.526   1.545  -1.298  0.00  0.00    -0.086 HD
ENDBRANCH   3   6
BRANCH   1  16
ATOM     14  C   UNL     1      -0.017   1.383   0.010  0.00  0.00    +0.019 A 
ATOM     15  C   UNL     1       1.191   2.061   0.002  0.00  0.00    +0.034 A 
ATOM     16  C   UNL     1       2.378   1.329  -0.013  0.00  0.00    +0.128 A 
ATOM     17  N   UNL     1       2.352   0.001  -0.020  0.00  0.00    -0.249 NA
ATOM     18  C   UNL     1       1.219  -0.667  -0.013  0.00  0.00    +0.126 A 
ATOM     19  C   UNL     1       0.002  -0.004   0.002  0.00  0.00    +0.036 A 
ATOM     20 BR   UNL     1      -1.617  -0.981   0.013  0.00  0.00    -0.049 Br
ENDBRANCH   1  16
TORSDOF 2
