REMARK  Name = ZINC40988396
REMARK  7 active torsions:
REMARK  status: ('A' for Active; 'I' for Inactive)
REMARK    1  A    between atoms: C_1  and  C_2
REMARK    2  A    between atoms: C_5  and  C_8
REMARK    3  A    between atoms: C_8  and  C_10
REMARK    4  A    between atoms: C_8  and  N_31
REMARK    5  A    between atoms: C_10  and  N_11
REMARK    6  A    between atoms: C_12  and  C_14
REMARK    7  A    between atoms: N_17  and  C_19
REMARK                            x       y       z     vdW  Elec       q    Type
REMARK                         _______ _______ _______ _____ _____    ______ ____
ROOT
ATOM      1  N   UNL     1      -1.302  -6.305   0.321  0.00  0.00    -0.311 N 
ATOM      2  C   UNL     1      -2.429  -7.023   0.497  0.00  0.00    +0.264 C 
ATOM      3  O   UNL     1      -3.492  -6.455   0.661  0.00  0.00    -0.268 OA
ATOM      4  H   UNL     1      -0.454  -6.758   0.190  0.00  0.00    +0.149 HD
ENDROOT
BRANCH   2   5
ATOM      5  C   UNL     1      -2.373  -8.499   0.492  0.00  0.00    +0.150 A 
ATOM      6  C   UNL     1      -3.455  -9.380   0.656  0.00  0.00    +0.006 A 
ATOM      7  C   UNL     1      -2.932 -10.629   0.581  0.00  0.00    +0.044 A 
ATOM      8  N   UNL     1      -1.611 -10.496   0.381  0.00  0.00    -0.263 N 
ATOM      9  N   UNL     1      -1.296  -9.248   0.325  0.00  0.00    -0.166 NA
ATOM     10  C   UNL     1      -3.747 -11.890   0.712  0.00  0.00    +0.055 C 
ATOM     11  C   UNL     1      -5.100 -11.528   1.338  0.00  0.00    +0.006 C 
ATOM     12  C   UNL     1      -5.718 -10.348   0.582  0.00  0.00    +0.005 C 
ATOM     13  C   UNL     1      -4.911  -9.075   0.871  0.00  0.00    +0.039 C 
BRANCH   8  14
ATOM     14  C   UNL     1      -0.666 -11.607   0.240  0.00  0.00    +0.130 C 
ATOM     15  C   UNL     1       0.027 -11.517  -1.129  0.00  0.00    +0.051 C 
ATOM     16  C   UNL     1       1.231 -12.502  -1.128  0.00  0.00    +0.168 C 
ATOM     17  S   UNL     1       1.890 -12.227   0.571  0.00  0.00    -0.029 S 
ATOM     18  O   UNL     1       2.894 -11.223   0.520  0.00  0.00    -0.174 OA
ATOM     19  O   UNL     1       2.188 -13.486   1.160  0.00  0.00    -0.174 OA
ATOM     20  C   UNL     1       0.388 -11.531   1.371  0.00  0.00    +0.192 C 
ENDBRANCH   8  14
ENDBRANCH   2   5
BRANCH   1  21
ATOM     21  C   UNL     1      -1.358  -4.841   0.326  0.00  0.00    +0.094 C 
BRANCH  21  22
ATOM     22  C   UNL     1       0.020  -4.277  -0.025  0.00  0.00    -0.020 C 
BRANCH  22  27
ATOM     23  C   UNL     1       1.418  -5.830  -5.412  0.00  0.00    +0.044 C 
ATOM     24  C   UNL     1       1.054  -5.425  -4.007  0.00  0.00    -0.050 A 
ATOM     25  C   UNL     1       1.575  -6.118  -2.931  0.00  0.00    +0.003 A 
ATOM     26  C   UNL     1       1.241  -5.747  -1.642  0.00  0.00    +0.002 A 
ATOM     27  C   UNL     1       0.386  -4.681  -1.430  0.00  0.00    -0.059 A 
ATOM     28  C   UNL     1      -0.135  -3.988  -2.506  0.00  0.00    +0.002 A 
ATOM     29  C   UNL     1       0.203  -4.357  -3.795  0.00  0.00    +0.003 A 
ENDBRANCH  22  27
BRANCH  22  30
ATOM     30  N   UNL     1      -0.012  -2.811   0.070  0.00  0.00    +0.385 N 
ATOM     31  C   UNL     1       1.295  -2.268  -0.321  0.00  0.00    -0.078 C 
ATOM     32  C   UNL     1       1.242  -0.739  -0.302  0.00  0.00    -0.019 C 
ATOM     33  C   UNL     1       0.892  -0.263   1.111  0.00  0.00    -0.004 C 
ATOM     34  C   UNL     1      -0.436  -0.895   1.537  0.00  0.00    -0.019 C 
ATOM     35  C   UNL     1      -0.321  -2.418   1.450  0.00  0.00    -0.078 C 
ATOM     36  H   UNL     1      -0.723  -2.451  -0.549  0.00  0.00    -0.081 HD
ENDBRANCH  22  30
ENDBRANCH  21  22
ENDBRANCH   1  21
TORSDOF 6
