REMARK  Name = ZINC03327128
REMARK  7 active torsions:
REMARK  status: ('A' for Active; 'I' for Inactive)
REMARK    1  A    between atoms: C_4  and  C_7
REMARK    2  A    between atoms: C_7  and  N_8
REMARK    3  A    between atoms: C_9  and  C_29
REMARK    4  A    between atoms: C_12  and  S_13
REMARK    5  A    between atoms: S_13  and  C_14
REMARK    6  A    between atoms: C_14  and  C_15
REMARK    7  A    between atoms: C_29  and  N_61
REMARK                            x       y       z     vdW  Elec       q    Type
REMARK                         _______ _______ _______ _____ _____    ______ ____
ROOT
ATOM      1  N   UNL     1      -0.111   0.191   0.173  0.00  0.00    -0.303 N 
ATOM      2  C   UNL     1      -0.230  -0.631  -0.914  0.00  0.00    +0.118 A 
ATOM      3  N   UNL     1      -0.203  -1.858  -0.476  0.00  0.00    -0.135 NA
ATOM      4  N   UNL     1      -0.085  -1.868   0.804  0.00  0.00    -0.123 NA
ATOM      5  C   UNL     1      -0.024  -0.636   1.255  0.00  0.00    +0.192 A 
ENDROOT
BRANCH   1   6
ATOM      6  C   UNL     1      -0.089   1.656   0.175  0.00  0.00    +0.160 C 
BRANCH   6  10
ATOM      7  C   UNL     1       3.959   3.019   0.104  0.00  0.00    +0.000 A 
ATOM      8  C   UNL     1       3.252   2.890  -1.077  0.00  0.00    +0.000 A 
ATOM      9  C   UNL     1       1.942   2.448  -1.054  0.00  0.00    +0.005 A 
ATOM     10  C   UNL     1       1.339   2.136   0.150  0.00  0.00    -0.028 A 
ATOM     11  C   UNL     1       2.044   2.271   1.331  0.00  0.00    +0.005 A 
ATOM     12  C   UNL     1       3.355   2.707   1.308  0.00  0.00    +0.000 A 
ENDBRANCH   6  10
ENDBRANCH   1   6
BRANCH   5  13
ATOM     13  S   UNL     1       0.140  -0.145   2.939  0.00  0.00    -0.080 S 
BRANCH  13  14
ATOM     14  C   UNL     1       0.188  -1.768   3.738  0.00  0.00    +0.133 C 
BRANCH  14  15
ATOM     15  C   UNL     1       0.329  -1.591   5.228  0.00  0.00    +0.059 A 
ATOM     16  C   UNL     1      -0.740  -1.795   6.054  0.00  0.00    +0.095 A 
ATOM     17  C   UNL     1      -0.593  -1.627   7.433  0.00  0.00    +0.259 A 
ATOM     18  O   UNL     1      -1.544  -1.806   8.177  0.00  0.00    -0.267 OA
ATOM     19  N   UNL     1       0.620  -1.260   7.948  0.00  0.00    -0.255 N 
ATOM     20  C   UNL     1       0.894  -1.061   9.306  0.00  0.00    +0.066 A 
ATOM     21  C   UNL     1      -0.013  -1.200  10.370  0.00  0.00    +0.027 A 
ATOM     22  C   UNL     1       0.383  -0.974  11.666  0.00  0.00    +0.002 A 
ATOM     23  C   UNL     1       1.684  -0.605  11.966  0.00  0.00    +0.001 A 
ATOM     24  C   UNL     1       2.598  -0.461  10.938  0.00  0.00    +0.017 A 
ATOM     25  C   UNL     1       2.200  -0.687   9.641  0.00  0.00    +0.040 A 
ATOM     26  S   UNL     1       3.021  -0.618   8.068  0.00  0.00    -0.049 S 
ATOM     27  C   UNL     1       1.633  -1.078   7.052  0.00  0.00    +0.181 A 
ATOM     28  N   UNL     1       1.498  -1.240   5.758  0.00  0.00    -0.227 NA
ENDBRANCH  14  15
ENDBRANCH  13  14
ENDBRANCH   5  13
BRANCH   2  29
ATOM     29  C   UNL     1      -0.363  -0.199  -2.351  0.00  0.00    -0.001 C 
BRANCH  29  35
ATOM     30  C   UNL     1      -2.558  -1.157  -2.708  0.00  0.00    -0.078 C 
ATOM     31  C   UNL     1      -4.041  -0.818  -2.874  0.00  0.00    -0.019 C 
ATOM     32  C   UNL     1      -4.234  -0.007  -4.159  0.00  0.00    -0.004 C 
ATOM     33  C   UNL     1      -3.370   1.255  -4.091  0.00  0.00    -0.019 C 
ATOM     34  C   UNL     1      -1.906   0.855  -3.890  0.00  0.00    -0.078 C 
ATOM     35  N   UNL     1      -1.784   0.100  -2.625  0.00  0.00    +0.384 N 
ATOM     36  H   UNL     1      -2.159   0.671  -1.859  0.00  0.00    -0.081 HD
ENDBRANCH  29  35
ENDBRANCH   2  29
TORSDOF 7
