REMARK  Name = ZINC12568378
REMARK  7 active torsions:
REMARK  status: ('A' for Active; 'I' for Inactive)
REMARK    1  A    between atoms: N_9  and  S_10
REMARK    2  A    between atoms: S_10  and  C_13
REMARK    3  A    between atoms: C_17  and  C_19
REMARK    4  A    between atoms: N_21  and  C_22
REMARK    5  A    between atoms: C_22  and  C_23
REMARK    6  A    between atoms: C_23  and  C_25
REMARK    7  A    between atoms: C_23  and  N_63
REMARK                            x       y       z     vdW  Elec       q    Type
REMARK                         _______ _______ _______ _____ _____    ______ ____
ROOT
ATOM      1  C   UNL     1      -5.644   6.861  -3.454  0.00  0.00    +0.109 A 
ATOM      2  C   UNL     1      -6.314   7.057  -2.259  0.00  0.00    +0.029 A 
ATOM      3  C   UNL     1      -5.915   6.386  -1.117  0.00  0.00    +0.003 A 
ATOM      4  C   UNL     1      -4.844   5.517  -1.163  0.00  0.00    +0.013 A 
ATOM      5  C   UNL     1      -4.164   5.316  -2.364  0.00  0.00    +0.039 A 
ATOM      6  C   UNL     1      -4.569   6.000  -3.512  0.00  0.00    +0.041 A 
ENDROOT
BRANCH   5   7
ATOM      7  C   UNL     1      -3.015   4.387  -2.420  0.00  0.00    +0.244 C 
ATOM      8  O   UNL     1      -2.424   4.213  -3.468  0.00  0.00    -0.270 OA
ATOM      9  N   UNL     1      -2.623   3.732  -1.309  0.00  0.00    -0.312 N 
ATOM     10  H   UNL     1      -3.094   3.870  -0.473  0.00  0.00    +0.149 HD
BRANCH   9  11
ATOM     11  C   UNL     1      -1.484   2.812  -1.365  0.00  0.00    +0.097 C 
BRANCH  11  12
ATOM     12  C   UNL     1      -1.250   2.205   0.020  0.00  0.00    +0.016 C 
BRANCH  12  18
ATOM     13  C   UNL     1       0.013   4.181   0.623  0.00  0.00    -0.078 C 
ATOM     14  C   UNL     1       0.063   5.368   1.587  0.00  0.00    -0.019 C 
ATOM     15  C   UNL     1       0.273   4.851   3.014  0.00  0.00    -0.004 C 
ATOM     16  C   UNL     1      -0.857   3.882   3.369  0.00  0.00    -0.019 C 
ATOM     17  C   UNL     1      -0.880   2.738   2.353  0.00  0.00    -0.078 C 
ATOM     18  N   UNL     1      -1.111   3.299   1.004  0.00  0.00    +0.387 N 
ATOM     19  H   UNL     1      -1.977   3.849   1.016  0.00  0.00    -0.081 HD
ENDBRANCH  12  18
BRANCH  12  20
ATOM     20  C   UNL     1      -0.007   1.355  -0.007  0.00  0.00    +0.093 A 
ATOM     21  C   UNL     1       0.028   0.011   0.034  0.00  0.00    +0.043 A 
ATOM     22  C   UNL     1       1.389  -0.366  -0.020  0.00  0.00    +0.041 A 
ATOM     23  C   UNL     1       2.105   0.770  -0.091  0.00  0.00    +0.195 A 
ATOM     24  O   UNL     1       1.254   1.810  -0.083  0.00  0.00    -0.469 OA
ENDBRANCH  12  20
ENDBRANCH  11  12
ENDBRANCH   9  11
ENDBRANCH   5   7
BRANCH   1  25
ATOM     25  S   UNL     1      -6.161   7.721  -4.902  0.00  0.00    +0.075 S 
ATOM     26  O   UNL     1      -5.715   6.953  -6.011  0.00  0.00    -0.150 OA
ATOM     27  O   UNL     1      -7.528   8.057  -4.709  0.00  0.00    -0.150 OA
BRANCH  25  36
ATOM     28  C   UNL     1      -6.250  12.898  -3.392  0.00  0.00    +0.000 A 
ATOM     29  C   UNL     1      -7.169  11.886  -3.183  0.00  0.00    +0.002 A 
ATOM     30  C   UNL     1      -6.928  10.619  -3.670  0.00  0.00    +0.025 A 
ATOM     31  C   UNL     1      -5.755  10.348  -4.378  0.00  0.00    +0.054 A 
ATOM     32  C   UNL     1      -4.840  11.368  -4.579  0.00  0.00    -0.023 A 
ATOM     33  C   UNL     1      -5.083  12.636  -4.085  0.00  0.00    +0.005 A 
ATOM     34  C   UNL     1      -3.674  10.819  -5.370  0.00  0.00    +0.058 C 
ATOM     35  C   UNL     1      -4.026   9.341  -5.601  0.00  0.00    +0.136 C 
ATOM     36  N   UNL     1      -5.324   9.149  -4.949  0.00  0.00    -0.202 N 
ENDBRANCH  25  36
ENDBRANCH   1  25
TORSDOF 7
