REMARK  Name = ZINC58083621
REMARK  10 active torsions:
REMARK  status: ('A' for Active; 'I' for Inactive)
REMARK    1  A    between atoms: C_1  and  C_2
REMARK    2  A    between atoms: C_2  and  C_4
REMARK    3  A    between atoms: C_2  and  N_17
REMARK    4  A    between atoms: N_6  and  C_7
REMARK    5  A    between atoms: C_11  and  N_13
REMARK    6  A    between atoms: N_17  and  C_18
REMARK    7  A    between atoms: C_18  and  C_20
REMARK    8  A    between atoms: C_18  and  C_30
REMARK    9  A    between atoms: C_30  and  C_31
REMARK   10  A    between atoms: C_30  and  C_32
REMARK                            x       y       z     vdW  Elec       q    Type
REMARK                         _______ _______ _______ _____ _____    ______ ____
ROOT
ATOM      1  N   UNL     1       0.042   0.040  -1.623  0.00  0.00    +0.391 N 
ATOM      2  H   UNL     1       0.023  -0.969  -1.616  0.00  0.00    -0.084 HD
ATOM      3  H   UNL     1      -0.531   0.393  -0.871  0.00  0.00    -0.084 HD
ENDROOT
BRANCH   1   5
ATOM      4  C   UNL     1       2.331  -0.192  -2.462  0.00  0.00    -0.004 C 
ATOM      5  C   UNL     1       1.424   0.505  -1.445  0.00  0.00    +0.014 C 
BRANCH   5   6
ATOM      6  C   UNL     1       1.889   0.176  -0.050  0.00  0.00    +0.203 C 
ATOM      7  O   UNL     1       1.142  -0.389   0.721  0.00  0.00    -0.277 OA
ATOM      8  N   UNL     1       3.134   0.511   0.342  0.00  0.00    -0.287 N 
ATOM      9  H   UNL     1       3.708   1.023  -0.250  0.00  0.00    +0.155 HD
BRANCH   8  10
ATOM     10  C   UNL     1       3.600   0.120   1.603  0.00  0.00    +0.036 A 
ATOM     11  C   UNL     1       4.463   0.946   2.313  0.00  0.00    +0.026 A 
ATOM     12  C   UNL     1       4.921   0.558   3.556  0.00  0.00    +0.042 A 
ATOM     13  C   UNL     1       4.522  -0.653   4.096  0.00  0.00    +0.154 A 
ATOM     14  C   UNL     1       3.663  -1.478   3.390  0.00  0.00    +0.163 A 
ATOM     15  C   UNL     1       3.197  -1.091   2.148  0.00  0.00    +0.059 A 
ATOM     16  F   UNL     1       4.973  -1.031   5.312  0.00  0.00    -0.203 F 
BRANCH  14  17
ATOM     17  N   UNL     1       3.238  -2.773   3.969  0.00  0.00    +0.059 N 
ATOM     18  O   UNL     1       2.488  -3.493   3.353  0.00  0.00    -0.126 OA
ATOM     19  O   UNL     1       3.642  -3.110   5.057  0.00  0.00    -0.126 OA
ENDBRANCH  14  17
ENDBRANCH   8  10
ENDBRANCH   5   6
ENDBRANCH   1   5
BRANCH   1  20
ATOM     20  C   UNL     1      -0.478   0.531  -2.906  0.00  0.00    -0.037 C 
BRANCH  20  21
ATOM     21  C   UNL     1       0.171  -0.228  -4.035  0.00  0.00    -0.057 A 
ATOM     22  C   UNL     1       0.384  -1.589  -3.918  0.00  0.00    +0.006 A 
ATOM     23  C   UNL     1       0.980  -2.288  -4.950  0.00  0.00    +0.049 A 
ATOM     24  C   UNL     1       1.366  -1.626  -6.106  0.00  0.00    +0.162 A 
ATOM     25  C   UNL     1       1.150  -0.258  -6.224  0.00  0.00    +0.162 A 
ATOM     26  C   UNL     1       0.547   0.437  -5.186  0.00  0.00    +0.051 A 
ATOM     27  O   UNL     1       1.514   0.409  -7.353  0.00  0.00    -0.485 OA
ATOM     28  C   UNL     1       2.444  -0.249  -8.219  0.00  0.00    +0.270 C 
ATOM     29  C   UNL     1       1.986  -1.703  -8.401  0.00  0.00    +0.270 C 
ATOM     30  O   UNL     1       1.956  -2.327  -7.113  0.00  0.00    -0.485 OA
ENDBRANCH  20  21
BRANCH  20  31
ATOM     31  C   UNL     1      -1.993   0.322  -2.956  0.00  0.00    -0.027 C 
ATOM     32  C   UNL     1      -2.315  -1.147  -2.670  0.00  0.00    +0.006 C 
ATOM     33  C   UNL     1      -2.665   1.205  -1.903  0.00  0.00    +0.006 C 
ENDBRANCH  20  31
ENDBRANCH   1  20
TORSDOF 7
