REMARK  Name = ZINC11872339
REMARK  10 active torsions:
REMARK  status: ('A' for Active; 'I' for Inactive)
REMARK    1  A    between atoms: C_1  and  C_2
REMARK    2  A    between atoms: C_3  and  C_7
REMARK    3  A    between atoms: C_7  and  N_63
REMARK    4  A    between atoms: C_8  and  N_63
REMARK    5  A    between atoms: C_9  and  C_10
REMARK    6  A    between atoms: C_9  and  N_63
REMARK    7  A    between atoms: C_12  and  C_26
REMARK    8  A    between atoms: C_15  and  O_16
REMARK    9  A    between atoms: O_16  and  C_17
REMARK   10  A    between atoms: C_17  and  C_18
REMARK                            x       y       z     vdW  Elec       q    Type
REMARK                         _______ _______ _______ _____ _____    ______ ____
ROOT
ATOM      1  C   UNL     1       2.151   1.688   1.117  0.00  0.00    -0.022 A 
ATOM      2  C   UNL     1       2.235   2.604   2.145  0.00  0.00    +0.013 A 
ATOM      3  C   UNL     1       2.965   2.298   3.292  0.00  0.00    -0.017 A 
ATOM      4  C   UNL     1       3.608   1.065   3.396  0.00  0.00    +0.012 A 
ATOM      5  C   UNL     1       3.521   0.154   2.365  0.00  0.00    +0.046 A 
ATOM      6  C   UNL     1       2.788   0.460   1.226  0.00  0.00    +0.123 A 
ENDROOT
BRANCH   3   7
ATOM      7  C   UNL     1       3.057   3.280   4.399  0.00  0.00    -0.014 A 
ATOM      8  C   UNL     1       2.413   4.512   4.295  0.00  0.00    +0.012 A 
ATOM      9  C   UNL     1       2.499   5.425   5.326  0.00  0.00    +0.050 A 
ATOM     10  C   UNL     1       3.225   5.122   6.467  0.00  0.00    +0.166 A 
ATOM     11  C   UNL     1       3.871   3.892   6.577  0.00  0.00    +0.167 A 
ATOM     12  C   UNL     1       3.782   2.971   5.548  0.00  0.00    +0.058 A 
ATOM     13  O   UNL     1       4.509   3.840   7.783  0.00  0.00    -0.453 OA
ATOM     14  C   UNL     1       4.588   5.205   8.235  0.00  0.00    +0.466 C 
ATOM     15  O   UNL     1       3.460   5.839   7.605  0.00  0.00    -0.453 OA
ENDBRANCH   3   7
BRANCH   1  16
ATOM     16  C   UNL     1       1.361   2.019  -0.123  0.00  0.00    -0.039 C 
BRANCH  16  18
ATOM     17  C   UNL     1      -0.825   1.822   0.898  0.00  0.00    -0.095 C 
ATOM     18  N   UNL     1       0.100   1.250  -0.103  0.00  0.00    +0.384 N 
ATOM     19  H   UNL     1       0.307   0.277   0.152  0.00  0.00    -0.081 HD
BRANCH  18  20
ATOM     20  C   UNL     1      -0.528   1.272  -1.441  0.00  0.00    -0.017 C 
BRANCH  20  23
ATOM     21  C   UNL     1      -3.560   1.692  -0.695  0.00  0.00    +0.071 C 
ATOM     22  C   UNL     1      -2.949   0.396  -1.160  0.00  0.00    +0.103 A 
ATOM     23  C   UNL     1      -1.593   0.208  -1.494  0.00  0.00    +0.091 A 
ATOM     24  N   UNL     1      -1.405  -1.025  -1.859  0.00  0.00    -0.056 NA
ATOM     25  O   UNL     1      -2.655  -1.691  -1.765  0.00  0.00    -0.242 OA
ATOM     26  N   UNL     1      -3.591  -0.724  -1.317  0.00  0.00    -0.054 NA
ENDBRANCH  20  23
ENDBRANCH  18  20
ENDBRANCH  16  18
ENDBRANCH   1  16
BRANCH   6  27
ATOM     27  O   UNL     1       2.699  -0.442   0.214  0.00  0.00    -0.483 OA
BRANCH  27  28
ATOM     28  C   UNL     1       3.379  -1.686   0.392  0.00  0.00    +0.324 C 
BRANCH  28  29
ATOM     29  C   UNL     1       3.169  -2.552  -0.823  0.00  0.00    +0.253 C 
ATOM     30  O   UNL     1       2.502  -2.144  -1.750  0.00  0.00    -0.272 OA
ATOM     31  N   UNL     1       3.721  -3.780  -0.879  0.00  0.00    -0.297 N 
ATOM     32  C   UNL     1       4.529  -4.262   0.243  0.00  0.00    +0.118 C 
ATOM     33  C   UNL     1       3.818  -5.455   0.903  0.00  0.00    +0.088 C 
ATOM     34  S   UNL     1       3.550  -6.740  -0.355  0.00  0.00    -0.158 S 
ATOM     35  C   UNL     1       2.684  -5.847  -1.681  0.00  0.00    +0.088 C 
ATOM     36  C   UNL     1       3.512  -4.614  -2.064  0.00  0.00    +0.118 C 
ENDBRANCH  28  29
ENDBRANCH  27  28
ENDBRANCH   6  27
TORSDOF 8
