REMARK  Name = ZINC27522613
REMARK  9 active torsions:
REMARK  status: ('A' for Active; 'I' for Inactive)
REMARK    1  A    between atoms: C_1  and  N_2
REMARK    2  A    between atoms: C_5  and  C_22
REMARK    3  A    between atoms: N_7  and  C_10
REMARK    4  A    between atoms: C_10  and  C_11
REMARK    5  A    between atoms: C_11  and  C_12
REMARK    6  A    between atoms: C_15  and  S_18
REMARK    7  A    between atoms: S_18  and  N_21
REMARK    8  A    between atoms: C_22  and  C_23
REMARK    9  A    between atoms: N_25  and  C_26
REMARK                            x       y       z     vdW  Elec       q    Type
REMARK                         _______ _______ _______ _____ _____    ______ ____
ROOT
ATOM      1  C   UNL     1       2.747   1.778  -2.737  0.00  0.00    +0.140 C 
ATOM      2  N   UNL     1       1.549   2.001  -1.924  0.00  0.00    -0.255 N 
ATOM      3  C   UNL     1       0.629   1.054  -1.656  0.00  0.00    +0.242 C 
ATOM      4  O   UNL     1       0.635  -0.100  -2.028  0.00  0.00    -0.273 OA
ATOM      5  C   UNL     1      -0.420   1.734  -0.798  0.00  0.00    +0.170 C 
ATOM      6  N   UNL     1       0.083   3.112  -0.663  0.00  0.00    -0.300 N 
ATOM      7  C   UNL     1       1.234   3.171  -1.357  0.00  0.00    +0.142 C 
ATOM      8  S   UNL     1       2.189   4.585  -1.497  0.00  0.00    -0.018 S 
ENDROOT
BRANCH   6   9
ATOM      9  C   UNL     1      -0.551   4.207   0.076  0.00  0.00    +0.112 C 
BRANCH   9  10
ATOM     10  C   UNL     1      -1.403   5.043  -0.881  0.00  0.00    +0.054 C 
BRANCH  10  11
ATOM     11  C   UNL     1      -1.954   6.239  -0.149  0.00  0.00    -0.046 A 
ATOM     12  C   UNL     1      -3.128   6.127   0.573  0.00  0.00    +0.005 A 
ATOM     13  C   UNL     1      -3.631   7.222   1.249  0.00  0.00    +0.029 A 
ATOM     14  C   UNL     1      -2.966   8.433   1.194  0.00  0.00    +0.105 A 
ATOM     15  C   UNL     1      -1.795   8.547   0.469  0.00  0.00    +0.029 A 
ATOM     16  C   UNL     1      -1.289   7.449  -0.203  0.00  0.00    +0.005 A 
BRANCH  14  17
ATOM     17  S   UNL     1      -3.612   9.831   2.050  0.00  0.00    +0.056 S 
ATOM     18  O   UNL     1      -4.425   9.325   3.100  0.00  0.00    -0.153 OA
ATOM     19  O   UNL     1      -2.515  10.703   2.289  0.00  0.00    -0.153 OA
BRANCH  17  20
ATOM     20  N   UNL     1      -4.625  10.621   1.005  0.00  0.00    -0.204 NA
ATOM     21  H   UNL     1      -5.050  11.504   1.504  0.00  0.00    +0.144 HD
ATOM     22  H   UNL     1      -5.437   9.944   0.701  0.00  0.00    +0.144 HD
ENDBRANCH  17  20
ENDBRANCH  14  17
ENDBRANCH  10  11
ENDBRANCH   9  10
ENDBRANCH   6   9
BRANCH   5  23
ATOM     23  C   UNL     1      -1.780   1.720  -1.499  0.00  0.00    +0.128 C 
BRANCH  23  24
ATOM     24  C   UNL     1      -2.294   0.306  -1.571  0.00  0.00    +0.219 C 
ATOM     25  O   UNL     1      -1.706  -0.584  -0.993  0.00  0.00    -0.275 OA
ATOM     26  N   UNL     1      -3.408   0.028  -2.277  0.00  0.00    -0.285 N 
ATOM     27  H   UNL     1      -3.880   0.811  -2.889  0.00  0.00    +0.155 HD
BRANCH  26  28
ATOM     28  C   UNL     1      -3.965  -1.256  -2.231  0.00  0.00    +0.034 A 
ATOM     29  C   UNL     1      -3.880  -2.009  -1.068  0.00  0.00    +0.026 A 
ATOM     30  C   UNL     1      -4.433  -3.274  -1.024  0.00  0.00    +0.040 A 
ATOM     31  C   UNL     1      -5.064  -3.794  -2.142  0.00  0.00    +0.124 A 
ATOM     32  C   UNL     1      -5.145  -3.047  -3.304  0.00  0.00    +0.040 A 
ATOM     33  C   UNL     1      -4.597  -1.780  -3.351  0.00  0.00    +0.026 A 
ATOM     34  F   UNL     1      -5.600  -5.034  -2.098  0.00  0.00    -0.205 F 
ENDBRANCH  26  28
ENDBRANCH  23  24
ENDBRANCH   5  23
TORSDOF 8
