REMARK  Name = ZINC28060501
REMARK  4 active torsions:
REMARK  status: ('A' for Active; 'I' for Inactive)
REMARK    1  A    between atoms: C_1  and  C_2
REMARK    2  A    between atoms: C_2  and  C_3
REMARK    3  A    between atoms: C_6  and  C_9
REMARK    4  A    between atoms: C_26  and  C_28
REMARK                            x       y       z     vdW  Elec       q    Type
REMARK                         _______ _______ _______ _____ _____    ______ ____
ROOT
ATOM      1  C   UNL     1      -0.013   1.086   0.008  0.00  0.00    +0.234 C 
ATOM      2  C   UNL     1      -0.789   1.781   1.104  0.00  0.00    +0.026 C 
ATOM      3  C   UNL     1      -1.398   2.938   0.836  0.00  0.00    +0.050 C 
ATOM      4  C   UNL     1      -1.306   3.481  -0.540  0.00  0.00    +0.038 A 
ATOM      5  C   UNL     1      -1.606   4.809  -0.819  0.00  0.00    +0.013 A 
ATOM      6  C   UNL     1      -1.506   5.271  -2.118  0.00  0.00    +0.001 A 
ATOM      7  C   UNL     1      -1.113   4.418  -3.135  0.00  0.00    +0.004 A 
ATOM      8  C   UNL     1      -0.811   3.095  -2.865  0.00  0.00    +0.046 A 
ATOM      9  C   UNL     1      -0.904   2.620  -1.570  0.00  0.00    +0.131 A 
ATOM     10  O   UNL     1      -0.613   1.331  -1.264  0.00  0.00    -0.479 OA
ATOM     11  N   UNL     1      -2.127   3.640   1.802  0.00  0.00    -0.282 N 
ATOM     12  C   UNL     1      -2.442   2.969   2.972  0.00  0.00    +0.240 A 
ATOM     13  N   UNL     1      -3.277   3.255   3.929  0.00  0.00    -0.092 NA
ATOM     14  N   UNL     1      -3.257   2.333   4.830  0.00  0.00    -0.021 NA
ATOM     15  N   UNL     1      -2.412   1.407   4.508  0.00  0.00    -0.042 NA
ATOM     16  N   UNL     1      -1.848   1.789   3.292  0.00  0.00    -0.201 N 
ATOM     17  C   UNL     1      -0.839   1.139   2.468  0.00  0.00    +0.181 C 
ATOM     18  H   UNL     1      -2.427   4.682   1.616  0.00  0.00    +0.155 HD
ENDROOT
BRANCH   1  22
ATOM     19  C   UNL     1       4.000   2.549  -0.022  0.00  0.00    -0.048 A 
ATOM     20  C   UNL     1       2.973   3.339  -0.504  0.00  0.00    +0.004 A 
ATOM     21  C   UNL     1       1.675   2.865  -0.494  0.00  0.00    +0.008 A 
ATOM     22  C   UNL     1       1.403   1.602  -0.003  0.00  0.00    -0.003 A 
ATOM     23  C   UNL     1       2.430   0.815   0.484  0.00  0.00    +0.008 A 
ATOM     24  C   UNL     1       3.729   1.286   0.470  0.00  0.00    +0.004 A 
BRANCH  19  26
ATOM     25  C   UNL     1       5.702   3.795   1.283  0.00  0.00    +0.009 C 
ATOM     26  C   UNL     1       5.416   3.066  -0.032  0.00  0.00    +0.032 C 
ENDBRANCH  19  26
ENDBRANCH   1  22
BRANCH  17  27
ATOM     27  C   UNL     1       0.507   1.270   3.132  0.00  0.00    +0.019 A 
ATOM     28  C   UNL     1       1.341   0.295   3.571  0.00  0.00    +0.013 A 
ATOM     29  C   UNL     1       2.543   0.653   4.153  0.00  0.00    +0.008 A 
ATOM     30  C   UNL     1       2.848   1.968   4.277  0.00  0.00    +0.045 A 
ATOM     31  S   UNL     1       1.415   2.749   3.551  0.00  0.00    -0.099 S 
ENDBRANCH  17  27
TORSDOF 3
