REMARK  Name = ZINC35926170
REMARK  13 active torsions:
REMARK  status: ('A' for Active; 'I' for Inactive)
REMARK    1  A    between atoms: C_1  and  C_2
REMARK    2  A    between atoms: C_2  and  C_3
REMARK    3  A    between atoms: C_3  and  N_4
REMARK    4  A    between atoms: C_9  and  C_19
REMARK    5  A    between atoms: N_11  and  C_12
REMARK    6  A    between atoms: C_15  and  C_18
REMARK    7  A    between atoms: C_19  and  N_20
REMARK    8  A    between atoms: N_20  and  C_21
REMARK    9  A    between atoms: N_20  and  S_24
REMARK   10  A    between atoms: C_21  and  C_22
REMARK   11  A    between atoms: C_21  and  C_23
REMARK   12  A    between atoms: S_24  and  C_27
REMARK   13  A    between atoms: C_32  and  C_33
REMARK                            x       y       z     vdW  Elec       q    Type
REMARK                         _______ _______ _______ _____ _____    ______ ____
ROOT
ATOM      1  N   UNL     1      -2.588  -0.659   2.680  0.00  0.00    +0.383 N 
ATOM      2  C   UNL     1      -1.818   0.078   1.670  0.00  0.00    -0.072 C 
ATOM      3  C   UNL     1      -1.043  -0.910   0.787  0.00  0.00    +0.037 C 
ATOM      4  C   UNL     1      -2.015  -1.966   0.320  0.00  0.00    +0.045 A 
ATOM      5  C   UNL     1      -3.235  -2.151   0.892  0.00  0.00    -0.018 A 
ATOM      6  C   UNL     1      -3.868  -3.192   0.221  0.00  0.00    +0.081 A 
ATOM      7  N   UNL     1      -3.062  -3.622  -0.720  0.00  0.00    -0.170 NA
ATOM      8  N   UNL     1      -1.883  -2.860  -0.672  0.00  0.00    -0.236 N 
ATOM      9  C   UNL     1      -3.738  -1.332   2.054  0.00  0.00    -0.039 C 
ATOM     10  H   UNL     1      -1.992  -1.348   3.114  0.00  0.00    -0.081 HD
ENDROOT
BRANCH   8  11
ATOM     11  C   UNL     1      -0.770  -3.006  -1.511  0.00  0.00    +0.066 A 
ATOM     12  C   UNL     1       0.506  -2.751  -1.025  0.00  0.00    +0.028 A 
ATOM     13  C   UNL     1       1.601  -2.897  -1.853  0.00  0.00    +0.005 A 
ATOM     14  C   UNL     1       1.429  -3.296  -3.166  0.00  0.00    -0.050 A 
ATOM     15  C   UNL     1       0.160  -3.551  -3.653  0.00  0.00    +0.005 A 
ATOM     16  C   UNL     1      -0.939  -3.412  -2.828  0.00  0.00    +0.028 A 
ATOM     17  C   UNL     1       2.626  -3.453  -4.068  0.00  0.00    +0.044 C 
ENDBRANCH   8  11
BRANCH   1  18
ATOM     18  C   UNL     1      -3.071   0.279   3.703  0.00  0.00    -0.079 C 
BRANCH  18  20
ATOM     19  C   UNL     1      -2.381   1.864   5.507  0.00  0.00    +0.002 C 
ATOM     20  C   UNL     1      -1.878   0.888   4.441  0.00  0.00    -0.022 C 
ENDBRANCH  18  20
ENDBRANCH   1  18
BRANCH   6  21
ATOM     21  C   UNL     1      -5.243  -3.733   0.523  0.00  0.00    +0.167 C 
BRANCH  21  22
ATOM     22  N   UNL     1      -6.104  -3.558  -0.649  0.00  0.00    -0.168 NA
BRANCH  22  23
ATOM     23  C   UNL     1      -6.851  -2.311  -0.831  0.00  0.00    +0.074 C 
ATOM     24  C   UNL     1      -7.795  -2.105   0.355  0.00  0.00    +0.025 C 
ATOM     25  C   UNL     1      -5.872  -1.138  -0.914  0.00  0.00    +0.025 C 
ENDBRANCH  22  23
BRANCH  22  26
ATOM     26  S   UNL     1      -6.233  -4.771  -1.769  0.00  0.00    +0.063 S 
ATOM     27  O   UNL     1      -6.406  -4.142  -3.031  0.00  0.00    -0.153 OA
ATOM     28  O   UNL     1      -5.171  -5.679  -1.509  0.00  0.00    -0.153 OA
BRANCH  26  29
ATOM     29  C   UNL     1      -7.730  -5.637  -1.429  0.00  0.00    +0.123 A 
ATOM     30  C   UNL     1      -8.839  -5.440  -2.226  0.00  0.00    +0.030 A 
ATOM     31  C   UNL     1     -10.015  -6.119  -1.961  0.00  0.00    +0.002 A 
ATOM     32  C   UNL     1     -10.088  -6.998  -0.895  0.00  0.00    +0.001 A 
ATOM     33  C   UNL     1      -8.987  -7.204  -0.090  0.00  0.00    +0.021 A 
ATOM     34  C   UNL     1      -7.795  -6.528  -0.356  0.00  0.00    +0.078 A 
BRANCH  34  35
ATOM     35  C   UNL     1      -6.646  -6.741   0.472  0.00  0.00    +0.101 C 
ATOM     36  N   UNL     1      -5.735  -6.911   1.129  0.00  0.00    -0.191 NA
ENDBRANCH  34  35
ENDBRANCH  26  29
ENDBRANCH  22  26
ENDBRANCH  21  22
ENDBRANCH   6  21
TORSDOF 9
