REMARK  Name = ZINC41584689
REMARK  8 active torsions:
REMARK  status: ('A' for Active; 'I' for Inactive)
REMARK    1  A    between atoms: C_1  and  O_2
REMARK    2  A    between atoms: O_2  and  C_3
REMARK    3  A    between atoms: C_8  and  C_9
REMARK    4  A    between atoms: C_15  and  O_38
REMARK    5  A    between atoms: C_16  and  C_24
REMARK    6  A    between atoms: C_19  and  C_20
REMARK    7  A    between atoms: C_24  and  N_25
REMARK    8  A    between atoms: C_30  and  C_32
REMARK                            x       y       z     vdW  Elec       q    Type
REMARK                         _______ _______ _______ _____ _____    ______ ____
ROOT
ATOM      1  C   UNL     1      -0.006  -2.831  -0.014  0.00  0.00    +0.080 A 
ATOM      2  C   UNL     1       0.818  -2.973   1.202  0.00  0.00    +0.201 A 
ATOM      3  O   UNL     1       0.409  -2.646   2.302  0.00  0.00    -0.286 OA
ATOM      4  C   UNL     1       2.168  -3.535   1.004  0.00  0.00    +0.065 A 
ATOM      5  C   UNL     1       3.131  -3.486   2.012  0.00  0.00    +0.019 A 
ATOM      6  C   UNL     1       4.371  -4.013   1.788  0.00  0.00    +0.046 A 
ATOM      7  C   UNL     1       4.676  -4.596   0.559  0.00  0.00    +0.122 A 
ATOM      8  C   UNL     1       3.729  -4.654  -0.449  0.00  0.00    +0.020 A 
ATOM      9  C   UNL     1       2.462  -4.127  -0.237  0.00  0.00    +0.144 A 
ATOM     10  O   UNL     1       1.523  -4.187  -1.202  0.00  0.00    -0.450 OA
ATOM     11  C   UNL     1       0.409  -3.454  -1.147  0.00  0.00    +0.220 A 
ENDROOT
BRANCH   1  17
ATOM     12  C   UNL     1      -1.200  -0.637   0.010  0.00  0.00    +0.128 A 
ATOM     13  C   UNL     1      -2.374   0.099   0.019  0.00  0.00    +0.046 A 
ATOM     14  C   UNL     1      -3.596  -0.546   0.028  0.00  0.00    +0.004 A 
ATOM     15  C   UNL     1      -3.656  -1.929   0.028  0.00  0.00    +0.001 A 
ATOM     16  C   UNL     1      -2.494  -2.675   0.018  0.00  0.00    +0.012 A 
ATOM     17  C   UNL     1      -1.257  -2.034   0.003  0.00  0.00    +0.031 A 
BRANCH  12  19
ATOM     18  C   UNL     1      -0.017   1.425   0.010  0.00  0.00    +0.277 C 
ATOM     19  O   UNL     1       0.002  -0.004   0.002  0.00  0.00    -0.494 OA
ENDBRANCH  12  19
ENDBRANCH   1  17
BRANCH  11  20
ATOM     20  C   UNL     1      -0.419  -3.306  -2.398  0.00  0.00    +0.451 C 
ATOM     21  F   UNL     1      -1.530  -2.500  -2.128  0.00  0.00    -0.163 F 
ATOM     22  F   UNL     1       0.354  -2.714  -3.402  0.00  0.00    -0.163 F 
ATOM     23  F   UNL     1      -0.850  -4.567  -2.824  0.00  0.00    -0.163 F 
ENDBRANCH  11  20
BRANCH   7  24
ATOM     24  O   UNL     1       5.913  -5.113   0.349  0.00  0.00    -0.506 OA
ATOM     25  H   UNL     1       5.997  -6.045   0.592  0.00  0.00    +0.292 HD
ENDBRANCH   7  24
BRANCH   8  26
ATOM     26  C   UNL     1       4.073  -5.288  -1.772  0.00  0.00    -0.035 C 
BRANCH  26  27
ATOM     27  N   UNL     1       3.753  -6.721  -1.727  0.00  0.00    +0.387 N 
ATOM     28  C   UNL     1       4.612  -7.381  -0.737  0.00  0.00    -0.078 C 
ATOM     29  C   UNL     1       4.229  -8.858  -0.627  0.00  0.00    -0.019 C 
ATOM     30  C   UNL     1       4.411  -9.530  -1.991  0.00  0.00    -0.003 C 
ATOM     31  C   UNL     1       3.567  -8.787  -3.031  0.00  0.00    -0.011 C 
ATOM     32  C   UNL     1       3.975  -7.312  -3.052  0.00  0.00    -0.036 C 
ATOM     33  H   UNL     1       2.787  -6.841  -1.464  0.00  0.00    -0.080 HD
BRANCH  32  34
ATOM     34  C   UNL     1       3.148  -6.577  -4.075  0.00  0.00    -0.043 A 
ATOM     35  C   UNL     1       3.667  -6.301  -5.331  0.00  0.00    +0.005 A 
ATOM     36  C   UNL     1       2.870  -5.622  -6.239  0.00  0.00    +0.020 A 
ATOM     37  C   UNL     1       1.593  -5.246  -5.866  0.00  0.00    +0.111 A 
ATOM     38  N   UNL     1       1.133  -5.525  -4.662  0.00  0.00    -0.263 NA
ATOM     39  C   UNL     1       1.861  -6.174  -3.775  0.00  0.00    +0.112 A 
ENDBRANCH  32  34
ENDBRANCH  26  27
ENDBRANCH   8  26
TORSDOF 7
