REMARK  Name = ZINC39688579
REMARK  7 active torsions:
REMARK  status: ('A' for Active; 'I' for Inactive)
REMARK    1  A    between atoms: C_1  and  C_2
REMARK    2  A    between atoms: C_4  and  C_9
REMARK    3  A    between atoms: C_13  and  C_22
REMARK    4  A    between atoms: N_24  and  C_25
REMARK    5  A    between atoms: C_25  and  C_27
REMARK    6  A    between atoms: C_25  and  C_28
REMARK    7  A    between atoms: C_28  and  C_29
REMARK                            x       y       z     vdW  Elec       q    Type
REMARK                         _______ _______ _______ _____ _____    ______ ____
ROOT
ATOM      1  C   UNL     1      -0.257  -2.557  -2.458  0.00  0.00    +0.247 C 
ATOM      2  O   UNL     1      -0.356  -2.021  -3.545  0.00  0.00    -0.270 OA
ATOM      3  N   UNL     1      -0.021  -3.881  -2.379  0.00  0.00    -0.296 N 
ATOM      4  C   UNL     1       0.019  -4.726  -1.163  0.00  0.00    +0.121 C 
ATOM      5  C   UNL     1      -0.666  -6.046  -1.581  0.00  0.00    +0.100 C 
ATOM      6  C   UNL     1      -0.505  -6.104  -3.109  0.00  0.00    -0.004 C 
ATOM      7  C   UNL     1       0.251  -4.824  -3.491  0.00  0.00    +0.115 C 
ATOM      8  C   UNL     1       0.303  -7.335  -3.509  0.00  0.00    -0.010 C 
ATOM      9  C   UNL     1       0.400  -7.403  -5.035  0.00  0.00    -0.082 C 
ATOM     10  N   UNL     1      -0.949  -7.471  -5.611  0.00  0.00    +0.379 N 
ATOM     11  C   UNL     1      -1.688  -6.241  -5.300  0.00  0.00    -0.082 C 
ATOM     12  C   UNL     1      -1.874  -6.124  -3.784  0.00  0.00    -0.010 C 
ATOM     13  H   UNL     1      -0.881  -7.577  -6.612  0.00  0.00    -0.086 HD
ATOM     14  H   UNL     1      -1.439  -8.263  -5.224  0.00  0.00    -0.086 HD
ENDROOT
BRANCH   1  18
ATOM     15  C   UNL     1      -1.797   1.592  -0.154  0.00  0.00    +0.045 C 
ATOM     16  C   UNL     1      -1.134   0.239  -0.110  0.00  0.00    -0.036 A 
ATOM     17  C   UNL     1      -1.008  -0.503  -1.266  0.00  0.00    +0.017 A 
ATOM     18  C   UNL     1      -0.394  -1.756  -1.224  0.00  0.00    +0.037 A 
ATOM     19  C   UNL     1       0.090  -2.249  -0.011  0.00  0.00    +0.014 A 
ATOM     20  C   UNL     1      -0.041  -1.498   1.138  0.00  0.00    +0.016 A 
ATOM     21  C   UNL     1      -0.647  -0.253   1.089  0.00  0.00    +0.021 A 
ATOM     22 BR   UNL     1      -0.816   0.775   2.667  0.00  0.00    -0.050 Br
ENDBRANCH   1  18
BRANCH   5  23
ATOM     23  C   UNL     1      -2.126  -6.021  -1.205  0.00  0.00    +0.218 C 
ATOM     24  O   UNL     1      -2.742  -4.977  -1.233  0.00  0.00    -0.275 OA
ATOM     25  N   UNL     1      -2.746  -7.160  -0.837  0.00  0.00    -0.312 N 
ATOM     26  H   UNL     1      -2.274  -8.006  -0.882  0.00  0.00    +0.149 HD
BRANCH  25  27
ATOM     27  C   UNL     1      -4.134  -7.120  -0.371  0.00  0.00    +0.074 C 
ATOM     28  C   UNL     1      -5.079  -7.252  -1.567  0.00  0.00    +0.028 C 
BRANCH  27  29
ATOM     29  C   UNL     1      -4.379  -8.275   0.602  0.00  0.00    +0.057 C 
BRANCH  29  30
ATOM     30  C   UNL     1      -3.539  -8.078   1.837  0.00  0.00    -0.045 A 
ATOM     31  C   UNL     1      -2.232  -8.530   1.864  0.00  0.00    +0.006 A 
ATOM     32  C   UNL     1      -1.461  -8.349   2.996  0.00  0.00    +0.038 A 
ATOM     33  C   UNL     1      -1.997  -7.715   4.104  0.00  0.00    +0.123 A 
ATOM     34  C   UNL     1      -3.305  -7.264   4.077  0.00  0.00    +0.038 A 
ATOM     35  C   UNL     1      -4.073  -7.441   2.942  0.00  0.00    +0.006 A 
ATOM     36  F   UNL     1      -1.244  -7.539   5.212  0.00  0.00    -0.205 F 
ENDBRANCH  29  30
ENDBRANCH  27  29
ENDBRANCH  25  27
ENDBRANCH   5  23
TORSDOF 5
