REMARK  Name = ZINC12467918
REMARK  5 active torsions:
REMARK  status: ('A' for Active; 'I' for Inactive)
REMARK    1  A    between atoms: C_13  and  N_14
REMARK    2  A    between atoms: N_17  and  N_20
REMARK    3  A    between atoms: C_21  and  C_22
REMARK    4  A    between atoms: C_25  and  O_29
REMARK    5  A    between atoms: C_27  and  O_28
REMARK                            x       y       z     vdW  Elec       q    Type
REMARK                         _______ _______ _______ _____ _____    ______ ____
ROOT
ATOM      1  N   UNL     1       4.367  -0.806   1.197  0.00  0.00    -0.288 NA
ATOM      2  C   UNL     1       4.951   0.541   1.218  0.00  0.00    +0.106 C 
ATOM      3  C   UNL     1       5.670   0.762   2.553  0.00  0.00    +0.141 C 
ATOM      4  N   UNL     1       6.630  -0.335   2.753  0.00  0.00    -0.253 N 
ATOM      5  C   UNL     1       6.146  -1.717   2.612  0.00  0.00    +0.141 C 
ATOM      6  C   UNL     1       5.408  -1.840   1.275  0.00  0.00    +0.106 C 
ENDROOT
BRANCH   1  19
ATOM      7  C   UNL     1       1.560  -4.768  -0.120  0.00  0.00    +0.001 A 
ATOM      8  C   UNL     1       1.202  -3.937   0.926  0.00  0.00    +0.000 A 
ATOM      9  C   UNL     1       1.787  -2.690   1.052  0.00  0.00    +0.006 A 
ATOM     10  C   UNL     1       2.728  -2.272   0.135  0.00  0.00    -0.018 A 
ATOM     11  C   UNL     1       3.095  -3.102  -0.921  0.00  0.00    -0.013 A 
ATOM     12  C   UNL     1       2.500  -4.359  -1.042  0.00  0.00    +0.009 A 
ATOM     13  C   UNL     1       4.115  -2.419  -1.754  0.00  0.00    -0.013 A 
ATOM     14  C   UNL     1       4.786  -2.830  -2.908  0.00  0.00    +0.009 A 
ATOM     15  C   UNL     1       5.707  -1.994  -3.504  0.00  0.00    +0.001 A 
ATOM     16  C   UNL     1       5.969  -0.748  -2.964  0.00  0.00    +0.000 A 
ATOM     17  C   UNL     1       5.308  -0.334  -1.822  0.00  0.00    +0.006 A 
ATOM     18  C   UNL     1       4.386  -1.163  -1.219  0.00  0.00    -0.018 A 
ATOM     19  C   UNL     1       3.524  -0.997   0.009  0.00  0.00    +0.118 C 
ENDBRANCH   1  19
BRANCH   4  20
ATOM     20  N   UNL     1       7.968  -0.071   3.071  0.00  0.00    -0.192 NA
ATOM     21  C   UNL     1       8.825  -1.044   3.134  0.00  0.00    +0.141 C 
BRANCH  21  22
ATOM     22  C   UNL     1      10.202  -0.785   3.590  0.00  0.00    +0.036 A 
ATOM     23  C   UNL     1      11.128  -1.829   3.653  0.00  0.00    +0.016 A 
ATOM     24  C   UNL     1      12.415  -1.582   4.079  0.00  0.00    +0.046 A 
ATOM     25  C   UNL     1      12.796  -0.298   4.447  0.00  0.00    +0.120 A 
ATOM     26  C   UNL     1      11.884   0.746   4.388  0.00  0.00    +0.091 A 
ATOM     27  C   UNL     1      10.590   0.512   3.956  0.00  0.00    +0.129 A 
BRANCH  27  28
ATOM     28  O   UNL     1       9.698   1.534   3.891  0.00  0.00    -0.506 OA
ATOM     29  H   UNL     1       9.194   1.668   4.706  0.00  0.00    +0.292 HD
ENDBRANCH  27  28
BRANCH  25  30
ATOM     30  O   UNL     1      14.067  -0.063   4.867  0.00  0.00    -0.507 OA
ATOM     31  H   UNL     1      14.679   0.171   4.156  0.00  0.00    +0.292 HD
ENDBRANCH  25  30
ENDBRANCH  21  22
ENDBRANCH   4  20
TORSDOF 5
