REMARK  Name = ZINC67654535
REMARK  3 active torsions:
REMARK  status: ('A' for Active; 'I' for Inactive)
REMARK    1  A    between atoms: C_9  and  O_25
REMARK    2  A    between atoms: C_10  and  C_11
REMARK    3  A    between atoms: C_11  and  N_12
REMARK                            x       y       z     vdW  Elec       q    Type
REMARK                         _______ _______ _______ _____ _____    ______ ____
ROOT
ATOM      1  N   UNL     1       5.393   0.408   1.336  0.00  0.00    +0.383 N 
ATOM      2  C   UNL     1       5.706  -0.871   1.984  0.00  0.00    -0.078 C 
ATOM      3  C   UNL     1       6.085  -0.628   3.446  0.00  0.00    -0.012 C 
ATOM      4  C   UNL     1       7.329   0.275   3.500  0.00  0.00    -0.031 C 
ATOM      5  C   UNL     1       8.471  -0.422   2.776  0.00  0.00    +0.016 C 
ATOM      6  C   UNL     1       8.714  -1.817   3.351  0.00  0.00    +0.096 C 
ATOM      7  C   UNL     1       9.630  -1.693   4.550  0.00  0.00    +0.213 C 
ATOM      8  O   UNL     1      10.777  -2.082   4.480  0.00  0.00    -0.276 OA
ATOM      9  N   UNL     1       9.178  -1.157   5.684  0.00  0.00    -0.315 N 
ATOM     10  C   UNL     1       7.785  -0.688   5.778  0.00  0.00    +0.104 C 
ATOM     11  C   UNL     1       7.640   0.591   4.955  0.00  0.00    +0.025 C 
ATOM     12  C   UNL     1       6.999   1.585   2.766  0.00  0.00    -0.012 C 
ATOM     13  C   UNL     1       6.585   1.265   1.329  0.00  0.00    -0.078 C 
ATOM     14  H   UNL     1       9.768  -1.075   6.449  0.00  0.00    +0.149 HD
ATOM     15  H   UNL     1       4.652   0.869   1.843  0.00  0.00    -0.081 HD
ENDROOT
BRANCH   1  16
ATOM     16  C   UNL     1       4.960   0.163  -0.046  0.00  0.00    -0.039 C 
BRANCH  16  26
ATOM     17  C   UNL     1      -0.016   1.357   0.009  0.00  0.00    +0.001 A 
ATOM     18  C   UNL     1       1.168   2.091   0.002  0.00  0.00    +0.001 A 
ATOM     19  C   UNL     1       2.378   1.468  -0.013  0.00  0.00    +0.009 A 
ATOM     20  C   UNL     1       2.438   0.064  -0.021  0.00  0.00    -0.013 A 
ATOM     21  C   UNL     1       1.232  -0.683  -0.013  0.00  0.00    -0.017 A 
ATOM     22  C   UNL     1       0.002  -0.004   0.002  0.00  0.00    +0.008 A 
ATOM     23  C   UNL     1       1.290  -2.087  -0.021  0.00  0.00    +0.012 A 
ATOM     24  C   UNL     1       2.497  -2.713  -0.036  0.00  0.00    +0.046 A 
ATOM     25  C   UNL     1       3.687  -1.979  -0.043  0.00  0.00    +0.119 A 
ATOM     26  C   UNL     1       3.668  -0.613  -0.037  0.00  0.00    -0.015 A 
BRANCH  25  27
ATOM     27  O   UNL     1       4.878  -2.633  -0.057  0.00  0.00    -0.507 OA
ATOM     28  H   UNL     1       5.215  -2.818  -0.945  0.00  0.00    +0.292 HD
ENDBRANCH  25  27
ENDBRANCH  16  26
ENDBRANCH   1  16
TORSDOF 3
