REMARK  Name = ZINC36601365
REMARK  13 active torsions:
REMARK  status: ('A' for Active; 'I' for Inactive)
REMARK    1  A    between atoms: C_1  and  C_2
REMARK    2  A    between atoms: C_5  and  C_7
REMARK    3  A    between atoms: C_7  and  N_8
REMARK    4  A    between atoms: N_8  and  C_9
REMARK    5  A    between atoms: C_9  and  C_11
REMARK    6  A    between atoms: C_9  and  C_18
REMARK    7  A    between atoms: C_16  and  O_17
REMARK    8  A    between atoms: N_20  and  C_21
REMARK    9  A    between atoms: C_21  and  C_22
REMARK   10  A    between atoms: C_21  and  C_23
REMARK   11  A    between atoms: C_21  and  C_24
REMARK   12  A    between atoms: C_25  and  C_27
REMARK   13  A    between atoms: C_31  and  N_33
REMARK                            x       y       z     vdW  Elec       q    Type
REMARK                         _______ _______ _______ _____ _____    ______ ____
ROOT
ATOM      1  N   UNL     1       2.698  -2.608  -1.474  0.00  0.00    -0.274 N 
ATOM      2  C   UNL     1       1.387  -2.311  -1.375  0.00  0.00    +0.248 C 
ATOM      3  O   UNL     1       0.861  -2.236  -0.282  0.00  0.00    -0.270 OA
ENDROOT
BRANCH   2   4
ATOM      4  C   UNL     1       0.588  -2.077  -2.597  0.00  0.00    +0.039 A 
ATOM      5  C   UNL     1       1.036  -2.555  -3.829  0.00  0.00    +0.013 A 
ATOM      6  C   UNL     1       0.285  -2.334  -4.966  0.00  0.00    +0.003 A 
ATOM      7  C   UNL     1      -0.908  -1.638  -4.886  0.00  0.00    +0.033 A 
ATOM      8  C   UNL     1      -1.357  -1.161  -3.667  0.00  0.00    +0.127 A 
ATOM      9  C   UNL     1      -0.620  -1.381  -2.522  0.00  0.00    +0.045 A 
BRANCH   8  10
ATOM     10  N   UNL     1      -2.635  -0.418  -3.591  0.00  0.00    +0.056 N 
ATOM     11  O   UNL     1      -3.285  -0.228  -4.593  0.00  0.00    -0.126 OA
ATOM     12  O   UNL     1      -3.029   0.000  -2.527  0.00  0.00    -0.126 OA
ENDBRANCH   8  10
ENDBRANCH   2   4
BRANCH   1  13
ATOM     13  C   UNL     1       3.460  -2.964  -0.274  0.00  0.00    +0.183 C 
BRANCH  13  18
ATOM     14  C   UNL     1       2.119  -7.744   0.621  0.00  0.00    +0.086 C 
ATOM     15  C   UNL     1       2.946  -6.543   0.240  0.00  0.00    +0.102 A 
ATOM     16  C   UNL     1       4.228  -6.567  -0.167  0.00  0.00    +0.045 A 
ATOM     17  C   UNL     1       4.604  -5.228  -0.418  0.00  0.00    +0.046 A 
ATOM     18  C   UNL     1       3.529  -4.465  -0.150  0.00  0.00    +0.122 A 
ATOM     19  O   UNL     1       2.526  -5.267   0.242  0.00  0.00    -0.463 OA
ENDBRANCH  13  18
ENDBRANCH   1  13
BRANCH   1  20
ATOM     20  C   UNL     1       3.360  -2.575  -2.780  0.00  0.00    +0.196 C 
BRANCH  20  21
ATOM     21  C   UNL     1       2.874  -1.380  -3.559  0.00  0.00    +0.023 A 
ATOM     22  C   UNL     1       2.120  -0.406  -2.933  0.00  0.00    +0.009 A 
ATOM     23  C   UNL     1       1.673   0.690  -3.648  0.00  0.00    +0.001 A 
ATOM     24  C   UNL     1       1.980   0.815  -4.990  0.00  0.00    +0.004 A 
ATOM     25  C   UNL     1       2.734  -0.156  -5.621  0.00  0.00    +0.046 A 
ATOM     26  C   UNL     1       3.188  -1.254  -4.904  0.00  0.00    +0.122 A 
BRANCH  26  27
ATOM     27  O   UNL     1       3.935  -2.208  -5.521  0.00  0.00    -0.506 OA
ATOM     28  H   UNL     1       3.415  -2.923  -5.912  0.00  0.00    +0.292 HD
ENDBRANCH  26  27
ENDBRANCH  20  21
BRANCH  20  29
ATOM     29  C   UNL     1       4.851  -2.474  -2.584  0.00  0.00    +0.239 C 
ATOM     30  O   UNL     1       5.386  -3.076  -1.678  0.00  0.00    -0.273 OA
ATOM     31  N   UNL     1       5.590  -1.715  -3.417  0.00  0.00    -0.309 N 
ATOM     32  H   UNL     1       5.156  -1.177  -4.098  0.00  0.00    +0.149 HD
BRANCH  31  33
ATOM     33  C   UNL     1       7.050  -1.702  -3.295  0.00  0.00    +0.026 C 
ATOM     34  C   UNL     1       7.597  -3.106  -3.566  0.00  0.00    +0.031 C 
ATOM     35  C   UNL     1       7.638  -0.721  -4.311  0.00  0.00    +0.031 C 
ATOM     36  C   UNL     1       7.440  -1.267  -1.881  0.00  0.00    +0.031 C 
ENDBRANCH  31  33
ENDBRANCH  20  29
ENDBRANCH   1  20
TORSDOF 9
