REMARK  Name = ZINC65298214
REMARK  7 active torsions:
REMARK  status: ('A' for Active; 'I' for Inactive)
REMARK    1  A    between atoms: C_1  and  C_2
REMARK    2  A    between atoms: C_2  and  N_3
REMARK    3  A    between atoms: C_10  and  C_22
REMARK    4  A    between atoms: C_13  and  C_15
REMARK    5  A    between atoms: C_26  and  O_29
REMARK    6  A    between atoms: C_27  and  O_28
REMARK    7  A    between atoms: O_29  and  C_30
REMARK                            x       y       z     vdW  Elec       q    Type
REMARK                         _______ _______ _______ _____ _____    ______ ____
ROOT
ATOM      1  N   UNL     1      -1.376  -0.512   0.012  0.00  0.00    +0.380 N 
ATOM      2  C   UNL     1      -2.027  -0.131   1.271  0.00  0.00    -0.075 C 
ATOM      3  C   UNL     1      -3.487  -0.590   1.255  0.00  0.00    +0.027 C 
ATOM      4  C   UNL     1      -3.534  -2.113   1.098  0.00  0.00    +0.109 C 
ATOM      5  C   UNL     1      -2.792  -2.503  -0.185  0.00  0.00    +0.027 C 
ATOM      6  C   UNL     1      -1.357  -1.974  -0.116  0.00  0.00    -0.075 C 
ATOM      7  N   UNL     1      -4.935  -2.546   0.996  0.00  0.00    -0.286 NA
ATOM      8  C   UNL     1      -5.016  -4.016   1.035  0.00  0.00    +0.095 C 
ATOM      9  C   UNL     1      -4.604  -4.480   2.436  0.00  0.00    +0.079 C 
ATOM     10  C   UNL     1      -3.337  -3.781   2.842  0.00  0.00    +0.047 C 
ATOM     11  N   UNL     1      -2.888  -2.742   2.244  0.00  0.00    -0.266 NA
ATOM     12  H   UNL     1      -5.495  -2.133   1.726  0.00  0.00    +0.125 HD
ATOM     13  H   UNL     1      -1.886  -0.114  -0.762  0.00  0.00    -0.082 HD
ENDROOT
BRANCH  10  14
ATOM     14  C   UNL     1      -2.573  -4.318   3.985  0.00  0.00    -0.004 A 
ATOM     15  C   UNL     1      -3.027  -5.453   4.660  0.00  0.00    +0.011 A 
ATOM     16  C   UNL     1      -2.309  -5.950   5.727  0.00  0.00    +0.016 A 
ATOM     17  C   UNL     1      -1.141  -5.326   6.131  0.00  0.00    +0.018 A 
ATOM     18  C   UNL     1      -0.686  -4.199   5.466  0.00  0.00    +0.016 A 
ATOM     19  C   UNL     1      -1.391  -3.696   4.393  0.00  0.00    +0.011 A 
ATOM     20 BR   UNL     1      -0.163  -6.014   7.595  0.00  0.00    -0.050 Br
ENDBRANCH  10  14
BRANCH   8  21
ATOM     21  C   UNL     1      -6.429  -4.454   0.749  0.00  0.00    +0.015 A 
ATOM     22  C   UNL     1      -7.475  -3.563   0.904  0.00  0.00    +0.009 A 
ATOM     23  C   UNL     1      -8.772  -3.962   0.642  0.00  0.00    +0.004 A 
ATOM     24  C   UNL     1      -9.030  -5.255   0.225  0.00  0.00    +0.049 A 
ATOM     25  C   UNL     1      -7.987  -6.153   0.067  0.00  0.00    +0.162 A 
ATOM     26  C   UNL     1      -6.680  -5.749   0.325  0.00  0.00    +0.163 A 
BRANCH  26  27
ATOM     27  O   UNL     1      -5.653  -6.626   0.167  0.00  0.00    -0.503 OA
ATOM     28  H   UNL     1      -5.446  -7.137   0.961  0.00  0.00    +0.292 HD
ENDBRANCH  26  27
BRANCH  25  29
ATOM     29  O   UNL     1      -8.239  -7.425  -0.343  0.00  0.00    -0.491 OA
ATOM     30  C   UNL     1      -9.604  -7.767  -0.595  0.00  0.00    +0.277 C 
ENDBRANCH  25  29
ENDBRANCH   8  21
BRANCH   1  32
ATOM     31  C   UNL     1      -0.019   1.526   0.010  0.00  0.00    -0.017 C 
ATOM     32  C   UNL     1       0.002  -0.004   0.002  0.00  0.00    -0.082 C 
ENDBRANCH   1  32
TORSDOF 5
