REMARK  Name = ZINC37443748
REMARK  6 active torsions:
REMARK  status: ('A' for Active; 'I' for Inactive)
REMARK    1  A    between atoms: C_1  and  C_2
REMARK    2  A    between atoms: C_7  and  N_12
REMARK    3  A    between atoms: C_9  and  C_11
REMARK    4  A    between atoms: C_13  and  C_15
REMARK    5  A    between atoms: C_15  and  C_35
REMARK    6  A    between atoms: N_27  and  C_28
REMARK                            x       y       z     vdW  Elec       q    Type
REMARK                         _______ _______ _______ _____ _____    ______ ____
ROOT
ATOM      1  C   UNL     1       2.642  -4.135   3.387  0.00  0.00    +0.129 C 
ATOM      2  C   UNL     1       1.561  -4.912   4.139  0.00  0.00    +0.157 C 
ATOM      3  N   UNL     1       0.844  -3.996   5.032  0.00  0.00    -0.331 N 
ATOM      4  C   UNL     1      -0.443  -4.035   5.476  0.00  0.00    +0.088 A 
ATOM      5  C   UNL     1      -1.679  -4.724   5.434  0.00  0.00    +0.067 A 
ATOM      6  C   UNL     1      -2.535  -4.058   6.228  0.00  0.00    +0.198 A 
ATOM      7  O   UNL     1      -1.913  -2.994   6.763  0.00  0.00    -0.461 OA
ATOM      8  C   UNL     1      -0.637  -2.946   6.325  0.00  0.00    +0.153 A 
ATOM      9  C   UNL     1       0.570  -2.233   6.384  0.00  0.00    +0.079 A 
ATOM     10  C   UNL     1       1.466  -2.879   5.585  0.00  0.00    +0.109 A 
ATOM     11  C   UNL     1       2.862  -2.560   5.263  0.00  0.00    +0.264 C 
ATOM     12  O   UNL     1       3.477  -1.696   5.861  0.00  0.00    -0.268 OA
ATOM     13  N   UNL     1       3.429  -3.277   4.265  0.00  0.00    -0.278 N 
ATOM     14  C   UNL     1       3.577  -5.133   2.701  0.00  0.00    +0.043 C 
ENDROOT
BRANCH  13  15
ATOM     15  C   UNL     1       4.878  -3.190   4.061  0.00  0.00    +0.078 C 
ATOM     16  C   UNL     1       5.591  -3.585   5.370  0.00  0.00    +0.022 C 
ATOM     17  C   UNL     1       7.003  -3.989   5.042  0.00  0.00    +0.002 C 
ATOM     18  C   UNL     1       7.999  -2.822   5.186  0.00  0.00    +0.000 C 
ATOM     19  C   UNL     1       7.449  -1.495   4.630  0.00  0.00    +0.000 C 
ATOM     20  C   UNL     1       6.715  -1.675   3.329  0.00  0.00    +0.002 C 
ATOM     21  C   UNL     1       5.212  -1.840   3.632  0.00  0.00    +0.022 C 
ENDBRANCH  13  15
BRANCH   1  23
ATOM     22  N   UNL     1       1.561  -2.039   2.640  0.00  0.00    -0.310 N 
ATOM     23  C   UNL     1       1.984  -3.282   2.334  0.00  0.00    +0.238 C 
ATOM     24  O   UNL     1       1.836  -3.713   1.210  0.00  0.00    -0.273 OA
ATOM     25  H   UNL     1       1.680  -1.695   3.539  0.00  0.00    +0.149 HD
BRANCH  22  31
ATOM     26  C   UNL     1       0.610   2.612   1.260  0.00  0.00    +0.008 C 
ATOM     27  C   UNL     1       0.432   1.135   0.903  0.00  0.00    -0.009 C 
ATOM     28  C   UNL     1      -1.060   0.802   0.836  0.00  0.00    +0.003 C 
ATOM     29  C   UNL     1      -1.237  -0.675   0.479  0.00  0.00    +0.002 C 
ATOM     30  C   UNL     1      -0.570  -1.542   1.548  0.00  0.00    +0.022 C 
ATOM     31  C   UNL     1       0.922  -1.209   1.616  0.00  0.00    +0.076 C 
ATOM     32  C   UNL     1       1.100   0.268   1.973  0.00  0.00    +0.009 C 
ATOM     33  C   UNL     1       0.453   0.546   3.331  0.00  0.00    +0.009 C 
ENDBRANCH  22  31
ENDBRANCH   1  23
TORSDOF 3
