REMARK  Name = ZINC04985049
REMARK  5 active torsions:
REMARK  status: ('A' for Active; 'I' for Inactive)
REMARK    1  A    between atoms: C_1  and  C_2
REMARK    2  A    between atoms: C_9  and  C_11
REMARK    3  A    between atoms: C_11  and  N_54
REMARK    4  A    between atoms: C_14  and  C_17
REMARK    5  A    between atoms: C_14  and  O_26
REMARK                            x       y       z     vdW  Elec       q    Type
REMARK                         _______ _______ _______ _____ _____    ______ ____
ROOT
ATOM      1  C   UNL     1      -1.141  -1.684  -3.641  0.00  0.00    -0.075 C 
ATOM      2  C   UNL     1      -1.843  -2.781  -4.445  0.00  0.00    +0.021 C 
ATOM      3  C   UNL     1      -2.871  -2.141  -5.381  0.00  0.00    +0.088 C 
ATOM      4  C   UNL     1      -3.867  -1.325  -4.552  0.00  0.00    +0.021 C 
ATOM      5  C   UNL     1      -3.106  -0.270  -3.745  0.00  0.00    -0.075 C 
ATOM      6  N   UNL     1      -2.150  -0.951  -2.847  0.00  0.00    +0.386 N 
ATOM      7  H   UNL     1      -2.662  -1.620  -2.260  0.00  0.00    -0.081 HD
ENDROOT
BRANCH   3   8
ATOM      8  C   UNL     1      -3.608  -3.220  -6.132  0.00  0.00    -0.013 A 
ATOM      9  C   UNL     1      -4.760  -3.769  -5.599  0.00  0.00    +0.010 A 
ATOM     10  C   UNL     1      -5.442  -4.755  -6.287  0.00  0.00    +0.050 A 
ATOM     11  C   UNL     1      -4.965  -5.205  -7.508  0.00  0.00    +0.166 A 
ATOM     12  C   UNL     1      -3.802  -4.656  -8.042  0.00  0.00    +0.167 A 
ATOM     13  C   UNL     1      -3.127  -3.664  -7.350  0.00  0.00    +0.056 A 
ATOM     14  O   UNL     1      -3.545  -5.261  -9.239  0.00  0.00    -0.453 OA
ATOM     15  C   UNL     1      -4.332  -6.466  -9.238  0.00  0.00    +0.466 C 
ATOM     16  O   UNL     1      -5.437  -6.153  -8.369  0.00  0.00    -0.453 OA
ENDBRANCH   3   8
BRANCH   3  17
ATOM     17  O   UNL     1      -2.204  -1.283  -6.309  0.00  0.00    -0.384 OA
ATOM     18  H   UNL     1      -1.558  -1.734  -6.868  0.00  0.00    +0.211 HD
ENDBRANCH   3  17
BRANCH   6  19
ATOM     19  C   UNL     1      -1.484   0.039  -1.975  0.00  0.00    +0.019 C 
BRANCH  19  27
ATOM     20  C   UNL     1       3.016  -0.790   2.155  0.00  0.00    +0.009 C 
ATOM     21  C   UNL     1       2.220  -0.169   1.005  0.00  0.00    +0.003 C 
ATOM     22  C   UNL     1       2.194   1.353   1.166  0.00  0.00    +0.006 C 
ATOM     23  C   UNL     1       1.426   1.978  -0.001  0.00  0.00    +0.019 C 
ATOM     24  C   UNL     1      -0.018   1.465   0.010  0.00  0.00    +0.107 C 
ATOM     25  N   UNL     1       0.002  -0.004   0.002  0.00  0.00    -0.303 N 
ATOM     26  C   UNL     1       0.786  -0.706   1.028  0.00  0.00    +0.111 C 
ATOM     27  C   UNL     1      -0.685  -0.695  -0.929  0.00  0.00    +0.199 C 
ATOM     28  O   UNL     1      -0.661  -1.908  -0.925  0.00  0.00    -0.278 OA
ENDBRANCH  19  27
ENDBRANCH   6  19
TORSDOF 4
