REMARK  Name = ZINC33683682
REMARK  9 active torsions:
REMARK  status: ('A' for Active; 'I' for Inactive)
REMARK    1  A    between atoms: C_1  and  C_2
REMARK    2  A    between atoms: C_3  and  C_17
REMARK    3  A    between atoms: C_4  and  C_10
REMARK    4  A    between atoms: N_19  and  N_20
REMARK    5  A    between atoms: C_21  and  C_22
REMARK    6  A    between atoms: C_25  and  O_30
REMARK    7  A    between atoms: C_27  and  O_28
REMARK    8  A    between atoms: O_28  and  C_29
REMARK    9  A    between atoms: O_30  and  C_31
REMARK                            x       y       z     vdW  Elec       q    Type
REMARK                         _______ _______ _______ _____ _____    ______ ____
ROOT
ATOM      1  C   UNL     1       0.931   3.602   1.220  0.00  0.00    +0.061 C 
ATOM      2  C   UNL     1      -0.177   2.725   0.696  0.00  0.00    +0.017 C 
ATOM      3  C   UNL     1      -0.537   1.625   1.388  0.00  0.00    +0.057 C 
ATOM      4  C   UNL     1      -1.656   0.772   0.826  0.00  0.00    +0.139 C 
ATOM      5  N   UNL     1      -2.263   1.217  -0.440  0.00  0.00    -0.315 N 
ATOM      6  C   UNL     1      -1.794   2.342  -1.015  0.00  0.00    +0.135 C 
ATOM      7  S   UNL     1      -2.489   2.872  -2.487  0.00  0.00    -0.019 S 
ATOM      8  N   UNL     1      -0.801   3.058  -0.473  0.00  0.00    -0.300 N 
ATOM      9  H   UNL     1      -3.079   0.636  -0.893  0.00  0.00    +0.149 HD
ATOM     10  H   UNL     1      -0.493   3.959  -1.024  0.00  0.00    +0.154 HD
ENDROOT
BRANCH   4  11
ATOM     11  C   UNL     1      -1.119  -0.621   0.619  0.00  0.00    -0.023 A 
ATOM     12  C   UNL     1      -0.450  -0.936  -0.549  0.00  0.00    +0.007 A 
ATOM     13  C   UNL     1       0.048  -2.212  -0.738  0.00  0.00    +0.020 A 
ATOM     14  C   UNL     1      -0.133  -3.176   0.238  0.00  0.00    +0.041 A 
ATOM     15  C   UNL     1      -0.807  -2.861   1.404  0.00  0.00    +0.020 A 
ATOM     16  C   UNL     1      -1.300  -1.584   1.594  0.00  0.00    +0.007 A 
ATOM     17 CL   UNL     1       0.486  -4.780  -0.001  0.00  0.00    -0.084 Cl
ENDBRANCH   4  11
BRANCH   3  18
ATOM     18  C   UNL     1       0.108   1.280   2.601  0.00  0.00    +0.263 C 
ATOM     19  O   UNL     1      -0.421   1.538   3.667  0.00  0.00    -0.269 OA
ATOM     20  N   UNL     1       1.308   0.667   2.575  0.00  0.00    -0.203 N 
ATOM     21  H   UNL     1       1.825   0.511   1.616  0.00  0.00    +0.178 HD
BRANCH  20  22
ATOM     22  N   UNL     1       1.897   0.229   3.768  0.00  0.00    -0.187 NA
ATOM     23  C   UNL     1       3.053  -0.362   3.743  0.00  0.00    +0.142 C 
BRANCH  23  24
ATOM     24  C   UNL     1       3.672  -0.822   4.998  0.00  0.00    +0.036 A 
ATOM     25  C   UNL     1       4.916  -1.458   4.974  0.00  0.00    +0.016 A 
ATOM     26  C   UNL     1       5.492  -1.887   6.149  0.00  0.00    +0.046 A 
ATOM     27  C   UNL     1       4.840  -1.689   7.361  0.00  0.00    +0.124 A 
ATOM     28  C   UNL     1       3.605  -1.058   7.395  0.00  0.00    +0.091 A 
ATOM     29  C   UNL     1       3.018  -0.619   6.221  0.00  0.00    +0.132 A 
BRANCH  29  30
ATOM     30  O   UNL     1       1.812   0.003   6.254  0.00  0.00    -0.494 OA
ATOM     31  C   UNL     1       1.205   0.175   7.536  0.00  0.00    +0.277 C 
ENDBRANCH  29  30
BRANCH  27  32
ATOM     32  O   UNL     1       5.415  -2.115   8.516  0.00  0.00    -0.495 OA
ATOM     33  C   UNL     1       6.687  -2.756   8.409  0.00  0.00    +0.277 C 
ENDBRANCH  27  32
ENDBRANCH  23  24
ENDBRANCH  20  22
ENDBRANCH   3  18
TORSDOF 6
