REMARK  Name = ZINC09461834
REMARK  7 active torsions:
REMARK  status: ('A' for Active; 'I' for Inactive)
REMARK    1  A    between atoms: C_4  and  N_16
REMARK    2  A    between atoms: C_6  and  S_7
REMARK    3  A    between atoms: S_7  and  N_10
REMARK    4  A    between atoms: C_17  and  C_19
REMARK    5  A    between atoms: C_19  and  N_56
REMARK    6  A    between atoms: C_25  and  N_29
REMARK    7  A    between atoms: C_26  and  C_27
REMARK                            x       y       z     vdW  Elec       q    Type
REMARK                         _______ _______ _______ _____ _____    ______ ____
ROOT
ATOM      1  N   UNL     1       6.217   0.164  -2.690  0.00  0.00    -0.286 N 
ATOM      2  C   UNL     1       7.036   0.954  -1.968  0.00  0.00    +0.201 C 
ATOM      3  O   UNL     1       7.051   0.867  -0.758  0.00  0.00    -0.278 OA
ATOM      4  H   UNL     1       6.262   0.175  -3.659  0.00  0.00    +0.155 HD
ENDROOT
BRANCH   1   8
ATOM      5  C   UNL     1       3.490  -2.327  -0.759  0.00  0.00    +0.030 A 
ATOM      6  C   UNL     1       3.929  -2.641  -2.033  0.00  0.00    +0.024 A 
ATOM      7  C   UNL     1       4.834  -1.818  -2.675  0.00  0.00    +0.062 A 
ATOM      8  C   UNL     1       5.300  -0.672  -2.042  0.00  0.00    +0.054 A 
ATOM      9  C   UNL     1       4.853  -0.357  -0.766  0.00  0.00    +0.053 A 
ATOM     10  C   UNL     1       3.948  -1.184  -0.129  0.00  0.00    +0.107 A 
ATOM     11 CL   UNL     1       5.389  -2.216  -4.272  0.00  0.00    -0.082 Cl
BRANCH  10  12
ATOM     12  S   UNL     1       3.381  -0.786   1.491  0.00  0.00    +0.061 S 
ATOM     13  O   UNL     1       4.378   0.039   2.078  0.00  0.00    -0.153 OA
ATOM     14  O   UNL     1       2.956  -2.005   2.083  0.00  0.00    -0.153 OA
BRANCH  12  15
ATOM     15  N   UNL     1       2.029   0.154   1.319  0.00  0.00    -0.177 NA
ATOM     16  C   UNL     1       0.696  -0.459   1.244  0.00  0.00    +0.109 C 
ATOM     17  C   UNL     1      -0.008   0.045  -0.020  0.00  0.00    +0.017 C 
ATOM     18  C   UNL     1      -0.019   1.575  -0.017  0.00  0.00    +0.003 C 
ATOM     19  C   UNL     1       1.419   2.098  -0.025  0.00  0.00    +0.017 C 
ATOM     20  C   UNL     1       2.139   1.617   1.239  0.00  0.00    +0.109 C 
ENDBRANCH  12  15
ENDBRANCH  10  12
ENDBRANCH   1   8
BRANCH   2  21
ATOM     21  C   UNL     1       7.935   1.943  -2.663  0.00  0.00    +0.019 C 
BRANCH  21  30
ATOM     22  C   UNL     1       9.439   3.802  -2.279  0.00  0.00    -0.073 C 
ATOM     23  C   UNL     1       9.939   4.763  -1.197  0.00  0.00    +0.019 C 
ATOM     24  C   UNL     1      10.705   3.952  -0.158  0.00  0.00    -0.022 A 
ATOM     25  C   UNL     1      10.548   2.610  -0.095  0.00  0.00    -0.021 A 
ATOM     26  S   UNL     1      11.606   2.094   1.225  0.00  0.00    -0.079 S 
ATOM     27  C   UNL     1      12.247   3.635   1.690  0.00  0.00    +0.081 A 
ATOM     28  C   UNL     1      11.627   4.514   0.811  0.00  0.00    +0.083 A 
ATOM     29  C   UNL     1       9.663   1.777  -0.968  0.00  0.00    -0.035 C 
ATOM     30  N   UNL     1       8.707   2.687  -1.644  0.00  0.00    +0.389 N 
ATOM     31  H   UNL     1       8.057   3.068  -0.947  0.00  0.00    -0.081 HD
BRANCH  27  32
ATOM     32  N   UNL     1      13.156   3.921   2.693  0.00  0.00    -0.352 N 
ATOM     33  H   UNL     1      13.434   4.837   2.849  0.00  0.00    +0.143 HD
ATOM     34  H   UNL     1      13.516   3.205   3.240  0.00  0.00    +0.143 HD
ENDBRANCH  27  32
BRANCH  28  35
ATOM     35  C   UNL     1      11.888   5.922   0.859  0.00  0.00    +0.102 C 
ATOM     36  N   UNL     1      12.095   7.038   0.897  0.00  0.00    -0.191 NA
ENDBRANCH  28  35
ENDBRANCH  21  30
ENDBRANCH   2  21
TORSDOF 7
