REMARK  Name = ZINC64031692
REMARK  10 active torsions:
REMARK  status: ('A' for Active; 'I' for Inactive)
REMARK    1  A    between atoms: C_1  and  N_2
REMARK    2  A    between atoms: N_2  and  C_3
REMARK    3  A    between atoms: C_3  and  C_4
REMARK    4  A    between atoms: C_15  and  C_17
REMARK    5  A    between atoms: C_17  and  C_18
REMARK    6  A    between atoms: C_18  and  C_19
REMARK    7  A    between atoms: C_19  and  C_25
REMARK    8  A    between atoms: C_25  and  C_26
REMARK    9  A    between atoms: C_30  and  O_32
REMARK   10  A    between atoms: O_32  and  C_33
REMARK                            x       y       z     vdW  Elec       q    Type
REMARK                         _______ _______ _______ _____ _____    ______ ____
ROOT
ATOM      1  C   UNL     1      -0.023   0.089  -2.470  0.00  0.00    +0.098 C 
ENDROOT
BRANCH   1   4
ATOM      2  C   UNL     1      -0.018   1.461   0.010  0.00  0.00    +0.132 C 
ATOM      3  N   UNL     1       0.002  -0.004   0.002  0.00  0.00    -0.301 N 
ATOM      4  C   UNL     1       0.000  -0.672  -1.169  0.00  0.00    +0.216 C 
ATOM      5  O   UNL     1       0.017  -1.884  -1.175  0.00  0.00    -0.276 OA
BRANCH   3   6
ATOM      6  C   UNL     1       0.024  -0.743   1.267  0.00  0.00    +0.154 C 
BRANCH   6   7
ATOM      7  C   UNL     1      -1.411  -1.020   1.720  0.00  0.00    +0.192 C 
ATOM      8  N   UNL     1      -2.130  -1.773   0.685  0.00  0.00    -0.362 N 
ATOM      9  C   UNL     1      -3.141  -1.047   0.305  0.00  0.00    +0.060 A 
ATOM     10  C   UNL     1      -4.207  -1.259  -0.685  0.00  0.00    +0.030 A 
ATOM     11  C   UNL     1      -5.143  -0.308  -0.869  0.00  0.00    +0.040 A 
ATOM     12  C   UNL     1      -5.148   0.901  -0.145  0.00  0.00    +0.125 A 
ATOM     13  C   UNL     1      -4.215   1.195   0.787  0.00  0.00    +0.065 A 
ATOM     14  C   UNL     1      -3.146   0.231   1.070  0.00  0.00    +0.063 A 
ATOM     15  N   UNL     1      -2.137   0.244   1.896  0.00  0.00    -0.362 N 
ATOM     16  F   UNL     1      -6.124   1.802  -0.392  0.00  0.00    -0.205 F 
ATOM     17  H   UNL     1      -1.895  -2.651   0.346  0.00  0.00    +0.162 HD
ATOM     18  H   UNL     1      -1.907   0.957   2.512  0.00  0.00    +0.162 HD
ENDBRANCH   6   7
ENDBRANCH   3   6
ENDBRANCH   1   4
BRANCH   1  19
ATOM     19  C   UNL     1      -0.020  -0.899  -3.638  0.00  0.00    +0.035 C 
BRANCH  19  20
ATOM     20  C   UNL     1      -0.043  -0.127  -4.959  0.00  0.00    +0.039 C 
ATOM     21  C   UNL     1      -0.230  -1.100  -6.144  0.00  0.00    +0.035 C 
ATOM     22  C   UNL     1      -1.107  -0.263  -7.104  0.00  0.00    +0.098 C 
ATOM     23  C   UNL     1      -1.817   0.718  -6.197  0.00  0.00    +0.214 C 
ATOM     24  O   UNL     1      -2.797   1.364  -6.504  0.00  0.00    -0.276 OA
ATOM     25  N   UNL     1      -1.204   0.770  -5.002  0.00  0.00    -0.309 N 
ATOM     26  H   UNL     1      -1.491   1.329  -4.263  0.00  0.00    +0.149 HD
BRANCH  20  27
ATOM     27  C   UNL     1       1.251   0.672  -5.127  0.00  0.00    +0.061 C 
BRANCH  27  28
ATOM     28  C   UNL     1       1.160   1.520  -6.369  0.00  0.00    -0.042 A 
ATOM     29  C   UNL     1       1.582   1.012  -7.584  0.00  0.00    +0.007 A 
ATOM     30  C   UNL     1       1.500   1.786  -8.726  0.00  0.00    +0.042 A 
ATOM     31  C   UNL     1       0.996   3.072  -8.656  0.00  0.00    +0.165 A 
ATOM     32  C   UNL     1       0.571   3.584  -7.436  0.00  0.00    +0.155 A 
ATOM     33  C   UNL     1       0.650   2.802  -6.294  0.00  0.00    +0.052 A 
ATOM     34  F   UNL     1       0.916   3.830  -9.772  0.00  0.00    -0.202 F 
BRANCH  32  35
ATOM     35  O   UNL     1       0.075   4.848  -7.363  0.00  0.00    -0.492 OA
ATOM     36  C   UNL     1      -0.343   5.308  -6.076  0.00  0.00    +0.277 C 
ENDBRANCH  32  35
ENDBRANCH  27  28
ENDBRANCH  20  27
ENDBRANCH  19  20
ENDBRANCH   1  19
TORSDOF 8
