REMARK  Name = ZINC39358594
REMARK  5 active torsions:
REMARK  status: ('A' for Active; 'I' for Inactive)
REMARK    1  A    between atoms: C_2  and  C_3
REMARK    2  A    between atoms: C_3  and  O_4
REMARK    3  A    between atoms: O_4  and  C_5
REMARK    4  A    between atoms: C_8  and  C_11
REMARK    5  A    between atoms: C_14  and  O_27
REMARK                            x       y       z     vdW  Elec       q    Type
REMARK                         _______ _______ _______ _____ _____    ______ ____
ROOT
ATOM      1  C   UNL     1       5.900  -4.992   1.394  0.00  0.00    +0.089 C 
ATOM      2  C   UNL     1       5.569  -6.423   1.089  0.00  0.00    +0.048 C 
ATOM      3  C   UNL     1       4.590  -7.027   0.452  0.00  0.00    +0.235 C 
ATOM      4  N   UNL     1       4.706  -8.377   0.584  0.00  0.00    -0.114 NA
ATOM      5  N   UNL     1       5.704  -8.745   1.217  0.00  0.00    -0.157 NA
ATOM      6  C   UNL     1       6.477  -7.555   1.578  0.00  0.00    +0.245 C 
ATOM      7  N   UNL     1       6.557  -7.345   3.026  0.00  0.00    -0.321 N 
ATOM      8  C   UNL     1       6.718  -6.072   3.514  0.00  0.00    +0.013 C 
ATOM      9  C   UNL     1       6.420  -4.950   2.823  0.00  0.00    +0.023 C 
ATOM     10  C   UNL     1       6.572  -3.675   3.394  0.00  0.00    +0.162 C 
ATOM     11  O   UNL     1       6.294  -2.693   2.735  0.00  0.00    -0.292 OA
ATOM     12  C   UNL     1       7.071  -3.497   4.801  0.00  0.00    +0.080 C 
ATOM     13  C   UNL     1       6.697  -4.738   5.618  0.00  0.00    +0.014 C 
ATOM     14  C   UNL     1       7.277  -5.971   4.919  0.00  0.00    +0.051 C 
ATOM     15  H   UNL     1       6.496  -8.098   3.634  0.00  0.00    +0.148 HD
ENDROOT
BRANCH   1  19
ATOM     16  C   UNL     1       2.392  -2.577   1.044  0.00  0.00    +0.121 A 
ATOM     17  C   UNL     1       3.505  -2.304   0.262  0.00  0.00    +0.046 A 
ATOM     18  C   UNL     1       4.638  -3.086   0.377  0.00  0.00    +0.008 A 
ATOM     19  C   UNL     1       4.663  -4.141   1.271  0.00  0.00    -0.035 A 
ATOM     20  C   UNL     1       3.556  -4.415   2.051  0.00  0.00    +0.008 A 
ATOM     21  C   UNL     1       2.422  -3.632   1.944  0.00  0.00    +0.046 A 
BRANCH  16  22
ATOM     22  O   UNL     1       1.277  -1.809   0.933  0.00  0.00    -0.488 OA
BRANCH  22  23
ATOM     23  C   UNL     1       1.317  -0.740  -0.015  0.00  0.00    +0.256 C 
BRANCH  23  25
ATOM     24  C   UNL     1      -0.016   1.306   0.009  0.00  0.00    +0.007 C 
ATOM     25  C   UNL     1       0.002  -0.004   0.002  0.00  0.00    +0.006 C 
ENDBRANCH  23  25
ENDBRANCH  22  23
ENDBRANCH  16  22
ENDBRANCH   1  19
BRANCH   3  26
ATOM     26  O   UNL     1       3.605  -6.395  -0.238  0.00  0.00    -0.491 OA
ATOM     27  H   UNL     1       2.965  -6.994  -0.647  0.00  0.00    +0.294 HD
ENDBRANCH   3  26
TORSDOF 5
