REMARK  Name = ZINC07560376
REMARK  8 active torsions:
REMARK  status: ('A' for Active; 'I' for Inactive)
REMARK    1  A    between atoms: C_1  and  C_2
REMARK    2  A    between atoms: C_7  and  N_12
REMARK    3  A    between atoms: C_9  and  C_11
REMARK    4  A    between atoms: C_13  and  C_15
REMARK    5  A    between atoms: C_15  and  N_16
REMARK    6  A    between atoms: C_19  and  C_23
REMARK    7  A    between atoms: C_19  and  C_24
REMARK    8  A    between atoms: C_24  and  C_25
REMARK                            x       y       z     vdW  Elec       q    Type
REMARK                         _______ _______ _______ _____ _____    ______ ____
ROOT
ATOM      1  N   UNL     1      -1.372  -0.511   0.012  0.00  0.00    -0.215 N 
ATOM      2  C   UNL     1      -2.093  -0.767  -1.097  0.00  0.00    +0.247 C 
ATOM      3  O   UNL     1      -1.740  -0.627  -2.248  0.00  0.00    -0.273 OA
ATOM      4  C   UNL     1      -3.437  -1.268  -0.606  0.00  0.00    +0.114 C 
ATOM      5  N   UNL     1      -3.305  -1.233   0.861  0.00  0.00    -0.285 N 
ATOM      6  C   UNL     1      -2.065  -0.783   1.125  0.00  0.00    +0.310 C 
ATOM      7  O   UNL     1      -1.624  -0.636   2.248  0.00  0.00    -0.252 OA
ATOM      8  C   UNL     1      -4.560  -0.340  -1.071  0.00  0.00    +0.042 C 
ATOM      9  H   UNL     1      -3.979  -1.489   1.510  0.00  0.00    +0.151 HD
ENDROOT
BRANCH   1  10
ATOM     10  C   UNL     1       0.002  -0.004   0.002  0.00  0.00    +0.213 C 
BRANCH  10  12
ATOM     11  N   UNL     1       1.139   2.192   0.003  0.00  0.00    -0.311 N 
ATOM     12  C   UNL     1      -0.018   1.503   0.010  0.00  0.00    +0.231 C 
ATOM     13  O   UNL     1      -1.077   2.095   0.018  0.00  0.00    -0.274 OA
ATOM     14  H   UNL     1       1.986   1.719  -0.008  0.00  0.00    +0.149 HD
BRANCH  11  20
ATOM     15  C   UNL     1       3.711   6.236   1.219  0.00  0.00    +0.008 C 
ATOM     16  C   UNL     1       2.405   5.712   0.619  0.00  0.00    -0.009 C 
ATOM     17  C   UNL     1       2.259   6.228  -0.814  0.00  0.00    +0.003 C 
ATOM     18  C   UNL     1       0.953   5.703  -1.413  0.00  0.00    +0.002 C 
ATOM     19  C   UNL     1       0.973   4.173  -1.422  0.00  0.00    +0.022 C 
ATOM     20  C   UNL     1       1.120   3.657   0.011  0.00  0.00    +0.076 C 
ATOM     21  C   UNL     1       2.426   4.182   0.611  0.00  0.00    +0.009 C 
ATOM     22  C   UNL     1       2.572   3.666   2.044  0.00  0.00    +0.009 C 
ENDBRANCH  11  20
ENDBRANCH  10  12
ENDBRANCH   1  10
BRANCH   4  23
ATOM     23  C   UNL     1      -3.688  -2.698  -1.090  0.00  0.00    +0.070 C 
BRANCH  23  24
ATOM     24  C   UNL     1      -5.028  -3.170  -0.588  0.00  0.00    -0.041 A 
ATOM     25  C   UNL     1      -6.163  -2.959  -1.349  0.00  0.00    +0.007 A 
ATOM     26  C   UNL     1      -7.394  -3.391  -0.894  0.00  0.00    +0.050 A 
ATOM     27  C   UNL     1      -7.494  -4.037   0.328  0.00  0.00    +0.166 A 
ATOM     28  C   UNL     1      -6.351  -4.249   1.095  0.00  0.00    +0.166 A 
ATOM     29  C   UNL     1      -5.120  -3.818   0.630  0.00  0.00    +0.053 A 
ATOM     30  O   UNL     1      -6.710  -4.897   2.241  0.00  0.00    -0.453 OA
ATOM     31  C   UNL     1      -8.133  -4.716   2.357  0.00  0.00    +0.466 C 
ATOM     32  O   UNL     1      -8.569  -4.552   0.994  0.00  0.00    -0.453 OA
ENDBRANCH  23  24
ENDBRANCH   4  23
TORSDOF 5
