REMARK  Name = ZINC14459726
REMARK  10 active torsions:
REMARK  status: ('A' for Active; 'I' for Inactive)
REMARK    1  A    between atoms: C_1  and  C_2
REMARK    2  A    between atoms: C_2  and  O_3
REMARK    3  A    between atoms: O_3  and  C_4
REMARK    4  A    between atoms: C_7  and  N_10
REMARK    5  A    between atoms: N_10  and  S_11
REMARK    6  A    between atoms: S_11  and  C_14
REMARK    7  A    between atoms: C_27  and  C_30
REMARK    8  A    between atoms: C_34  and  O_37
REMARK    9  A    between atoms: C_35  and  O_36
REMARK   10  A    between atoms: O_37  and  C_38
REMARK                            x       y       z     vdW  Elec       q    Type
REMARK                         _______ _______ _______ _____ _____    ______ ____
ROOT
ATOM      1  C   UNL     1      -5.005   8.668   0.954  0.00  0.00    +0.109 A 
ATOM      2  C   UNL     1      -3.954   8.609   0.057  0.00  0.00    +0.030 A 
ATOM      3  C   UNL     1      -3.224   7.446  -0.081  0.00  0.00    +0.025 A 
ATOM      4  C   UNL     1      -3.539   6.326   0.679  0.00  0.00    +0.031 A 
ATOM      5  C   UNL     1      -4.612   6.389   1.575  0.00  0.00    -0.018 A 
ATOM      6  C   UNL     1      -5.330   7.557   1.710  0.00  0.00    +0.034 A 
ATOM      7  C   UNL     1      -4.941   5.162   2.333  0.00  0.00    +0.049 C 
ATOM      8  C   UNL     1      -5.598   5.215   3.664  0.00  0.00    -0.023 C 
ATOM      9  C   UNL     1      -5.208   4.183   4.382  0.00  0.00    -0.030 C 
ATOM     10  C   UNL     1      -4.179   3.365   3.598  0.00  0.00    +0.033 C 
ATOM     11  C   UNL     1      -3.605   4.423   2.646  0.00  0.00    +0.029 C 
ATOM     12  C   UNL     1      -3.086   3.939   1.304  0.00  0.00    +0.109 C 
ATOM     13  N   UNL     1      -2.774   5.162   0.533  0.00  0.00    -0.336 N 
ATOM     14  H   UNL     1      -2.025   5.159  -0.084  0.00  0.00    +0.147 HD
ENDROOT
BRANCH  12  15
ATOM     15  C   UNL     1      -1.841   3.112   1.495  0.00  0.00    +0.018 A 
ATOM     16  C   UNL     1      -0.597   3.717   1.462  0.00  0.00    +0.009 A 
ATOM     17  C   UNL     1       0.547   2.961   1.636  0.00  0.00    +0.004 A 
ATOM     18  C   UNL     1       0.453   1.598   1.845  0.00  0.00    +0.049 A 
ATOM     19  C   UNL     1      -0.789   0.986   1.880  0.00  0.00    +0.162 A 
ATOM     20  C   UNL     1      -1.941   1.746   1.698  0.00  0.00    +0.163 A 
BRANCH  20  21
ATOM     21  O   UNL     1      -3.163   1.149   1.726  0.00  0.00    -0.503 OA
ATOM     22  H   UNL     1      -3.563   1.113   2.605  0.00  0.00    +0.292 HD
ENDBRANCH  20  21
BRANCH  19  23
ATOM     23  O   UNL     1      -0.883  -0.355   2.085  0.00  0.00    -0.491 OA
ATOM     24  C   UNL     1       0.342  -1.072   2.258  0.00  0.00    +0.277 C 
ENDBRANCH  19  23
ENDBRANCH  12  15
BRANCH   1  25
ATOM     25  S   UNL     1      -5.929  10.157   1.132  0.00  0.00    +0.072 S 
ATOM     26  O   UNL     1      -6.612  10.065   2.375  0.00  0.00    -0.150 OA
ATOM     27  O   UNL     1      -5.042  11.225   0.828  0.00  0.00    -0.150 OA
BRANCH  25  28
ATOM     28  N   UNL     1      -7.091  10.156  -0.048  0.00  0.00    -0.216 N 
ATOM     29  H   UNL     1      -7.083  10.839  -0.737  0.00  0.00    +0.174 HD
BRANCH  28  33
ATOM     30  C   UNL     1     -10.053   7.223  -0.055  0.00  0.00    +0.121 A 
ATOM     31  C   UNL     1     -10.098   8.252   0.875  0.00  0.00    +0.047 A 
ATOM     32  C   UNL     1      -9.117   9.224   0.878  0.00  0.00    +0.028 A 
ATOM     33  C   UNL     1      -8.086   9.172  -0.050  0.00  0.00    +0.048 A 
ATOM     34  C   UNL     1      -8.044   8.145  -0.984  0.00  0.00    +0.028 A 
ATOM     35  C   UNL     1      -9.023   7.170  -0.982  0.00  0.00    +0.047 A 
BRANCH  30  36
ATOM     36  O   UNL     1     -11.020   6.266  -0.058  0.00  0.00    -0.492 OA
BRANCH  36  38
ATOM     37  C   UNL     1     -12.079   4.260  -0.891  0.00  0.00    +0.048 C 
ATOM     38  C   UNL     1     -10.911   5.237  -1.042  0.00  0.00    +0.225 C 
ENDBRANCH  36  38
ENDBRANCH  30  36
ENDBRANCH  28  33
ENDBRANCH  25  28
ENDBRANCH   1  25
TORSDOF 8
