REMARK  Name = ZINC12211424
REMARK  11 active torsions:
REMARK  status: ('A' for Active; 'I' for Inactive)
REMARK    1  A    between atoms: C_1  and  C_2
REMARK    2  A    between atoms: C_2  and  N_3
REMARK    3  A    between atoms: N_3  and  C_4
REMARK    4  A    between atoms: N_3  and  C_6
REMARK    5  A    between atoms: C_4  and  C_5
REMARK    6  A    between atoms: C_6  and  C_7
REMARK    7  A    between atoms: C_7  and  N_8
REMARK    8  A    between atoms: C_9  and  C_11
REMARK    9  A    between atoms: C_14  and  N_17
REMARK   10  A    between atoms: C_25  and  S_27
REMARK   11  A    between atoms: S_27  and  C_28
REMARK                            x       y       z     vdW  Elec       q    Type
REMARK                         _______ _______ _______ _____ _____    ______ ____
ROOT
ATOM      1  C   UNL     1      -4.959  -5.502   0.378  0.00  0.00    +0.037 A 
ATOM      2  C   UNL     1      -3.918  -6.357   0.002  0.00  0.00    +0.015 A 
ATOM      3  C   UNL     1      -4.067  -7.719   0.133  0.00  0.00    +0.024 A 
ATOM      4  C   UNL     1      -5.252  -8.245   0.640  0.00  0.00    +0.032 A 
ATOM      5  C   UNL     1      -6.290  -7.397   1.015  0.00  0.00    +0.024 A 
ATOM      6  C   UNL     1      -6.145  -6.034   0.891  0.00  0.00    +0.015 A 
ENDROOT
BRANCH   4   7
ATOM      7  N   UNL     1      -5.400  -9.623   0.771  0.00  0.00    -0.299 N 
ATOM      8  C   UNL     1      -6.644 -10.205   0.602  0.00  0.00    +0.136 A 
ATOM      9  C   UNL     1      -6.834 -11.590   0.871  0.00  0.00    +0.051 A 
ATOM     10  C   UNL     1      -5.852 -12.576   1.330  0.00  0.00    -0.025 A 
ATOM     11  C   UNL     1      -6.291 -13.837   1.512  0.00  0.00    -0.004 A 
ATOM     12  S   UNL     1      -8.013 -13.793   1.089  0.00  0.00    -0.073 S 
ATOM     13  C   UNL     1      -8.141 -12.075   0.667  0.00  0.00    +0.115 A 
ATOM     14  N   UNL     1      -9.114 -11.288   0.252  0.00  0.00    -0.215 NA
ATOM     15  C   UNL     1      -8.879 -10.004   0.016  0.00  0.00    +0.191 A 
ATOM     16  N   UNL     1      -7.672  -9.480   0.195  0.00  0.00    -0.206 NA
ATOM     17  C   UNL     1      -5.493 -15.019   1.970  0.00  0.00    +0.043 C 
ATOM     18  C   UNL     1      -4.002 -14.672   1.852  0.00  0.00    +0.005 C 
ATOM     19  C   UNL     1      -3.768 -13.294   2.477  0.00  0.00    +0.005 C 
ATOM     20  C   UNL     1      -4.394 -12.212   1.597  0.00  0.00    +0.037 C 
ATOM     21  H   UNL     1      -4.630 -10.176   0.980  0.00  0.00    +0.154 HD
BRANCH  15  22
ATOM     22  S   UNL     1     -10.196  -8.972  -0.538  0.00  0.00    -0.089 S 
ATOM     23  C   UNL     1     -11.621 -10.090  -0.627  0.00  0.00    +0.093 C 
ENDBRANCH  15  22
ENDBRANCH   4   7
BRANCH   1  25
ATOM     24  N   UNL     1      -3.658  -3.531  -0.256  0.00  0.00    -0.313 N 
ATOM     25  C   UNL     1      -4.802  -4.042   0.239  0.00  0.00    +0.244 C 
ATOM     26  O   UNL     1      -5.706  -3.299   0.572  0.00  0.00    -0.270 OA
ATOM     27  H   UNL     1      -2.937  -4.123  -0.521  0.00  0.00    +0.149 HD
BRANCH  24  28
ATOM     28  C   UNL     1      -3.502  -2.080  -0.393  0.00  0.00    +0.086 C 
BRANCH  28  29
ATOM     29  C   UNL     1      -2.122  -1.768  -0.975  0.00  0.00    -0.060 C 
BRANCH  29  30
ATOM     30  N   UNL     1      -2.011  -0.325  -1.225  0.00  0.00    +0.380 N 
ATOM     31  H   UNL     1      -2.765  -0.029  -1.826  0.00  0.00    -0.082 HD
BRANCH  30  33
ATOM     32  C   UNL     1      -2.097   1.906  -0.219  0.00  0.00    -0.017 C 
ATOM     33  C   UNL     1      -2.087   0.400   0.051  0.00  0.00    -0.082 C 
ENDBRANCH  30  33
BRANCH  30  34
ATOM     34  C   UNL     1      -0.725  -0.038  -1.875  0.00  0.00    -0.082 C 
ATOM     35  C   UNL     1      -0.704  -0.672  -3.267  0.00  0.00    -0.017 C 
ENDBRANCH  30  34
ENDBRANCH  29  30
ENDBRANCH  28  29
ENDBRANCH  24  28
ENDBRANCH   1  25
TORSDOF 8
