REMARK  Name = ZINC06743238
REMARK  12 active torsions:
REMARK  status: ('A' for Active; 'I' for Inactive)
REMARK    1  A    between atoms: C_1  and  C_2
REMARK    2  A    between atoms: C_2  and  O_3
REMARK    3  A    between atoms: O_3  and  C_4
REMARK    4  A    between atoms: C_6  and  C_11
REMARK    5  A    between atoms: C_9  and  O_10
REMARK    6  A    between atoms: C_14  and  C_25
REMARK    7  A    between atoms: N_21  and  C_22
REMARK    8  A    between atoms: C_22  and  C_23
REMARK    9  A    between atoms: C_23  and  O_24
REMARK   10  A    between atoms: C_26  and  C_33
REMARK   11  A    between atoms: C_28  and  C_32
REMARK   12  A    between atoms: C_30  and  O_31
REMARK                            x       y       z     vdW  Elec       q    Type
REMARK                         _______ _______ _______ _____ _____    ______ ____
ROOT
ATOM      1  C   UNL     1       0.057  -4.901  -0.262  0.00  0.00    +0.141 C 
ATOM      2  C   UNL     1       0.960  -5.339  -1.383  0.00  0.00    +0.035 A 
ATOM      3  C   UNL     1       1.769  -4.964  -2.460  0.00  0.00    +0.102 A 
ATOM      4  N   UNL     1       2.260  -6.068  -2.988  0.00  0.00    -0.173 NA
ATOM      5  N   UNL     1       1.841  -7.103  -2.350  0.00  0.00    -0.272 N 
ATOM      6  H   UNL     1       2.074  -8.020  -2.563  0.00  0.00    +0.189 HD
ATOM      7  C   UNL     1       1.019  -6.718  -1.329  0.00  0.00    +0.126 A 
ATOM      8  C   UNL     1       0.185  -7.178  -0.213  0.00  0.00    +0.266 C 
ATOM      9  O   UNL     1       0.026  -8.343   0.101  0.00  0.00    -0.268 OA
ATOM     10  N   UNL     1      -0.380  -6.129   0.414  0.00  0.00    -0.283 N 
ENDROOT
BRANCH   3  11
ATOM     11  C   UNL     1       2.028  -3.579  -2.924  0.00  0.00    +0.047 A 
ATOM     12  C   UNL     1       3.330  -3.159  -3.182  0.00  0.00    -0.037 A 
ATOM     13  C   UNL     1       3.566  -1.869  -3.613  0.00  0.00    +0.007 A 
ATOM     14  C   UNL     1       2.512  -0.991  -3.791  0.00  0.00    -0.047 A 
ATOM     15  C   UNL     1       1.216  -1.397  -3.538  0.00  0.00    +0.049 A 
ATOM     16  C   UNL     1       0.965  -2.691  -3.111  0.00  0.00    +0.127 A 
ATOM     17  C   UNL     1       2.779   0.416  -4.263  0.00  0.00    +0.044 C 
ATOM     18  C   UNL     1       4.482  -4.112  -2.989  0.00  0.00    +0.044 C 
BRANCH  16  19
ATOM     19  O   UNL     1      -0.310  -3.093  -2.868  0.00  0.00    -0.506 OA
ATOM     20  H   UNL     1      -0.625  -2.885  -1.978  0.00  0.00    +0.292 HD
ENDBRANCH  16  19
ENDBRANCH   3  11
BRANCH   1  23
ATOM     21  C   UNL     1       1.231  -1.856   1.641  0.00  0.00    +0.162 A 
ATOM     22  C   UNL     1       0.536  -2.667   0.758  0.00  0.00    +0.055 A 
ATOM     23  C   UNL     1       0.813  -4.020   0.699  0.00  0.00    -0.019 A 
ATOM     24  C   UNL     1       1.781  -4.568   1.520  0.00  0.00    +0.009 A 
ATOM     25  C   UNL     1       2.477  -3.764   2.404  0.00  0.00    +0.049 A 
ATOM     26  C   UNL     1       2.209  -2.406   2.463  0.00  0.00    +0.158 A 
BRANCH  26  27
ATOM     27  O   UNL     1       2.897  -1.613   3.328  0.00  0.00    -0.503 OA
ATOM     28  H   UNL     1       2.488  -1.535   4.200  0.00  0.00    +0.292 HD
ENDBRANCH  26  27
BRANCH  21  29
ATOM     29  O   UNL     1       0.960  -0.524   1.700  0.00  0.00    -0.489 OA
BRANCH  29  31
ATOM     30  C   UNL     1      -0.218   1.477   1.034  0.00  0.00    +0.048 C 
ATOM     31  C   UNL     1      -0.057  -0.030   0.826  0.00  0.00    +0.226 C 
ENDBRANCH  29  31
ENDBRANCH  21  29
ENDBRANCH   1  23
BRANCH  10  32
ATOM     32  C   UNL     1      -1.275  -6.200   1.572  0.00  0.00    +0.137 C 
BRANCH  32  33
ATOM     33  C   UNL     1      -2.723  -6.307   1.091  0.00  0.00    +0.175 C 
BRANCH  33  34
ATOM     34  O   UNL     1      -2.905  -7.543   0.397  0.00  0.00    -0.393 OA
ATOM     35  H   UNL     1      -3.802  -7.679   0.063  0.00  0.00    +0.209 HD
ENDBRANCH  33  34
ENDBRANCH  32  33
ENDBRANCH  10  32
TORSDOF 9
