REMARK  Name = ZINC39979475
REMARK  6 active torsions:
REMARK  status: ('A' for Active; 'I' for Inactive)
REMARK    1  A    between atoms: C_1  and  N_2
REMARK    2  A    between atoms: N_2  and  C_3
REMARK    3  A    between atoms: N_2  and  C_4
REMARK    4  A    between atoms: C_7  and  C_10
REMARK    5  A    between atoms: N_11  and  N_12
REMARK    6  A    between atoms: C_16  and  C_19
REMARK                            x       y       z     vdW  Elec       q    Type
REMARK                         _______ _______ _______ _____ _____    ______ ____
ROOT
ATOM      1  N   UNL     1      -0.022  -2.777  -7.146  0.00  0.00    -0.124 NA
ATOM      2  C   UNL     1      -0.037  -2.108  -8.290  0.00  0.00    +0.192 A 
ATOM      3  N   UNL     1      -0.047  -0.750  -8.505  0.00  0.00    -0.335 N 
ATOM      4  H   UNL     1      -0.043  -0.131  -7.759  0.00  0.00    +0.168 HD
ATOM      5  C   UNL     1      -0.061  -0.293  -9.786  0.00  0.00    +0.039 A 
ATOM      6  C   UNL     1      -0.067  -1.155 -10.807  0.00  0.00    +0.070 A 
ATOM      7  S   UNL     1      -0.042  -2.729  -9.965  0.00  0.00    -0.056 S 
ENDROOT
BRANCH   5   8
ATOM      8  C   UNL     1      -0.072   1.190 -10.055  0.00  0.00    +0.149 C 
ATOM      9  C   UNL     1       1.167   1.840  -9.431  0.00  0.00    +0.059 C 
ATOM     10  C   UNL     1       0.991   1.946  -7.937  0.00  0.00    -0.004 A 
ATOM     11  C   UNL     1       2.121   2.100  -7.149  0.00  0.00    +0.007 A 
ATOM     12  C   UNL     1       2.006   2.208  -5.777  0.00  0.00    +0.000 A 
ATOM     13  C   UNL     1       0.758   2.163  -5.182  0.00  0.00    +0.004 A 
ATOM     14  C   UNL     1      -0.370   2.008  -5.960  0.00  0.00    +0.046 A 
ATOM     15  C   UNL     1      -0.257   1.895  -7.342  0.00  0.00    +0.135 A 
ATOM     16  O   UNL     1      -1.393   1.724  -8.072  0.00  0.00    -0.425 OA
ATOM     17  C   UNL     1      -1.293   1.819  -9.414  0.00  0.00    +0.322 C 
ATOM     18  O   UNL     1      -2.135   2.381 -10.074  0.00  0.00    -0.250 OA
ENDBRANCH   5   8
BRANCH   1  20
ATOM     19  C   UNL     1      -0.006  -2.797  -4.897  0.00  0.00    +0.143 C 
ATOM     20  N   UNL     1      -0.021  -2.138  -6.026  0.00  0.00    -0.155 NA
BRANCH  19  24
ATOM     21  C   UNL     1       0.000  -0.696  -1.211  0.00  0.00    +0.029 A 
ATOM     22  C   UNL     1       0.013  -2.086  -1.216  0.00  0.00    +0.024 A 
ATOM     23  C   UNL     1       0.011  -2.773  -2.410  0.00  0.00    +0.011 A 
ATOM     24  C   UNL     1      -0.005  -2.069  -3.619  0.00  0.00    -0.005 A 
ATOM     25  C   UNL     1      -0.018  -0.670  -3.609  0.00  0.00    +0.011 A 
ATOM     26  C   UNL     1      -0.021   0.008  -2.410  0.00  0.00    +0.024 A 
BRANCH  21  28
ATOM     27  C   UNL     1      -0.018   1.461   0.010  0.00  0.00    +0.129 C 
ATOM     28  N   UNL     1       0.002  -0.004   0.002  0.00  0.00    -0.336 N 
ATOM     29  C   UNL     1       0.024  -0.743   1.267  0.00  0.00    +0.129 C 
ENDBRANCH  21  28
ENDBRANCH  19  24
ENDBRANCH   1  20
TORSDOF 4
