REMARK  Name = ZINC13978718
REMARK  8 active torsions:
REMARK  status: ('A' for Active; 'I' for Inactive)
REMARK    1  A    between atoms: C_4  and  N_26
REMARK    2  A    between atoms: C_5  and  C_7
REMARK    3  A    between atoms: N_9  and  N_10
REMARK    4  A    between atoms: N_10  and  C_11
REMARK    5  A    between atoms: C_11  and  N_13
REMARK    6  A    between atoms: C_14  and  C_16
REMARK    7  A    between atoms: C_16  and  O_17
REMARK    8  A    between atoms: O_17  and  C_18
REMARK                            x       y       z     vdW  Elec       q    Type
REMARK                         _______ _______ _______ _____ _____    ______ ____
ROOT
ATOM      1  C   UNL     1      -0.978  -4.958  -0.423  0.00  0.00    +0.153 C 
ATOM      2  S   UNL     1      -0.933  -6.669  -0.485  0.00  0.00    -0.017 S 
ENDROOT
BRANCH   1   3
ATOM      3  N   UNL     1      -2.158  -4.312  -0.507  0.00  0.00    -0.264 N 
ATOM      4  C   UNL     1      -3.302  -5.012  -0.639  0.00  0.00    +0.256 C 
ATOM      5  O   UNL     1      -3.270  -6.224  -0.683  0.00  0.00    -0.272 OA
ATOM      6  H   UNL     1      -2.184  -3.343  -0.472  0.00  0.00    +0.157 HD
BRANCH   4   7
ATOM      7  C   UNL     1      -4.621  -4.290  -0.733  0.00  0.00    +0.325 C 
BRANCH   7   8
ATOM      8  O   UNL     1      -5.678  -5.243  -0.867  0.00  0.00    -0.481 OA
BRANCH   8   9
ATOM      9  C   UNL     1      -6.942  -4.753  -0.965  0.00  0.00    +0.139 A 
ATOM     10  C   UNL     1      -7.160  -3.383  -0.938  0.00  0.00    +0.048 A 
ATOM     11  C   UNL     1      -8.445  -2.887  -1.037  0.00  0.00    +0.019 A 
ATOM     12  C   UNL     1      -9.516  -3.755  -1.164  0.00  0.00    +0.019 A 
ATOM     13  C   UNL     1      -9.301  -5.121  -1.191  0.00  0.00    +0.039 A 
ATOM     14  C   UNL     1      -8.016  -5.622  -1.097  0.00  0.00    +0.084 A 
ATOM     15 CL   UNL     1      -7.746  -7.337  -1.137  0.00  0.00    -0.080 Cl
ATOM     16 BR   UNL     1     -11.274  -3.072  -1.300  0.00  0.00    -0.050 Br
ENDBRANCH   8   9
ENDBRANCH   7   8
ENDBRANCH   4   7
ENDBRANCH   1   3
BRANCH   1  17
ATOM     17  N   UNL     1       0.166  -4.258  -0.291  0.00  0.00    -0.245 N 
ATOM     18  H   UNL     1       1.015  -4.723  -0.231  0.00  0.00    +0.172 HD
BRANCH  17  21
ATOM     19  C   UNL     1       1.272  -2.158  -0.108  0.00  0.00    +0.262 C 
ATOM     20  O   UNL     1       2.337  -2.741  -0.033  0.00  0.00    -0.269 OA
ATOM     21  N   UNL     1       0.129  -2.858  -0.241  0.00  0.00    -0.231 N 
ATOM     22  H   UNL     1      -0.721  -2.393  -0.301  0.00  0.00    +0.173 HD
BRANCH  19  27
ATOM     23  C   UNL     1       0.587   1.419  -1.025  0.00  0.00    +0.001 A 
ATOM     24  C   UNL     1       1.161   2.085   0.044  0.00  0.00    +0.002 A 
ATOM     25  C   UNL     1       1.770   1.375   1.063  0.00  0.00    +0.033 A 
ATOM     26  C   UNL     1       1.810  -0.003   1.020  0.00  0.00    +0.138 A 
ATOM     27  C   UNL     1       1.233  -0.681  -0.055  0.00  0.00    +0.068 A 
ATOM     28  C   UNL     1       0.620   0.041  -1.080  0.00  0.00    +0.015 A 
BRANCH  26  29
ATOM     29  N   UNL     1       2.463  -0.761   2.111  0.00  0.00    +0.057 N 
ATOM     30  O   UNL     1       3.064  -0.173   2.979  0.00  0.00    -0.126 OA
ATOM     31  O   UNL     1       2.395  -1.968   2.133  0.00  0.00    -0.126 OA
ENDBRANCH  26  29
ENDBRANCH  19  27
ENDBRANCH  17  21
ENDBRANCH   1  17
TORSDOF 8
