REMARK  Name = ZINC06547371
REMARK  8 active torsions:
REMARK  status: ('A' for Active; 'I' for Inactive)
REMARK    1  A    between atoms: C_1  and  C_2
REMARK    2  A    between atoms: C_5  and  N_8
REMARK    3  A    between atoms: C_9  and  C_27
REMARK    4  A    between atoms: C_12  and  S_13
REMARK    5  A    between atoms: S_13  and  C_14
REMARK    6  A    between atoms: C_14  and  C_15
REMARK    7  A    between atoms: N_17  and  C_18
REMARK    8  A    between atoms: C_31  and  C_32
REMARK                            x       y       z     vdW  Elec       q    Type
REMARK                         _______ _______ _______ _____ _____    ______ ____
ROOT
ATOM      1  N   UNL     1       0.065  -4.173  -0.009  0.00  0.00    -0.270 N 
ATOM      2  C   UNL     1      -0.913  -5.022   0.459  0.00  0.00    +0.173 A 
ATOM      3  N   UNL     1      -0.484  -6.247   0.265  0.00  0.00    -0.128 NA
ATOM      4  N   UNL     1       0.678  -6.225  -0.283  0.00  0.00    -0.122 NA
ATOM      5  C   UNL     1       1.062  -4.985  -0.480  0.00  0.00    +0.197 A 
ENDROOT
BRANCH   1  10
ATOM      6  C   UNL     1      -0.028   1.502  -0.008  0.00  0.00    +0.044 C 
ATOM      7  C   UNL     1      -0.004  -0.005  -0.008  0.00  0.00    -0.050 A 
ATOM      8  C   UNL     1      -0.004  -0.695  -1.207  0.00  0.00    +0.005 A 
ATOM      9  C   UNL     1       0.019  -2.076  -1.210  0.00  0.00    +0.026 A 
ATOM     10  C   UNL     1       0.042  -2.771  -0.009  0.00  0.00    +0.051 A 
ATOM     11  C   UNL     1       0.042  -2.076   1.193  0.00  0.00    +0.026 A 
ATOM     12  C   UNL     1       0.025  -0.695   1.190  0.00  0.00    +0.005 A 
ENDBRANCH   1  10
BRANCH   2  13
ATOM     13  C   UNL     1      -2.204  -4.628   1.065  0.00  0.00    +0.060 A 
ATOM     14  C   UNL     1      -2.701  -3.264   1.282  0.00  0.00    +0.053 A 
ATOM     15  C   UNL     1      -3.908  -3.396   1.856  0.00  0.00    +0.196 A 
ATOM     16  O   UNL     1      -4.182  -4.701   2.003  0.00  0.00    -0.467 OA
ATOM     17  C   UNL     1      -3.179  -5.455   1.531  0.00  0.00    +0.112 A 
ATOM     18  C   UNL     1      -3.136  -6.961   1.522  0.00  0.00    +0.087 C 
ENDBRANCH   2  13
BRANCH   5  19
ATOM     19  S   UNL     1       2.579  -4.464  -1.210  0.00  0.00    -0.076 S 
BRANCH  19  20
ATOM     20  C   UNL     1       3.431  -6.015  -1.607  0.00  0.00    +0.173 C 
BRANCH  20  21
ATOM     21  C   UNL     1       4.761  -5.708  -2.245  0.00  0.00    +0.227 C 
ATOM     22  O   UNL     1       5.100  -4.556  -2.417  0.00  0.00    -0.275 OA
ATOM     23  N   UNL     1       5.573  -6.713  -2.627  0.00  0.00    -0.285 N 
ATOM     24  H   UNL     1       5.333  -7.633  -2.430  0.00  0.00    +0.155 HD
BRANCH  23  25
ATOM     25  C   UNL     1       6.765  -6.432  -3.308  0.00  0.00    +0.037 A 
ATOM     26  C   UNL     1       7.219  -7.293  -4.298  0.00  0.00    +0.027 A 
ATOM     27  C   UNL     1       8.394  -7.016  -4.970  0.00  0.00    +0.051 A 
ATOM     28  C   UNL     1       9.122  -5.878  -4.659  0.00  0.00    +0.166 A 
ATOM     29  C   UNL     1       8.669  -5.013  -3.666  0.00  0.00    +0.168 A 
ATOM     30  C   UNL     1       7.488  -5.289  -2.996  0.00  0.00    +0.072 A 
ATOM     31  O   UNL     1       9.554  -3.980  -3.550  0.00  0.00    -0.453 OA
ATOM     32  C   UNL     1      10.760  -4.433  -4.193  0.00  0.00    +0.466 C 
ATOM     33  O   UNL     1      10.292  -5.387  -5.165  0.00  0.00    -0.453 OA
ENDBRANCH  23  25
ENDBRANCH  20  21
ENDBRANCH  19  20
ENDBRANCH   5  19
TORSDOF 6
