REMARK  Name = ZINC38650398
REMARK  13 active torsions:
REMARK  status: ('A' for Active; 'I' for Inactive)
REMARK    1  A    between atoms: C_1  and  C_2
REMARK    2  A    between atoms: C_2  and  C_3
REMARK    3  A    between atoms: C_6  and  O_9
REMARK    4  A    between atoms: O_9  and  C_10
REMARK    5  A    between atoms: C_10  and  C_12
REMARK    6  A    between atoms: C_10  and  C_13
REMARK    7  A    between atoms: C_13  and  O_15
REMARK    8  A    between atoms: O_15  and  C_16
REMARK    9  A    between atoms: C_23  and  N_37
REMARK   10  A    between atoms: C_24  and  C_35
REMARK   11  A    between atoms: C_25  and  C_27
REMARK   12  A    between atoms: C_30  and  O_33
REMARK   13  A    between atoms: O_33  and  C_34
REMARK                            x       y       z     vdW  Elec       q    Type
REMARK                         _______ _______ _______ _____ _____    ______ ____
ROOT
ATOM      1  C   UNL     1       5.674  -4.303  -6.616  0.00  0.00    +0.135 A 
ATOM      2  C   UNL     1       4.586  -4.774  -7.337  0.00  0.00    +0.047 A 
ATOM      3  C   UNL     1       4.772  -5.708  -8.337  0.00  0.00    +0.012 A 
ATOM      4  C   UNL     1       6.042  -6.178  -8.624  0.00  0.00    +0.008 A 
ATOM      5  C   UNL     1       7.132  -5.710  -7.907  0.00  0.00    +0.138 A 
ATOM      6  C   UNL     1       6.947  -4.767  -6.905  0.00  0.00    +0.093 A 
ATOM      7  O   UNL     1       8.384  -6.159  -8.174  0.00  0.00    -0.441 OA
ATOM      8  C   UNL     1       8.648  -6.748  -9.352  0.00  0.00    +0.199 C 
ATOM      9  C   UNL     1       7.667  -7.260 -10.133  0.00  0.00    +0.098 C 
ATOM     10  C   UNL     1       6.224  -7.196  -9.717  0.00  0.00    +0.098 C 
ENDROOT
BRANCH  10  11
ATOM     11  C   UNL     1       5.788  -8.549  -9.217  0.00  0.00    -0.034 A 
ATOM     12  C   UNL     1       6.411  -9.113  -8.119  0.00  0.00    +0.008 A 
ATOM     13  C   UNL     1       6.013 -10.353  -7.658  0.00  0.00    +0.046 A 
ATOM     14  C   UNL     1       4.988 -11.033  -8.299  0.00  0.00    +0.120 A 
ATOM     15  C   UNL     1       4.364 -10.466  -9.400  0.00  0.00    +0.046 A 
ATOM     16  C   UNL     1       4.762  -9.223  -9.854  0.00  0.00    +0.008 A 
BRANCH  14  17
ATOM     17  O   UNL     1       4.595 -12.254  -7.848  0.00  0.00    -0.495 OA
ATOM     18  C   UNL     1       3.533 -12.896  -8.556  0.00  0.00    +0.277 C 
ENDBRANCH  14  17
ENDBRANCH  10  11
BRANCH   8  19
ATOM     19  N   UNL     1       9.950  -6.833  -9.777  0.00  0.00    -0.328 N 
ATOM     20  H   UNL     1      10.664  -6.470  -9.229  0.00  0.00    +0.145 HD
ATOM     21  H   UNL     1      10.157  -7.255 -10.626  0.00  0.00    +0.145 HD
ENDBRANCH   8  19
BRANCH   9  22
ATOM     22  C   UNL     1       8.012  -7.875 -11.379  0.00  0.00    +0.101 C 
ATOM     23  N   UNL     1       8.285  -8.363 -12.368  0.00  0.00    -0.191 NA
ENDBRANCH   9  22
BRANCH   1  24
ATOM     24  O   UNL     1       5.492  -3.384  -5.631  0.00  0.00    -0.423 OA
BRANCH  24  25
ATOM     25  C   UNL     1       4.830  -3.766  -4.527  0.00  0.00    +0.353 C 
ATOM     26  O   UNL     1       4.502  -4.920  -4.388  0.00  0.00    -0.246 OA
BRANCH  25  27
ATOM     27  C   UNL     1       4.496  -2.754  -3.461  0.00  0.00    +0.279 C 
ATOM     28  C   UNL     1       3.515  -1.724  -4.025  0.00  0.00    +0.064 C 
BRANCH  27  29
ATOM     29  O   UNL     1       3.900  -3.418  -2.345  0.00  0.00    -0.478 OA
BRANCH  29  33
ATOM     30  C   UNL     1       4.107  -1.501   1.303  0.00  0.00    -0.047 A 
ATOM     31  C   UNL     1       4.730  -0.951   0.198  0.00  0.00    +0.007 A 
ATOM     32  C   UNL     1       4.662  -1.591  -1.025  0.00  0.00    +0.046 A 
ATOM     33  C   UNL     1       3.968  -2.787  -1.143  0.00  0.00    +0.122 A 
ATOM     34  C   UNL     1       3.345  -3.337  -0.033  0.00  0.00    +0.046 A 
ATOM     35  C   UNL     1       3.420  -2.696   1.189  0.00  0.00    +0.007 A 
BRANCH  30  37
ATOM     36  C   UNL     1       5.416  -1.289   3.398  0.00  0.00    +0.009 C 
ATOM     37  C   UNL     1       4.183  -0.801   2.635  0.00  0.00    +0.032 C 
ENDBRANCH  30  37
ENDBRANCH  29  33
ENDBRANCH  27  29
ENDBRANCH  25  27
ENDBRANCH  24  25
ENDBRANCH   1  24
TORSDOF 10
