REMARK  Name = ZINC26123894
REMARK  15 active torsions:
REMARK  status: ('A' for Active; 'I' for Inactive)
REMARK    1  A    between atoms: C_1  and  C_2
REMARK    2  A    between atoms: C_2  and  C_4
REMARK    3  A    between atoms: C_2  and  S_17
REMARK    4  A    between atoms: N_6  and  C_7
REMARK    5  A    between atoms: C_10  and  O_13
REMARK    6  A    between atoms: O_13  and  C_14
REMARK    7  A    between atoms: S_17  and  C_18
REMARK    8  A    between atoms: C_21  and  C_24
REMARK    9  A    between atoms: N_22  and  N_23
REMARK   10  A    between atoms: C_24  and  O_25
REMARK   11  A    between atoms: O_25  and  C_26
REMARK   12  A    between atoms: C_29  and  C_32
REMARK   13  A    between atoms: C_32  and  C_33
REMARK   14  A    between atoms: C_32  and  C_34
REMARK   15  A    between atoms: C_32  and  C_35
REMARK                            x       y       z     vdW  Elec       q    Type
REMARK                         _______ _______ _______ _____ _____    ______ ____
ROOT
ATOM      1  C   UNL     1       1.389  -2.295   0.374  0.00  0.00    +0.209 A 
ATOM      2  N   UNL     1       0.260  -2.914   0.122  0.00  0.00    -0.121 NA
ATOM      3  N   UNL     1       0.418  -4.183   0.259  0.00  0.00    -0.128 NA
ATOM      4  C   UNL     1       1.647  -4.446   0.602  0.00  0.00    +0.189 A 
ATOM      5  N   UNL     1       2.311  -3.253   0.682  0.00  0.00    -0.225 N 
ENDROOT
BRANCH   5   6
ATOM      6  N   UNL     1       3.624  -3.061   1.006  0.00  0.00    -0.295 N 
ATOM      7  H   UNL     1       4.266  -3.924   1.235  0.00  0.00    +0.163 HD
ATOM      8  H   UNL     1       4.040  -2.043   1.038  0.00  0.00    +0.163 HD
ENDBRANCH   5   6
BRANCH   1   9
ATOM      9  S   UNL     1       1.665  -0.555   0.316  0.00  0.00    -0.072 S 
BRANCH   9  11
ATOM     10  C   UNL     1      -0.316  -0.503  -1.564  0.00  0.00    +0.029 C 
ATOM     11  C   UNL     1       0.013   0.009  -0.160  0.00  0.00    +0.137 C 
BRANCH  11  12
ATOM     12  C   UNL     1      -0.024   1.516  -0.154  0.00  0.00    +0.230 C 
ATOM     13  O   UNL     1       0.999   2.148  -0.310  0.00  0.00    -0.274 OA
ATOM     14  N   UNL     1      -1.195   2.161   0.019  0.00  0.00    -0.285 N 
ATOM     15  H   UNL     1      -2.134   1.591   0.072  0.00  0.00    +0.155 HD
BRANCH  14  16
ATOM     16  C   UNL     1      -1.215   3.557   0.133  0.00  0.00    +0.034 A 
ATOM     17  C   UNL     1      -0.159   4.220   0.743  0.00  0.00    +0.027 A 
ATOM     18  C   UNL     1      -0.177   5.597   0.850  0.00  0.00    +0.047 A 
ATOM     19  C   UNL     1      -1.257   6.316   0.358  0.00  0.00    +0.127 A 
ATOM     20  C   UNL     1      -2.315   5.654  -0.247  0.00  0.00    +0.047 A 
ATOM     21  C   UNL     1      -2.295   4.278  -0.359  0.00  0.00    +0.027 A 
BRANCH  19  22
ATOM     22  O   UNL     1      -1.277   7.671   0.468  0.00  0.00    -0.434 OA
BRANCH  22  23
ATOM     23  C   UNL     1      -0.154   8.287   1.102  0.00  0.00    +0.541 C 
ATOM     24  F   UNL     1      -0.035   7.806   2.410  0.00  0.00    -0.166 F 
ATOM     25  F   UNL     1       1.009   7.986   0.386  0.00  0.00    -0.166 F 
ENDBRANCH  22  23
ENDBRANCH  19  22
ENDBRANCH  14  16
ENDBRANCH  11  12
ENDBRANCH   9  11
ENDBRANCH   1   9
BRANCH   4  26
ATOM     26  C   UNL     1       2.229  -5.812   0.858  0.00  0.00    +0.306 C 
BRANCH  26  27
ATOM     27  O   UNL     1       2.755  -6.341  -0.361  0.00  0.00    -0.484 OA
BRANCH  27  28
ATOM     28  C   UNL     1       3.321  -7.575  -0.304  0.00  0.00    +0.121 A 
ATOM     29  C   UNL     1       3.375  -8.260   0.901  0.00  0.00    +0.046 A 
ATOM     30  C   UNL     1       3.945  -9.517   0.955  0.00  0.00    +0.008 A 
ATOM     31  C   UNL     1       4.474 -10.088  -0.188  0.00  0.00    -0.042 A 
ATOM     32  C   UNL     1       4.427  -9.404  -1.389  0.00  0.00    +0.008 A 
ATOM     33  C   UNL     1       3.852  -8.150  -1.450  0.00  0.00    +0.046 A 
BRANCH  31  34
ATOM     34  C   UNL     1       5.102 -11.456  -0.125  0.00  0.00    -0.013 C 
ATOM     35  C   UNL     1       6.567 -11.366  -0.557  0.00  0.00    +0.015 C 
ATOM     36  C   UNL     1       5.024 -11.987   1.308  0.00  0.00    +0.015 C 
ATOM     37  C   UNL     1       4.351 -12.405  -1.062  0.00  0.00    +0.015 C 
ENDBRANCH  31  34
ENDBRANCH  27  28
ENDBRANCH  26  27
ENDBRANCH   4  26
TORSDOF 11
