REMARK  Name = ZINC23484269
REMARK  8 active torsions:
REMARK  status: ('A' for Active; 'I' for Inactive)
REMARK    1  A    between atoms: C_4  and  N_7
REMARK    2  A    between atoms: C_8  and  C_27
REMARK    3  A    between atoms: C_11  and  S_12
REMARK    4  A    between atoms: S_12  and  C_13
REMARK    5  A    between atoms: C_13  and  C_14
REMARK    6  A    between atoms: N_16  and  N_17
REMARK    7  A    between atoms: C_18  and  C_20
REMARK    8  A    between atoms: C_27  and  N_28
REMARK                            x       y       z     vdW  Elec       q    Type
REMARK                         _______ _______ _______ _____ _____    ______ ____
ROOT
ATOM      1  N   UNL     1       2.924   5.850   0.006  0.00  0.00    -0.276 N 
ATOM      2  C   UNL     1       4.293   5.861  -0.007  0.00  0.00    +0.122 A 
ATOM      3  N   UNL     1       4.690   4.620  -0.018  0.00  0.00    -0.135 NA
ATOM      4  N   UNL     1       3.676   3.830  -0.007  0.00  0.00    -0.122 NA
ATOM      5  C   UNL     1       2.565   4.530   0.002  0.00  0.00    +0.197 A 
ENDROOT
BRANCH   1   9
ATOM      6  C   UNL     1       0.379   9.152   0.050  0.00  0.00    +0.000 A 
ATOM      7  C   UNL     1       0.410   8.290   1.131  0.00  0.00    +0.002 A 
ATOM      8  C   UNL     1       1.252   7.195   1.119  0.00  0.00    +0.026 A 
ATOM      9  C   UNL     1       2.068   6.961   0.020  0.00  0.00    +0.050 A 
ATOM     10  C   UNL     1       2.039   7.831  -1.061  0.00  0.00    +0.026 A 
ATOM     11  C   UNL     1       1.191   8.921  -1.045  0.00  0.00    +0.002 A 
ENDBRANCH   1   9
BRANCH   5  12
ATOM     12  S   UNL     1       0.924   3.890   0.014  0.00  0.00    -0.076 S 
BRANCH  12  13
ATOM     13  C   UNL     1       1.278   2.115   0.001  0.00  0.00    +0.174 C 
BRANCH  13  14
ATOM     14  C   UNL     1      -0.016   1.344   0.009  0.00  0.00    +0.239 C 
ATOM     15  O   UNL     1      -1.075   1.936   0.018  0.00  0.00    -0.273 OA
ATOM     16  N   UNL     1       0.002  -0.004   0.002  0.00  0.00    -0.233 N 
ATOM     17  H   UNL     1       0.962  -0.541  -0.010  0.00  0.00    +0.173 HD
BRANCH  16  18
ATOM     18  N   UNL     1      -1.202  -0.721   0.010  0.00  0.00    -0.230 N 
ATOM     19  C   UNL     1      -1.183  -2.069   0.002  0.00  0.00    +0.263 C 
ATOM     20  O   UNL     1      -0.122  -2.662  -0.011  0.00  0.00    -0.269 OA
ATOM     21  H   UNL     1      -2.162  -0.184   0.022  0.00  0.00    +0.173 HD
BRANCH  19  22
ATOM     22  C   UNL     1      -2.452  -2.824   0.010  0.00  0.00    +0.073 A 
ATOM     23  C   UNL     1      -3.673  -2.146   0.031  0.00  0.00    +0.016 A 
ATOM     24  C   UNL     1      -4.854  -2.858   0.033  0.00  0.00    +0.001 A 
ATOM     25  C   UNL     1      -4.833  -4.242   0.026  0.00  0.00    +0.003 A 
ATOM     26  C   UNL     1      -3.630  -4.922   0.010  0.00  0.00    +0.039 A 
ATOM     27  C   UNL     1      -2.437  -4.223   0.003  0.00  0.00    +0.136 A 
ATOM     28  F   UNL     1      -1.261  -4.888  -0.012  0.00  0.00    -0.205 F 
ENDBRANCH  19  22
ENDBRANCH  16  18
ENDBRANCH  13  14
ENDBRANCH  12  13
ENDBRANCH   5  12
BRANCH   2  29
ATOM     29  C   UNL     1       5.177   7.081  -0.009  0.00  0.00    -0.001 C 
BRANCH  29  30
ATOM     30  N   UNL     1       5.478   7.470   1.376  0.00  0.00    +0.384 N 
ATOM     31  C   UNL     1       4.263   7.912   2.074  0.00  0.00    -0.078 C 
ATOM     32  C   UNL     1       4.585   8.168   3.548  0.00  0.00    -0.019 C 
ATOM     33  C   UNL     1       5.673   9.241   3.648  0.00  0.00    -0.004 C 
ATOM     34  C   UNL     1       6.910   8.777   2.873  0.00  0.00    -0.019 C 
ATOM     35  C   UNL     1       6.520   8.503   1.418  0.00  0.00    -0.078 C 
ATOM     36  H   UNL     1       5.862   6.583   1.901  0.00  0.00    -0.081 HD
ENDBRANCH  29  30
ENDBRANCH   2  29
TORSDOF 8
