REMARK  Name = ZINC19853970
REMARK  8 active torsions:
REMARK  status: ('A' for Active; 'I' for Inactive)
REMARK    1  A    between atoms: C_1  and  C_2
REMARK    2  A    between atoms: C_5  and  O_8
REMARK    3  A    between atoms: O_8  and  C_9
REMARK    4  A    between atoms: C_9  and  C_10
REMARK    5  A    between atoms: C_10  and  O_11
REMARK    6  A    between atoms: O_11  and  C_12
REMARK    7  A    between atoms: C_15  and  C_18
REMARK    8  A    between atoms: C_28  and  C_30
REMARK                            x       y       z     vdW  Elec       q    Type
REMARK                         _______ _______ _______ _____ _____    ______ ____
ROOT
ATOM      1  C   UNL     1       2.041 -12.112  -0.660  0.00  0.00    +0.024 C 
ATOM      2  C   UNL     1       2.716 -12.507  -1.793  0.00  0.00    +0.079 C 
ATOM      3  C   UNL     1       2.833 -13.943  -2.177  0.00  0.00    +0.132 C 
ATOM      4  N   UNL     1       1.904 -14.828  -1.935  0.00  0.00    -0.385 N 
ATOM      5  N   UNL     1       4.047 -14.251  -2.827  0.00  0.00    -0.153 N 
ATOM      6  C   UNL     1       4.711 -13.220  -3.458  0.00  0.00    +0.181 C 
ATOM      7  N   UNL     1       4.400 -11.948  -3.451  0.00  0.00    -0.152 NA
ATOM      8  C   UNL     1       3.360 -11.526  -2.702  0.00  0.00    +0.273 C 
ATOM      9  O   UNL     1       2.962 -10.374  -2.766  0.00  0.00    -0.268 OA
ATOM     10  S   UNL     1       6.064 -14.064  -4.234  0.00  0.00    -0.033 S 
ATOM     11  C   UNL     1       5.722 -15.697  -3.593  0.00  0.00    +0.131 C 
ATOM     12  N   UNL     1       4.628 -15.499  -2.898  0.00  0.00    -0.164 NA
ATOM     13  H   UNL     1       1.087 -14.563  -1.485  0.00  0.00    +0.157 HD
ATOM     14  H   UNL     1       2.031 -15.751  -2.206  0.00  0.00    +0.157 HD
ENDROOT
BRANCH  11  15
ATOM     15  C   UNL     1       6.479 -16.952  -3.795  0.00  0.00    +0.027 A 
ATOM     16  C   UNL     1       7.636 -16.954  -4.575  0.00  0.00    +0.012 A 
ATOM     17  C   UNL     1       8.338 -18.127  -4.761  0.00  0.00    +0.001 A 
ATOM     18  C   UNL     1       7.897 -19.301  -4.175  0.00  0.00    +0.001 A 
ATOM     19  C   UNL     1       6.751 -19.307  -3.400  0.00  0.00    +0.020 A 
ATOM     20  C   UNL     1       6.043 -18.138  -3.202  0.00  0.00    +0.051 A 
ATOM     21 CL   UNL     1       4.608 -18.145  -2.224  0.00  0.00    -0.083 Cl
ENDBRANCH  11  15
BRANCH   1  25
ATOM     22  C   UNL     1       2.218  -8.083   0.609  0.00  0.00    +0.121 A 
ATOM     23  C   UNL     1       1.038  -8.804   0.755  0.00  0.00    +0.046 A 
ATOM     24  C   UNL     1       0.974 -10.106   0.347  0.00  0.00    +0.011 A 
ATOM     25  C   UNL     1       2.102 -10.716  -0.221  0.00  0.00    -0.024 A 
ATOM     26  C   UNL     1       3.290  -9.984  -0.365  0.00  0.00    +0.011 A 
ATOM     27  C   UNL     1       3.339  -8.681   0.042  0.00  0.00    +0.046 A 
BRANCH  22  28
ATOM     28  O   UNL     1       2.275  -6.790   1.016  0.00  0.00    -0.489 OA
BRANCH  28  29
ATOM     29  C   UNL     1       1.089  -6.238   1.590  0.00  0.00    +0.270 C 
BRANCH  29  30
ATOM     30  C   UNL     1       1.343  -4.782   1.986  0.00  0.00    +0.270 C 
BRANCH  30  31
ATOM     31  O   UNL     1       1.592  -4.006   0.812  0.00  0.00    -0.489 OA
BRANCH  31  36
ATOM     32  C   UNL     1       2.611   1.484   1.546  0.00  0.00    +0.044 C 
ATOM     33  C   UNL     1       2.339   0.015   1.350  0.00  0.00    -0.050 A 
ATOM     34  C   UNL     1       2.337  -0.522   0.076  0.00  0.00    +0.007 A 
ATOM     35  C   UNL     1       2.088  -1.869  -0.107  0.00  0.00    +0.046 A 
ATOM     36  C   UNL     1       1.838  -2.682   0.989  0.00  0.00    +0.121 A 
ATOM     37  C   UNL     1       1.840  -2.140   2.267  0.00  0.00    +0.046 A 
ATOM     38  C   UNL     1       2.096  -0.794   2.444  0.00  0.00    +0.007 A 
ENDBRANCH  31  36
ENDBRANCH  30  31
ENDBRANCH  29  30
ENDBRANCH  28  29
ENDBRANCH  22  28
ENDBRANCH   1  25
TORSDOF 7
