REMARK  Name = ZINC10035325
REMARK  6 active torsions:
REMARK  status: ('A' for Active; 'I' for Inactive)
REMARK    1  A    between atoms: C_1  and  C_2
REMARK    2  A    between atoms: C_2  and  O_3
REMARK    3  A    between atoms: O_3  and  C_4
REMARK    4  A    between atoms: C_4  and  C_6
REMARK    5  A    between atoms: C_7  and  N_29
REMARK    6  A    between atoms: C_25  and  C_28
REMARK                            x       y       z     vdW  Elec       q    Type
REMARK                         _______ _______ _______ _____ _____    ______ ____
ROOT
ATOM      1  C   UNL     1      -0.646   1.741   3.588  0.00  0.00    +0.117 C 
ATOM      2  C   UNL     1      -0.286   1.154   4.761  0.00  0.00    +0.195 C 
ATOM      3  O   UNL     1      -0.951   1.404   5.898  0.00  0.00    -0.446 OA
ATOM      4  C   UNL     1      -2.211   1.877   5.854  0.00  0.00    +0.116 C 
ATOM      5  C   UNL     1      -2.685   2.507   4.763  0.00  0.00    +0.057 C 
ATOM      6  C   UNL     1      -1.810   2.688   3.547  0.00  0.00    +0.141 C 
ATOM      7  C   UNL     1      -1.344   4.106   3.428  0.00  0.00    -0.001 A 
ATOM      8  C   UNL     1      -0.570   4.886   4.260  0.00  0.00    +0.022 A 
ATOM      9  C   UNL     1      -0.316   6.189   3.846  0.00  0.00    +0.018 A 
ATOM     10  C   UNL     1      -0.818   6.676   2.655  0.00  0.00    +0.017 A 
ATOM     11  C   UNL     1      -1.597   5.898   1.814  0.00  0.00    +0.025 A 
ATOM     12  C   UNL     1      -1.860   4.588   2.219  0.00  0.00    +0.038 A 
ATOM     13  N   UNL     1      -2.600   3.604   1.585  0.00  0.00    -0.284 N 
ATOM     14  C   UNL     1      -2.626   2.456   2.292  0.00  0.00    +0.237 C 
ATOM     15  O   UNL     1      -3.195   1.431   1.982  0.00  0.00    -0.274 OA
ATOM     16 BR   UNL     1       0.740   7.318   4.936  0.00  0.00    -0.050 Br
ATOM     17  C   UNL     1      -3.996   3.019   4.725  0.00  0.00    +0.164 C 
ATOM     18  O   UNL     1      -4.391   3.573   3.719  0.00  0.00    -0.292 OA
ATOM     19  C   UNL     1      -4.917   2.893   5.908  0.00  0.00    +0.083 C 
ATOM     20  C   UNL     1      -4.076   2.836   7.188  0.00  0.00    +0.001 C 
ATOM     21  C   UNL     1      -3.087   1.675   7.068  0.00  0.00    +0.078 C 
ATOM     22  C   UNL     1      -4.990   2.615   8.394  0.00  0.00    +0.008 C 
ATOM     23  H   UNL     1      -3.047   3.727   0.733  0.00  0.00    +0.155 HD
ENDROOT
BRANCH   2  24
ATOM     24  N   UNL     1       0.778   0.293   4.781  0.00  0.00    -0.329 N 
ATOM     25  H   UNL     1       1.349   0.245   5.564  0.00  0.00    +0.145 HD
ATOM     26  H   UNL     1       0.961  -0.270   4.012  0.00  0.00    +0.145 HD
ENDBRANCH   2  24
BRANCH   1  27
ATOM     27  C   UNL     1       0.074   1.464   2.416  0.00  0.00    +0.342 C 
ATOM     28  O   UNL     1       1.084   0.786   2.467  0.00  0.00    -0.245 OA
BRANCH  27  29
ATOM     29  O   UNL     1      -0.354   1.949   1.230  0.00  0.00    -0.462 OA
BRANCH  29  31
ATOM     30  C   UNL     1      -0.208   2.261  -1.162  0.00  0.00    +0.048 C 
ATOM     31  C   UNL     1       0.427   1.628   0.078  0.00  0.00    +0.229 C 
ENDBRANCH  29  31
ENDBRANCH  27  29
ENDBRANCH   1  27
TORSDOF 4
