REMARK  Name = ZINC38970817
REMARK  7 active torsions:
REMARK  status: ('A' for Active; 'I' for Inactive)
REMARK    1  A    between atoms: C_1  and  O_2
REMARK    2  A    between atoms: O_2  and  C_3
REMARK    3  A    between atoms: C_6  and  C_9
REMARK    4  A    between atoms: C_9  and  N_10
REMARK    5  A    between atoms: N_10  and  C_11
REMARK    6  A    between atoms: N_14  and  S_15
REMARK    7  A    between atoms: S_15  and  C_18
REMARK                            x       y       z     vdW  Elec       q    Type
REMARK                         _______ _______ _______ _____ _____    ______ ____
ROOT
ATOM      1  C   UNL     1       4.613  -3.365  -5.202  0.00  0.00    +0.220 C 
ATOM      2  C   UNL     1       5.872  -2.580  -5.492  0.00  0.00    +0.188 C 
ATOM      3  N   UNL     1       5.807  -1.315  -5.786  0.00  0.00    -0.110 NA
ATOM      4  N   UNL     1       7.058  -3.207  -5.441  0.00  0.00    -0.226 NA
ATOM      5  C   UNL     1       7.149  -4.487  -5.145  0.00  0.00    +0.089 A 
ATOM      6  C   UNL     1       8.419  -5.118  -5.100  0.00  0.00    +0.030 A 
ATOM      7  C   UNL     1       8.519  -6.430  -4.797  0.00  0.00    +0.002 A 
ATOM      8  C   UNL     1       7.400  -7.232  -4.516  0.00  0.00    +0.002 A 
ATOM      9  C   UNL     1       6.145  -6.732  -4.532  0.00  0.00    +0.027 A 
ATOM     10  C   UNL     1       5.951  -5.311  -4.852  0.00  0.00    +0.063 A 
ATOM     11  N   UNL     1       4.755  -4.793  -4.875  0.00  0.00    -0.362 N 
ATOM     12  H   UNL     1       3.976  -5.337  -4.682  0.00  0.00    +0.162 HD
ENDROOT
BRANCH   3  13
ATOM     13  S   UNL     1       7.194  -0.466  -6.101  0.00  0.00    +0.100 S 
ATOM     14  O   UNL     1       7.931  -0.428  -4.887  0.00  0.00    -0.146 OA
ATOM     15  O   UNL     1       7.732  -0.999  -7.303  0.00  0.00    -0.146 OA
BRANCH  13  16
ATOM     16  C   UNL     1       6.720   1.194  -6.455  0.00  0.00    +0.113 A 
ATOM     17  C   UNL     1       6.433   1.568  -7.755  0.00  0.00    +0.032 A 
ATOM     18  C   UNL     1       6.060   2.869  -8.033  0.00  0.00    +0.040 A 
ATOM     19  C   UNL     1       5.974   3.799  -7.010  0.00  0.00    +0.124 A 
ATOM     20  C   UNL     1       6.262   3.422  -5.709  0.00  0.00    +0.040 A 
ATOM     21  C   UNL     1       6.630   2.119  -5.432  0.00  0.00    +0.032 A 
ATOM     22  F   UNL     1       5.611   5.071  -7.281  0.00  0.00    -0.205 F 
ENDBRANCH  13  16
ENDBRANCH   3  13
BRANCH   1  23
ATOM     23  N   UNL     1       3.927  -2.714  -4.079  0.00  0.00    -0.287 NA
ATOM     24  H   UNL     1       4.377  -1.845  -3.835  0.00  0.00    +0.125 HD
BRANCH  23  25
ATOM     25  C   UNL     1       2.505  -2.503  -4.381  0.00  0.00    +0.118 C 
BRANCH  25  29
ATOM     26  C   UNL     1       0.606  -0.607  -1.056  0.00  0.00    +0.120 A 
ATOM     27  C   UNL     1       1.173   0.161  -2.062  0.00  0.00    +0.046 A 
ATOM     28  C   UNL     1       1.786  -0.455  -3.136  0.00  0.00    +0.008 A 
ATOM     29  C   UNL     1       1.835  -1.835  -3.209  0.00  0.00    -0.033 A 
ATOM     30  C   UNL     1       1.270  -2.602  -2.207  0.00  0.00    +0.008 A 
ATOM     31  C   UNL     1       0.661  -1.992  -1.128  0.00  0.00    +0.046 A 
BRANCH  26  33
ATOM     32  C   UNL     1      -0.017   1.425   0.010  0.00  0.00    +0.277 C 
ATOM     33  O   UNL     1       0.002  -0.004   0.002  0.00  0.00    -0.495 OA
ENDBRANCH  26  33
ENDBRANCH  25  29
ENDBRANCH  23  25
ENDBRANCH   1  23
TORSDOF 6
