REMARK  Name = ZINC67427288
REMARK  3 active torsions:
REMARK  status: ('A' for Active; 'I' for Inactive)
REMARK    1  A    between atoms: C_6  and  C_7
REMARK    2  A    between atoms: C_7  and  C_9
REMARK    3  A    between atoms: C_7  and  O_23
REMARK                            x       y       z     vdW  Elec       q    Type
REMARK                         _______ _______ _______ _____ _____    ______ ____
ROOT
ATOM      1  C   UNL     1      -1.615  -1.240  -1.411  0.00  0.00    +0.025 C 
ATOM      2  C   UNL     1      -1.747  -0.027  -2.334  0.00  0.00    +0.025 C 
ATOM      3  C   UNL     1      -2.039  -0.505  -3.760  0.00  0.00    +0.109 C 
ATOM      4  N   UNL     1      -3.223  -1.375  -3.734  0.00  0.00    -0.285 N 
ATOM      5  C   UNL     1      -3.237  -2.520  -2.814  0.00  0.00    +0.109 C 
ATOM      6  C   UNL     1      -2.932  -2.020  -1.399  0.00  0.00    +0.025 C 
ATOM      7  C   UNL     1      -4.276  -1.127  -4.538  0.00  0.00    +0.308 C 
ATOM      8  O   UNL     1      -4.293  -0.124  -5.225  0.00  0.00    -0.252 OA
ATOM      9  N   UNL     1      -5.309  -1.991  -4.581  0.00  0.00    -0.247 N 
ATOM     10  C   UNL     1      -6.347  -1.790  -5.485  0.00  0.00    +0.189 A 
ATOM     11  N   UNL     1      -6.498  -0.831  -6.377  0.00  0.00    -0.126 NA
ATOM     12  N   UNL     1      -7.505  -0.780  -7.139  0.00  0.00    -0.148 NA
ATOM     13  C   UNL     1      -8.431  -1.712  -7.040  0.00  0.00    +0.183 A 
ATOM     14  S   UNL     1      -7.735  -2.714  -5.734  0.00  0.00    -0.039 S 
ATOM     15  H   UNL     1      -5.330  -2.752  -3.981  0.00  0.00    +0.158 HD
ENDROOT
BRANCH   1  16
ATOM     16  C   UNL     1      -1.288  -0.768   0.007  0.00  0.00    +0.148 C 
BRANCH  16  22
ATOM     17  C   UNL     1      -0.007   1.382  -0.001  0.00  0.00    +0.007 A 
ATOM     18  C   UNL     1       1.182   2.087  -0.012  0.00  0.00    +0.020 A 
ATOM     19  C   UNL     1       2.388   1.408  -0.026  0.00  0.00    +0.041 A 
ATOM     20  C   UNL     1       2.402   0.025  -0.029  0.00  0.00    +0.020 A 
ATOM     21  C   UNL     1       1.213  -0.679  -0.019  0.00  0.00    +0.007 A 
ATOM     22  C   UNL     1       0.008  -0.000  -0.005  0.00  0.00    -0.019 A 
ATOM     23 CL   UNL     1       3.881   2.293  -0.040  0.00  0.00    -0.084 Cl
ENDBRANCH  16  22
BRANCH  16  24
ATOM     24  O   UNL     1      -1.163  -1.901   0.869  0.00  0.00    -0.387 OA
ATOM     25  H   UNL     1      -0.468  -2.520   0.607  0.00  0.00    +0.210 HD
ENDBRANCH  16  24
ENDBRANCH   1  16
TORSDOF 3
