REMARK  Name = ZINC55494521
REMARK  5 active torsions:
REMARK  status: ('A' for Active; 'I' for Inactive)
REMARK    1  A    between atoms: C_1  and  C_2
REMARK    2  A    between atoms: C_2  and  C_3
REMARK    3  A    between atoms: C_16  and  C_18
REMARK    4  A    between atoms: C_21  and  S_24
REMARK    5  A    between atoms: S_24  and  N_27
REMARK                            x       y       z     vdW  Elec       q    Type
REMARK                         _______ _______ _______ _____ _____    ______ ____
ROOT
ATOM      1  C   UNL     1      -1.433  -0.534   0.013  0.00  0.00    -0.006 C 
ATOM      2  C   UNL     1      -1.417  -2.061   0.122  0.00  0.00    +0.008 C 
ATOM      3  C   UNL     1      -2.831  -2.578   0.384  0.00  0.00    +0.037 C 
ATOM      4  C   UNL     1      -3.770  -2.009  -0.677  0.00  0.00    -0.023 A 
ATOM      5  C   UNL     1      -3.412  -0.920  -1.399  0.00  0.00    -0.004 A 
ATOM      6  S   UNL     1      -4.778  -0.617  -2.491  0.00  0.00    -0.073 S 
ATOM      7  C   UNL     1      -5.822  -1.946  -1.981  0.00  0.00    +0.116 A 
ATOM      8  C   UNL     1      -5.069  -2.586  -0.970  0.00  0.00    +0.075 A 
ATOM      9  C   UNL     1      -5.659  -3.733  -0.340  0.00  0.00    +0.260 A 
ATOM     10  O   UNL     1      -5.089  -4.353   0.542  0.00  0.00    -0.267 OA
ATOM     11  N   UNL     1      -6.888  -4.084  -0.785  0.00  0.00    -0.306 N 
ATOM     12  H   UNL     1      -7.324  -4.854  -0.387  0.00  0.00    +0.170 HD
ATOM     13  C   UNL     1      -7.542  -3.404  -1.771  0.00  0.00    +0.142 A 
ATOM     14  N   UNL     1      -7.025  -2.342  -2.372  0.00  0.00    -0.222 NA
ATOM     15  C   UNL     1      -2.138  -0.138  -1.293  0.00  0.00    +0.046 C 
ENDROOT
BRANCH  13  16
ATOM     16  C   UNL     1      -8.881  -3.870  -2.185  0.00  0.00    +0.017 A 
ATOM     17  C   UNL     1      -9.458  -4.982  -1.569  0.00  0.00    +0.013 A 
ATOM     18  C   UNL     1     -10.709  -5.412  -1.960  0.00  0.00    +0.029 A 
ATOM     19  C   UNL     1     -11.392  -4.744  -2.961  0.00  0.00    +0.105 A 
ATOM     20  C   UNL     1     -10.826  -3.641  -3.576  0.00  0.00    +0.029 A 
ATOM     21  C   UNL     1      -9.579  -3.197  -3.190  0.00  0.00    +0.013 A 
BRANCH  19  22
ATOM     22  S   UNL     1     -12.989  -5.301  -3.455  0.00  0.00    +0.056 S 
ATOM     23  O   UNL     1     -13.187  -4.838  -4.784  0.00  0.00    -0.153 OA
ATOM     24  O   UNL     1     -13.065  -6.677  -3.108  0.00  0.00    -0.153 OA
BRANCH  22  25
ATOM     25  N   UNL     1     -14.097  -4.512  -2.510  0.00  0.00    -0.204 NA
ATOM     26  H   UNL     1     -14.981  -4.319  -2.858  0.00  0.00    +0.144 HD
ATOM     27  H   UNL     1     -13.861  -4.244  -1.608  0.00  0.00    +0.144 HD
ENDBRANCH  22  25
ENDBRANCH  19  22
ENDBRANCH  13  16
BRANCH   1  29
ATOM     28  C   UNL     1      -0.019   1.526   0.010  0.00  0.00    +0.004 C 
ATOM     29  C   UNL     1       0.002  -0.004   0.002  0.00  0.00    +0.000 C 
ENDBRANCH   1  29
TORSDOF 4
