REMARK  Name = ZINC63010729
REMARK  5 active torsions:
REMARK  status: ('A' for Active; 'I' for Inactive)
REMARK    1  A    between atoms: C_1  and  N_2
REMARK    2  A    between atoms: N_2  and  C_3
REMARK    3  A    between atoms: C_8  and  C_9
REMARK    4  A    between atoms: C_12  and  C_14
REMARK    5  A    between atoms: C_17  and  N_21
REMARK                            x       y       z     vdW  Elec       q    Type
REMARK                         _______ _______ _______ _____ _____    ______ ____
ROOT
ATOM      1  C   UNL     1      -0.032   1.460   0.012  0.00  0.00    +0.138 C 
ATOM      2  N   UNL     1       0.004  -0.004   0.002  0.00  0.00    -0.270 N 
ATOM      3  C   UNL     1      -0.102  -0.673  -1.163  0.00  0.00    +0.251 C 
ATOM      4  O   UNL     1      -0.178  -1.887  -1.163  0.00  0.00    -0.270 OA
ENDROOT
BRANCH   3   5
ATOM      5  C   UNL     1      -0.124   0.067  -2.439  0.00  0.00    +0.040 A 
ATOM      6  C   UNL     1       0.641   1.228  -2.589  0.00  0.00    +0.015 A 
ATOM      7  C   UNL     1       0.618   1.917  -3.780  0.00  0.00    +0.026 A 
ATOM      8  C   UNL     1      -0.165   1.460  -4.836  0.00  0.00    +0.060 A 
ATOM      9  C   UNL     1      -0.929   0.304  -4.691  0.00  0.00    +0.145 A 
ATOM     10  C   UNL     1      -0.906  -0.394  -3.503  0.00  0.00    +0.053 A 
ATOM     11  F   UNL     1      -1.689  -0.137  -5.717  0.00  0.00    -0.204 F 
BRANCH   8  12
ATOM     12  N   UNL     1      -0.185   2.160  -6.039  0.00  0.00    -0.356 N 
ATOM     13  H   UNL     1       0.346   2.965  -6.141  0.00  0.00    +0.142 HD
ATOM     14  H   UNL     1      -0.731   1.842  -6.775  0.00  0.00    +0.142 HD
ENDBRANCH   8  12
ENDBRANCH   3   5
BRANCH   2  15
ATOM     15  C   UNL     1       0.147  -0.704   1.195  0.00  0.00    +0.050 A 
ATOM     16  C   UNL     1      -0.975  -1.091   1.916  0.00  0.00    +0.024 A 
ATOM     17  C   UNL     1      -0.831  -1.786   3.100  0.00  0.00    +0.002 A 
ATOM     18  C   UNL     1       0.431  -2.104   3.578  0.00  0.00    +0.001 A 
ATOM     19  C   UNL     1       1.556  -1.730   2.878  0.00  0.00    +0.017 A 
ATOM     20  C   UNL     1       1.427  -1.029   1.674  0.00  0.00    +0.084 A 
BRANCH  20  21
ATOM     21  C   UNL     1       2.624  -0.631   0.917  0.00  0.00    +0.388 C 
ATOM     22  O   UNL     1       3.737  -0.917   1.337  0.00  0.00    -0.241 OA
ATOM     23  O   UNL     1       2.506  -0.015  -0.134  0.00  0.00    -0.241 OA
ENDBRANCH  20  21
ENDBRANCH   2  15
TORSDOF 4
