REMARK  Name = ZINC63526744
REMARK  12 active torsions:
REMARK  status: ('A' for Active; 'I' for Inactive)
REMARK    1  A    between atoms: C_1  and  C_2
REMARK    2  A    between atoms: C_4  and  S_12
REMARK    3  A    between atoms: C_7  and  C_8
REMARK    4  A    between atoms: C_8  and  C_9
REMARK    5  A    between atoms: C_9  and  C_10
REMARK    6  A    between atoms: C_9  and  C_11
REMARK    7  A    between atoms: S_12  and  C_13
REMARK    8  A    between atoms: C_13  and  C_14
REMARK    9  A    between atoms: N_16  and  C_17
REMARK   10  A    between atoms: C_20  and  C_23
REMARK   11  A    between atoms: C_26  and  O_29
REMARK   12  A    between atoms: O_29  and  C_30
REMARK                            x       y       z     vdW  Elec       q    Type
REMARK                         _______ _______ _______ _____ _____    ______ ____
ROOT
ATOM      1  C   UNL     1      -6.109   3.968  -2.291  0.00  0.00    +0.225 C 
ATOM      2  O   UNL     1      -6.472   3.781  -3.433  0.00  0.00    -0.275 OA
ATOM      3  N   UNL     1      -6.931   4.578  -1.414  0.00  0.00    -0.285 N 
ATOM      4  H   UNL     1      -6.640   4.727  -0.501  0.00  0.00    +0.152 HD
ENDROOT
BRANCH   3   5
ATOM      5  C   UNL     1      -8.262   5.016  -1.840  0.00  0.00    +0.251 C 
ATOM      6  N   UNL     1      -9.091   5.405  -0.682  0.00  0.00    -0.254 NA
ATOM      7  C   UNL     1      -9.738   6.500  -0.696  0.00  0.00    +0.056 C 
ATOM      8  C   UNL     1      -9.633   7.388  -1.927  0.00  0.00    +0.128 C 
ATOM      9  S   UNL     1      -8.175   6.615  -2.759  0.00  0.00    -0.109 S 
BRANCH   7  10
ATOM     10  C   UNL     1     -10.571   6.899   0.453  0.00  0.00    -0.003 A 
ATOM     11  C   UNL     1     -11.281   8.102   0.420  0.00  0.00    +0.013 A 
ATOM     12  C   UNL     1     -12.058   8.471   1.496  0.00  0.00    +0.046 A 
ATOM     13  C   UNL     1     -12.136   7.649   2.613  0.00  0.00    +0.120 A 
ATOM     14  C   UNL     1     -11.431   6.452   2.651  0.00  0.00    +0.046 A 
ATOM     15  C   UNL     1     -10.657   6.072   1.577  0.00  0.00    +0.013 A 
BRANCH  13  16
ATOM     16  O   UNL     1     -12.902   8.016   3.672  0.00  0.00    -0.495 OA
ATOM     17  C   UNL     1     -12.938   7.124   4.788  0.00  0.00    +0.277 C 
ENDBRANCH  13  16
ENDBRANCH   7  10
ENDBRANCH   3   5
BRANCH   1  18
ATOM     18  C   UNL     1      -4.739   3.518  -1.853  0.00  0.00    +0.173 C 
BRANCH  18  19
ATOM     19  S   UNL     1      -3.883   2.738  -3.249  0.00  0.00    -0.080 S 
BRANCH  19  23
ATOM     20  C   UNL     1      -0.013   1.086   0.008  0.00  0.00    +0.065 C 
ATOM     21  C   UNL     1      -0.742   1.585  -1.213  0.00  0.00    +0.034 A 
ATOM     22  N   UNL     1      -2.091   1.841  -1.314  0.00  0.00    -0.338 N 
ATOM     23  C   UNL     1      -2.319   2.273  -2.585  0.00  0.00    +0.145 A 
ATOM     24  H   UNL     1      -2.752   1.734  -0.613  0.00  0.00    +0.167 HD
ATOM     25  N   UNL     1      -1.177   2.283  -3.231  0.00  0.00    -0.338 N 
ATOM     26  C   UNL     1      -0.198   1.871  -2.408  0.00  0.00    +0.037 A 
ATOM     27  H   UNL     1      -1.057   2.550  -4.156  0.00  0.00    +0.168 HD
BRANCH  26  28
ATOM     28  C   UNL     1       1.261   1.746  -2.766  0.00  0.00    +0.058 C 
BRANCH  28  29
ATOM     29  C   UNL     1       1.560   0.308  -3.194  0.00  0.00    -0.011 C 
ATOM     30  C   UNL     1       0.799  -0.009  -4.483  0.00  0.00    +0.007 C 
ATOM     31  C   UNL     1       3.063   0.151  -3.437  0.00  0.00    +0.007 C 
ENDBRANCH  28  29
ENDBRANCH  26  28
ENDBRANCH  19  23
ENDBRANCH  18  19
ENDBRANCH   1  18
TORSDOF 8
