REMARK  Name = ZINC03655850
REMARK  16 active torsions:
REMARK  status: ('A' for Active; 'I' for Inactive)
REMARK    1  A    between atoms: C_1  and  C_2
REMARK    2  A    between atoms: C_2  and  O_3
REMARK    3  A    between atoms: O_3  and  C_4
REMARK    4  A    between atoms: C_4  and  C_6
REMARK    5  A    between atoms: C_7  and  C_37
REMARK    6  A    between atoms: N_8  and  C_30
REMARK    7  A    between atoms: C_12  and  O_15
REMARK    8  A    between atoms: O_15  and  C_16
REMARK    9  A    between atoms: C_16  and  C_17
REMARK   10  A    between atoms: C_17  and  C_19
REMARK   11  A    between atoms: C_17  and  O_29
REMARK   12  A    between atoms: C_19  and  N_69
REMARK   13  A    between atoms: C_20  and  C_22
REMARK   14  A    between atoms: C_20  and  C_23
REMARK   15  A    between atoms: C_20  and  N_69
REMARK   16  A    between atoms: C_33  and  C_36
REMARK                            x       y       z     vdW  Elec       q    Type
REMARK                         _______ _______ _______ _____ _____    ______ ____
ROOT
ATOM      1  C   UNL     1       1.513  -4.003  -2.599  0.00  0.00    +0.088 A 
ATOM      2  C   UNL     1       2.184  -3.971  -3.787  0.00  0.00    +0.036 A 
ATOM      3  N   UNL     1       2.384  -2.684  -4.166  0.00  0.00    -0.312 N 
ATOM      4  C   UNL     1       1.847  -1.818  -3.231  0.00  0.00    +0.055 A 
ATOM      5  C   UNL     1       1.279  -2.599  -2.211  0.00  0.00    +0.018 A 
ATOM      6  C   UNL     1       0.659  -1.987  -1.125  0.00  0.00    +0.056 A 
ATOM      7  C   UNL     1       0.606  -0.607  -1.056  0.00  0.00    +0.121 A 
ATOM      8  C   UNL     1       1.164   0.165  -2.070  0.00  0.00    +0.048 A 
ATOM      9  C   UNL     1       1.785  -0.432  -3.145  0.00  0.00    +0.030 A 
ATOM     10  C   UNL     1       2.634  -5.183  -4.562  0.00  0.00    +0.065 C 
ENDROOT
BRANCH   3  11
ATOM     11  C   UNL     1       3.042  -2.289  -5.337  0.00  0.00    +0.047 A 
ATOM     12  C   UNL     1       4.240  -1.591  -5.260  0.00  0.00    +0.026 A 
ATOM     13  C   UNL     1       4.889  -1.206  -6.417  0.00  0.00    +0.005 A 
ATOM     14  C   UNL     1       4.342  -1.507  -7.651  0.00  0.00    -0.050 A 
ATOM     15  C   UNL     1       3.147  -2.197  -7.731  0.00  0.00    +0.005 A 
ATOM     16  C   UNL     1       2.495  -2.589  -6.577  0.00  0.00    +0.026 A 
ATOM     17  C   UNL     1       5.050  -1.081  -8.911  0.00  0.00    +0.044 C 
ENDBRANCH   3  11
BRANCH   1  18
ATOM     18  C   UNL     1       1.105  -5.199  -1.853  0.00  0.00    +0.342 C 
ATOM     19  O   UNL     1       0.019  -5.704  -2.062  0.00  0.00    -0.245 OA
BRANCH  18  20
ATOM     20  O   UNL     1       1.934  -5.737  -0.936  0.00  0.00    -0.461 OA
BRANCH  20  22
ATOM     21  C   UNL     1       2.533  -7.383   0.755  0.00  0.00    +0.048 C 
ATOM     22  C   UNL     1       1.465  -6.920  -0.237  0.00  0.00    +0.229 C 
ENDBRANCH  20  22
ENDBRANCH  18  20
ENDBRANCH   1  18
BRANCH   7  23
ATOM     23  O   UNL     1       0.002  -0.004   0.002  0.00  0.00    -0.489 OA
BRANCH  23  24
ATOM     24  C   UNL     1      -0.017   1.425   0.010  0.00  0.00    +0.258 C 
BRANCH  24  25
ATOM     25  C   UNL     1      -0.733   1.918   1.269  0.00  0.00    +0.135 C 
BRANCH  25  26
ATOM     26  O   UNL     1       0.021   1.544   2.423  0.00  0.00    -0.390 OA
ATOM     27  H   UNL     1       0.916   1.908   2.443  0.00  0.00    +0.210 HD
ENDBRANCH  25  26
BRANCH  25  28
ATOM     28  C   UNL     1      -0.865   3.442   1.217  0.00  0.00    -0.047 C 
BRANCH  28  29
ATOM     29  N   UNL     1      -1.556   3.909   2.433  0.00  0.00    +0.385 N 
ATOM     30  H   UNL     1      -1.011   3.634   3.259  0.00  0.00    -0.085 HD
ATOM     31  H   UNL     1      -2.487   3.480   2.479  0.00  0.00    -0.085 HD
BRANCH  29  32
ATOM     32  C   UNL     1      -1.696   5.377   2.410  0.00  0.00    -0.044 C 
ATOM     33  C   UNL     1      -0.422   6.021   2.962  0.00  0.00    -0.009 C 
BRANCH  32  34
ATOM     34  C   UNL     1      -2.871   5.775   3.266  0.00  0.00    -0.062 A 
ATOM     35  C   UNL     1      -3.108   5.123   4.462  0.00  0.00    +0.002 A 
ATOM     36  C   UNL     1      -4.183   5.491   5.249  0.00  0.00    +0.000 A 
ATOM     37  C   UNL     1      -5.027   6.505   4.835  0.00  0.00    +0.000 A 
ATOM     38  C   UNL     1      -4.794   7.153   3.637  0.00  0.00    +0.000 A 
ATOM     39  C   UNL     1      -3.716   6.788   2.852  0.00  0.00    +0.002 A 
ENDBRANCH  32  34
ENDBRANCH  29  32
ENDBRANCH  28  29
ENDBRANCH  25  28
ENDBRANCH  24  25
ENDBRANCH  23  24
ENDBRANCH   7  23
TORSDOF 12
