REMARK  Name = ZINC12376326
REMARK  7 active torsions:
REMARK  status: ('A' for Active; 'I' for Inactive)
REMARK    1  A    between atoms: C_4  and  C_7
REMARK    2  A    between atoms: C_7  and  C_8
REMARK    3  A    between atoms: C_8  and  N_9
REMARK    4  A    between atoms: C_13  and  C_25
REMARK    5  A    between atoms: N_17  and  C_18
REMARK    6  A    between atoms: N_27  and  C_28
REMARK    7  A    between atoms: C_31  and  C_34
REMARK                            x       y       z     vdW  Elec       q    Type
REMARK                         _______ _______ _______ _____ _____    ______ ____
ROOT
ATOM      1  N   UNL     1      -4.588   6.272   0.173  0.00  0.00    -0.250 N 
ATOM      2  C   UNL     1      -3.607   6.266   1.066  0.00  0.00    +0.223 C 
ATOM      3  O   UNL     1      -3.725   7.027   2.003  0.00  0.00    -0.275 OA
ATOM      4  C   UNL     1      -2.374   5.425   1.046  0.00  0.00    +0.120 C 
ATOM      5  C   UNL     1      -2.572   4.134   0.252  0.00  0.00    +0.149 C 
ATOM      6  S   UNL     1      -3.189   4.564  -1.401  0.00  0.00    -0.077 S 
ATOM      7  C   UNL     1      -4.660   5.414  -0.906  0.00  0.00    +0.164 C 
ATOM      8  N   UNL     1      -5.790   5.232  -1.547  0.00  0.00    -0.226 NA
ENDROOT
BRANCH   8   9
ATOM      9  C   UNL     1      -5.841   4.376  -2.616  0.00  0.00    +0.067 A 
ATOM     10  C   UNL     1      -4.845   4.414  -3.593  0.00  0.00    +0.030 A 
ATOM     11  C   UNL     1      -4.899   3.546  -4.664  0.00  0.00    +0.040 A 
ATOM     12  C   UNL     1      -5.944   2.645  -4.776  0.00  0.00    +0.124 A 
ATOM     13  C   UNL     1      -6.939   2.606  -3.812  0.00  0.00    +0.040 A 
ATOM     14  C   UNL     1      -6.893   3.466  -2.735  0.00  0.00    +0.030 A 
ATOM     15  F   UNL     1      -5.995   1.801  -5.830  0.00  0.00    -0.205 F 
ENDBRANCH   8   9
BRANCH   5  16
ATOM     16  C   UNL     1      -1.256   3.409   0.128  0.00  0.00    +0.231 C 
ATOM     17  O   UNL     1      -0.217   4.035   0.127  0.00  0.00    -0.274 OA
ATOM     18  N   UNL     1      -1.234   2.066   0.019  0.00  0.00    -0.285 N 
ATOM     19  H   UNL     1      -2.066   1.571  -0.047  0.00  0.00    +0.155 HD
BRANCH  18  20
ATOM     20  C   UNL     1      -0.017   1.388   0.001  0.00  0.00    +0.033 A 
ATOM     21  C   UNL     1       1.089   1.962  -0.619  0.00  0.00    +0.024 A 
ATOM     22  C   UNL     1       2.291   1.293  -0.644  0.00  0.00    +0.017 A 
ATOM     23  C   UNL     1       2.401   0.035  -0.045  0.00  0.00    +0.063 A 
ATOM     24  C   UNL     1       1.289  -0.539   0.578  0.00  0.00    +0.017 A 
ATOM     25  C   UNL     1       0.089   0.136   0.599  0.00  0.00    +0.024 A 
BRANCH  23  26
ATOM     26  C   UNL     1       3.688  -0.686  -0.070  0.00  0.00    +0.387 C 
ATOM     27  O   UNL     1       3.782  -1.780   0.451  0.00  0.00    -0.241 OA
ATOM     28  O   UNL     1       4.759  -0.131  -0.670  0.00  0.00    -0.241 OA
ENDBRANCH  23  26
ENDBRANCH  18  20
ENDBRANCH   5  16
BRANCH   1  29
ATOM     29  C   UNL     1      -5.663   7.254   0.341  0.00  0.00    +0.120 C 
BRANCH  29  30
ATOM     30  C   UNL     1      -6.775   6.650   1.201  0.00  0.00    +0.054 C 
BRANCH  30  34
ATOM     31  C   UNL     1      -9.909   9.511   1.692  0.00  0.00    +0.000 A 
ATOM     32  C   UNL     1      -9.937   8.630   0.627  0.00  0.00    +0.000 A 
ATOM     33  C   UNL     1      -8.923   7.705   0.468  0.00  0.00    +0.004 A 
ATOM     34  C   UNL     1      -7.880   7.659   1.374  0.00  0.00    -0.046 A 
ATOM     35  C   UNL     1      -7.854   8.537   2.442  0.00  0.00    +0.004 A 
ATOM     36  C   UNL     1      -8.866   9.466   2.598  0.00  0.00    +0.000 A 
ENDBRANCH  30  34
ENDBRANCH  29  30
ENDBRANCH   1  29
TORSDOF 7
