REMARK  Name = ZINC39156652
REMARK  7 active torsions:
REMARK  status: ('A' for Active; 'I' for Inactive)
REMARK    1  A    between atoms: C_1  and  C_2
REMARK    2  A    between atoms: C_5  and  C_8
REMARK    3  A    between atoms: C_8  and  C_9
REMARK    4  A    between atoms: C_16  and  S_20
REMARK    5  A    between atoms: S_20  and  C_21
REMARK    6  A    between atoms: C_21  and  N_22
REMARK    7  A    between atoms: C_23  and  C_25
REMARK                            x       y       z     vdW  Elec       q    Type
REMARK                         _______ _______ _______ _____ _____    ______ ____
ROOT
ATOM      1  C   UNL     1       1.934  -4.251  -0.022  0.00  0.00    +0.132 A 
ATOM      2  C   UNL     1       2.964  -3.817  -0.971  0.00  0.00    +0.297 A 
ATOM      3  O   UNL     1       2.705  -3.014  -1.854  0.00  0.00    -0.264 OA
ATOM      4  N   UNL     1       4.200  -4.327  -0.843  0.00  0.00    -0.169 NA
ATOM      5  C   UNL     1       4.449  -5.194   0.123  0.00  0.00    +0.272 A 
ATOM      6  N   UNL     1       3.462  -5.567   0.980  0.00  0.00    -0.193 N 
ATOM      7  N   UNL     1       2.267  -5.108   0.906  0.00  0.00    -0.165 NA
ATOM      8  C   UNL     1       4.100  -6.525   1.900  0.00  0.00    +0.308 C 
ATOM      9  N   UNL     1       5.490  -6.595   1.426  0.00  0.00    -0.146 NA
ATOM     10  N   UNL     1       5.608  -5.845   0.456  0.00  0.00    -0.111 NA
ENDROOT
BRANCH   1  11
ATOM     11  C   UNL     1       0.528  -3.717  -0.112  0.00  0.00    +0.098 C 
BRANCH  11  16
ATOM     12  C   UNL     1       0.537   1.946   1.037  0.00  0.00    +0.044 C 
ATOM     13  C   UNL     1       0.535   0.469   0.737  0.00  0.00    -0.050 A 
ATOM     14  C   UNL     1       0.573   0.029  -0.573  0.00  0.00    +0.003 A 
ATOM     15  C   UNL     1       0.571  -1.325  -0.848  0.00  0.00    +0.004 A 
ATOM     16  C   UNL     1       0.531  -2.240   0.188  0.00  0.00    -0.041 A 
ATOM     17  C   UNL     1       0.493  -1.801   1.498  0.00  0.00    +0.004 A 
ATOM     18  C   UNL     1       0.500  -0.446   1.773  0.00  0.00    +0.003 A 
ENDBRANCH  11  16
ENDBRANCH   1  11
BRANCH   8  19
ATOM     19  S   UNL     1       4.035  -5.910   3.605  0.00  0.00    -0.091 S 
BRANCH  19  20
ATOM     20  C   UNL     1       4.413  -7.370   4.613  0.00  0.00    +0.178 C 
BRANCH  20  21
ATOM     21  N   UNL     1       5.848  -7.653   4.544  0.00  0.00    -0.302 N 
ATOM     22  C   UNL     1       6.676  -7.176   5.495  0.00  0.00    +0.245 C 
ATOM     23  O   UNL     1       6.222  -6.590   6.458  0.00  0.00    -0.270 OA
ATOM     24  H   UNL     1       6.204  -8.183   3.813  0.00  0.00    +0.150 HD
BRANCH  22  25
ATOM     25  C   UNL     1       8.136  -7.367   5.367  0.00  0.00    +0.037 A 
ATOM     26  C   UNL     1       8.670  -7.934   4.209  0.00  0.00    +0.014 A 
ATOM     27  C   UNL     1      10.033  -8.109   4.095  0.00  0.00    +0.021 A 
ATOM     28  C   UNL     1      10.872  -7.723   5.128  0.00  0.00    +0.041 A 
ATOM     29  C   UNL     1      10.348  -7.159   6.279  0.00  0.00    +0.021 A 
ATOM     30  C   UNL     1       8.987  -6.974   6.402  0.00  0.00    +0.014 A 
ATOM     31 CL   UNL     1      12.587  -7.947   4.978  0.00  0.00    -0.084 Cl
ENDBRANCH  22  25
ENDBRANCH  20  21
ENDBRANCH  19  20
ENDBRANCH   8  19
TORSDOF 6
