REMARK  Name = ZINC64713303
REMARK  8 active torsions:
REMARK  status: ('A' for Active; 'I' for Inactive)
REMARK    1  A    between atoms: C_1  and  C_2
REMARK    2  A    between atoms: C_4  and  S_9
REMARK    3  A    between atoms: C_5  and  C_8
REMARK    4  A    between atoms: S_9  and  N_12
REMARK    5  A    between atoms: N_12  and  C_13
REMARK    6  A    between atoms: C_13  and  C_14
REMARK    7  A    between atoms: C_14  and  C_16
REMARK    8  A    between atoms: C_14  and  C_21
REMARK                            x       y       z     vdW  Elec       q    Type
REMARK                         _______ _______ _______ _____ _____    ______ ____
ROOT
ATOM      1  C   UNL     1      -2.318  -3.294  -3.753  0.00  0.00    +0.069 C 
ENDROOT
BRANCH   1   2
ATOM      2  C   UNL     1      -2.457  -4.790  -3.636  0.00  0.00    -0.032 C 
ATOM      3  C   UNL     1      -3.444  -5.557  -4.152  0.00  0.00    -0.000 A 
ATOM      4  C   UNL     1      -4.638  -5.241  -4.945  0.00  0.00    +0.010 A 
ATOM      5  C   UNL     1      -5.460  -6.246  -5.324  0.00  0.00    +0.001 A 
ATOM      6  C   UNL     1      -5.200  -7.580  -4.979  0.00  0.00    +0.002 A 
ATOM      7  C   UNL     1      -4.124  -7.949  -4.253  0.00  0.00    +0.026 A 
ATOM      8  C   UNL     1      -3.193  -6.973  -3.802  0.00  0.00    +0.043 A 
ATOM      9  N   UNL     1      -2.093  -7.077  -3.096  0.00  0.00    -0.380 N 
ATOM     10  C   UNL     1      -1.518  -5.738  -2.925  0.00  0.00    +0.145 C 
ATOM     11  H   UNL     1      -1.719  -7.902  -2.749  0.00  0.00    +0.160 HD
ENDBRANCH   1   2
BRANCH   1  12
ATOM     12  C   UNL     1      -1.025  -2.963  -4.452  0.00  0.00    -0.002 A 
ATOM     13  C   UNL     1      -0.829  -2.280  -5.606  0.00  0.00    +0.012 A 
ATOM     14  C   UNL     1       0.462  -2.093  -6.064  0.00  0.00    +0.008 A 
ATOM     15  C   UNL     1       1.494  -2.599  -5.346  0.00  0.00    +0.045 A 
ATOM     16  S   UNL     1       0.648  -3.362  -3.971  0.00  0.00    -0.101 S 
ENDBRANCH   1  12
BRANCH   1  17
ATOM     17  C   UNL     1      -2.316  -2.672  -2.355  0.00  0.00    +0.119 C 
BRANCH  17  18
ATOM     18  N   UNL     1      -2.300  -1.212  -2.470  0.00  0.00    -0.189 NA
ATOM     19  H   UNL     1      -2.076  -0.794  -3.317  0.00  0.00    +0.148 HD
BRANCH  18  20
ATOM     20  S   UNL     1      -2.666  -0.273  -1.156  0.00  0.00    +0.059 S 
ATOM     21  O   UNL     1      -3.870  -0.792  -0.609  0.00  0.00    -0.153 OA
ATOM     22  O   UNL     1      -2.539   1.079  -1.574  0.00  0.00    -0.153 OA
BRANCH  20  25
ATOM     23  C   UNL     1      -0.019   1.526   0.010  0.00  0.00    +0.047 C 
ATOM     24  C   UNL     1       0.002  -0.004   0.002  0.00  0.00    +0.196 C 
ATOM     25  C   UNL     1      -1.407  -0.548   0.046  0.00  0.00    +0.134 C 
ATOM     26  C   UNL     1      -1.526  -1.263   1.145  0.00  0.00    +0.061 C 
ATOM     27  N   UNL     1      -0.345  -1.271   1.865  0.00  0.00    -0.268 N 
ATOM     28  O   UNL     1       0.636  -0.500   1.190  0.00  0.00    -0.265 OA
ATOM     29  C   UNL     1      -2.784  -1.980   1.564  0.00  0.00    +0.067 C 
ATOM     30  H   UNL     1      -0.208  -1.735   2.706  0.00  0.00    +0.194 HD
ENDBRANCH  20  25
ENDBRANCH  18  20
ENDBRANCH  17  18
ENDBRANCH   1  17
TORSDOF 6
