REMARK  Name = ZINC39694878
REMARK  9 active torsions:
REMARK  status: ('A' for Active; 'I' for Inactive)
REMARK    1  A    between atoms: C_1  and  C_2
REMARK    2  A    between atoms: C_4  and  C_39
REMARK    3  A    between atoms: C_6  and  C_8
REMARK    4  A    between atoms: C_8  and  N_9
REMARK    5  A    between atoms: C_10  and  C_12
REMARK    6  A    between atoms: C_23  and  C_25
REMARK    7  A    between atoms: C_25  and  O_26
REMARK    8  A    between atoms: O_26  and  C_27
REMARK    9  A    between atoms: C_37  and  C_38
REMARK                            x       y       z     vdW  Elec       q    Type
REMARK                         _______ _______ _______ _____ _____    ______ ____
ROOT
ATOM      1  C   UNL     1       3.127  -3.974   4.472  0.00  0.00    +0.100 C 
ATOM      2  C   UNL     1       3.823  -4.956   3.503  0.00  0.00    +0.121 C 
ATOM      3  N   UNL     1       4.693  -5.784   4.371  0.00  0.00    -0.297 N 
ATOM      4  C   UNL     1       3.884  -6.016   5.591  0.00  0.00    +0.115 C 
ATOM      5  C   UNL     1       3.168  -4.673   5.841  0.00  0.00    -0.004 C 
ATOM      6  C   UNL     1       1.752  -4.919   6.352  0.00  0.00    -0.010 C 
ATOM      7  C   UNL     1       1.819  -5.562   7.740  0.00  0.00    -0.082 C 
ATOM      8  N   UNL     1       2.545  -4.676   8.658  0.00  0.00    +0.379 N 
ATOM      9  C   UNL     1       3.934  -4.520   8.209  0.00  0.00    -0.082 C 
ATOM     10  C   UNL     1       3.956  -3.833   6.841  0.00  0.00    -0.010 C 
ATOM     11  C   UNL     1       5.940  -6.226   4.110  0.00  0.00    +0.253 C 
ATOM     12  O   UNL     1       6.528  -6.901   4.929  0.00  0.00    -0.272 OA
ATOM     13  H   UNL     1       2.096  -3.773   8.677  0.00  0.00    -0.086 HD
ATOM     14  H   UNL     1       2.535  -5.073   9.585  0.00  0.00    -0.086 HD
ENDROOT
BRANCH   1  16
ATOM     15  N   UNL     1       1.096  -2.569   4.333  0.00  0.00    -0.311 N 
ATOM     16  C   UNL     1       1.701  -3.739   4.046  0.00  0.00    +0.218 C 
ATOM     17  O   UNL     1       1.098  -4.602   3.444  0.00  0.00    -0.275 OA
ATOM     18  H   UNL     1       1.578  -1.879   4.814  0.00  0.00    +0.149 HD
BRANCH  15  19
ATOM     19  C   UNL     1      -0.291  -2.340   3.919  0.00  0.00    +0.139 C 
BRANCH  19  25
ATOM     20  C   UNL     1      -2.353   0.660   7.352  0.00  0.00    +0.044 C 
ATOM     21  C   UNL     1      -1.714   0.469   6.001  0.00  0.00    -0.050 A 
ATOM     22  C   UNL     1      -1.527   1.554   5.165  0.00  0.00    +0.006 A 
ATOM     23  C   UNL     1      -0.941   1.379   3.925  0.00  0.00    -0.050 A 
ATOM     24  C   UNL     1      -0.541   0.118   3.522  0.00  0.00    +0.008 A 
ATOM     25  C   UNL     1      -0.727  -0.967   4.359  0.00  0.00    -0.030 A 
ATOM     26  C   UNL     1      -1.309  -0.790   5.600  0.00  0.00    +0.008 A 
ATOM     27  C   UNL     1      -0.739   2.561   3.013  0.00  0.00    +0.044 C 
ENDBRANCH  19  25
ENDBRANCH  15  19
ENDBRANCH   1  16
BRANCH  11  28
ATOM     28  C   UNL     1       6.603  -5.881   2.801  0.00  0.00    +0.324 C 
BRANCH  28  29
ATOM     29  O   UNL     1       7.909  -6.460   2.762  0.00  0.00    -0.479 OA
BRANCH  29  30
ATOM     30  C   UNL     1       8.646  -6.243   1.641  0.00  0.00    +0.164 A 
ATOM     31  C   UNL     1       8.128  -5.486   0.606  0.00  0.00    +0.049 A 
ATOM     32  C   UNL     1       8.871  -5.258  -0.543  0.00  0.00    +0.004 A 
ATOM     33  C   UNL     1      10.138  -5.782  -0.669  0.00  0.00    +0.012 A 
ATOM     34  C   UNL     1      10.677  -6.550   0.368  0.00  0.00    +0.024 A 
ATOM     35  C   UNL     1       9.929  -6.778   1.535  0.00  0.00    +0.181 A 
ATOM     36  O   UNL     1      10.454  -7.516   2.537  0.00  0.00    -0.418 OA
ATOM     37  C   UNL     1      11.687  -8.038   2.451  0.00  0.00    +0.338 A 
ATOM     38  O   UNL     1      12.118  -8.697   3.380  0.00  0.00    -0.245 OA
ATOM     39  C   UNL     1      12.496  -7.844   1.310  0.00  0.00    +0.096 A 
ATOM     40  C   UNL     1      12.023  -7.122   0.263  0.00  0.00    -0.033 A 
ATOM     41  C   UNL     1      12.865  -6.899  -0.967  0.00  0.00    +0.045 C 
ENDBRANCH  29  30
ENDBRANCH  28  29
ENDBRANCH  11  28
TORSDOF 6
