REMARK  Name = ZINC36092915
REMARK  10 active torsions:
REMARK  status: ('A' for Active; 'I' for Inactive)
REMARK    1  A    between atoms: C_1  and  C_2
REMARK    2  A    between atoms: C_7  and  N_12
REMARK    3  A    between atoms: C_9  and  C_11
REMARK    4  A    between atoms: C_13  and  C_15
REMARK    5  A    between atoms: C_15  and  C_16
REMARK    6  A    between atoms: C_16  and  C_17
REMARK    7  A    between atoms: C_17  and  C_18
REMARK    8  A    between atoms: C_18  and  N_19
REMARK    9  A    between atoms: C_26  and  O_32
REMARK   10  A    between atoms: O_32  and  C_33
REMARK                            x       y       z     vdW  Elec       q    Type
REMARK                         _______ _______ _______ _____ _____    ______ ____
ROOT
ATOM      1  N   UNL     1       5.368  -8.018   5.496  0.00  0.00    -0.287 N 
ATOM      2  C   UNL     1       6.680  -7.750   5.640  0.00  0.00    +0.279 A 
ATOM      3  O   UNL     1       7.273  -7.109   4.791  0.00  0.00    -0.265 OA
ATOM      4  C   UNL     1       7.366  -8.221   6.790  0.00  0.00    +0.129 A 
ATOM      5  C   UNL     1       6.657  -8.944   7.731  0.00  0.00    +0.079 A 
ATOM      6  C   UNL     1       7.600  -9.296   8.793  0.00  0.00    +0.027 A 
ATOM      7  C   UNL     1       7.482 -10.008   9.991  0.00  0.00    +0.057 A 
ATOM      8  C   UNL     1       8.587 -10.172  10.800  0.00  0.00    +0.121 A 
ATOM      9  C   UNL     1       9.816  -9.632  10.428  0.00  0.00    +0.047 A 
ATOM     10  C   UNL     1       9.945  -8.930   9.252  0.00  0.00    +0.030 A 
ATOM     11  C   UNL     1       8.843  -8.752   8.420  0.00  0.00    +0.049 A 
ATOM     12  N   UNL     1       8.681  -8.109   7.211  0.00  0.00    -0.349 N 
ATOM     13  H   UNL     1       9.383  -7.647   6.728  0.00  0.00    +0.166 HD
ATOM     14  N   UNL     1       5.311  -9.189   7.528  0.00  0.00    -0.333 N 
ATOM     15  C   UNL     1       4.696  -8.720   6.426  0.00  0.00    +0.161 A 
ATOM     16  S   UNL     1       3.027  -9.028   6.201  0.00  0.00    -0.013 S 
ATOM     17  H   UNL     1       4.807  -9.697   8.184  0.00  0.00    +0.168 HD
ENDROOT
BRANCH   8  18
ATOM     18  O   UNL     1       8.476 -10.863  11.966  0.00  0.00    -0.495 OA
ATOM     19  C   UNL     1       9.659 -10.996  12.757  0.00  0.00    +0.277 C 
ENDBRANCH   8  18
BRANCH   1  20
ATOM     20  C   UNL     1       4.659  -7.533   4.309  0.00  0.00    +0.127 C 
BRANCH  20  21
ATOM     21  C   UNL     1       4.092  -6.140   4.588  0.00  0.00    +0.022 C 
BRANCH  21  22
ATOM     22  C   UNL     1       3.352  -5.633   3.348  0.00  0.00    +0.011 C 
BRANCH  22  23
ATOM     23  C   UNL     1       2.785  -4.239   3.627  0.00  0.00    +0.096 C 
BRANCH  23  25
ATOM     24  N   UNL     1       1.471  -2.526   2.420  0.00  0.00    -0.312 N 
ATOM     25  C   UNL     1       2.056  -3.740   2.406  0.00  0.00    +0.213 C 
ATOM     26  O   UNL     1       1.996  -4.431   1.411  0.00  0.00    -0.276 OA
ATOM     27  H   UNL     1       1.520  -1.974   3.216  0.00  0.00    +0.149 HD
BRANCH  24  33
ATOM     28  C   UNL     1      -0.019   1.526   0.010  0.00  0.00    +0.008 C 
ATOM     29  C   UNL     1       0.002  -0.004   0.002  0.00  0.00    -0.009 C 
ATOM     30  C   UNL     1      -1.433  -0.534   0.013  0.00  0.00    +0.003 C 
ATOM     31  C   UNL     1      -1.413  -2.063   0.004  0.00  0.00    +0.002 C 
ATOM     32  C   UNL     1      -0.673  -2.570   1.244  0.00  0.00    +0.022 C 
ATOM     33  C   UNL     1       0.763  -2.041   1.233  0.00  0.00    +0.076 C 
ATOM     34  C   UNL     1       0.742  -0.511   1.242  0.00  0.00    +0.009 C 
ATOM     35  C   UNL     1       0.026  -0.018   2.500  0.00  0.00    +0.009 C 
ENDBRANCH  24  33
ENDBRANCH  23  25
ENDBRANCH  22  23
ENDBRANCH  21  22
ENDBRANCH  20  21
ENDBRANCH   1  20
TORSDOF 7
