REMARK  Name = ZINC04639681
REMARK  6 active torsions:
REMARK  status: ('A' for Active; 'I' for Inactive)
REMARK    1  A    between atoms: C_1  and  C_2
REMARK    2  A    between atoms: C_7  and  C_22
REMARK    3  A    between atoms: C_9  and  N_21
REMARK    4  A    between atoms: C_10  and  C_19
REMARK    5  A    between atoms: C_11  and  C_13
REMARK    6  A    between atoms: C_26  and  O_28
REMARK                            x       y       z     vdW  Elec       q    Type
REMARK                         _______ _______ _______ _____ _____    ______ ____
ROOT
ATOM      1  C   UNL     1       2.977   7.970   3.108  0.00  0.00    +0.069 C 
ATOM      2  C   UNL     1       1.967   6.992   2.563  0.00  0.00    +0.085 A 
ATOM      3  C   UNL     1       1.562   6.854   1.229  0.00  0.00    +0.031 A 
ATOM      4  C   UNL     1       0.649   5.852   1.252  0.00  0.00    +0.154 A 
ATOM      5  O   UNL     1       0.553   5.458   2.520  0.00  0.00    -0.358 OA
ATOM      6  N   UNL     1       1.292   6.101   3.239  0.00  0.00    -0.083 NA
ATOM      7  C   UNL     1      -0.065   5.351   0.029  0.00  0.00    +0.131 C 
ATOM      8  C   UNL     1       0.620   5.864  -1.205  0.00  0.00    +0.015 C 
ATOM      9  C   UNL     1       1.518   6.848  -1.222  0.00  0.00    +0.057 C 
ATOM     10  C   UNL     1       1.984   7.593  -0.003  0.00  0.00    +0.096 C 
ENDROOT
BRANCH  10  11
ATOM     11  C   UNL     1       1.374   8.972   0.006  0.00  0.00    -0.035 A 
ATOM     12  C   UNL     1       0.000   9.119   0.025  0.00  0.00    +0.004 A 
ATOM     13  C   UNL     1      -0.559  10.383   0.039  0.00  0.00    +0.000 A 
ATOM     14  C   UNL     1       0.256  11.500   0.022  0.00  0.00    +0.000 A 
ATOM     15  C   UNL     1       1.630  11.352  -0.002  0.00  0.00    +0.000 A 
ATOM     16  C   UNL     1       2.189  10.088  -0.010  0.00  0.00    +0.004 A 
ENDBRANCH  10  11
BRANCH   7  17
ATOM     17  C   UNL     1      -0.049   3.844   0.022  0.00  0.00    -0.028 A 
ATOM     18  C   UNL     1       1.156   3.166   0.007  0.00  0.00    +0.005 A 
ATOM     19  C   UNL     1       1.174   1.783   0.000  0.00  0.00    +0.004 A 
ATOM     20  C   UNL     1      -0.013   1.076   0.008  0.00  0.00    +0.045 A 
ATOM     21  C   UNL     1      -1.223   1.754   0.017  0.00  0.00    +0.117 A 
ATOM     22  C   UNL     1      -1.238   3.141   0.029  0.00  0.00    +0.050 A 
BRANCH  21  23
ATOM     23  O   UNL     1      -2.391   1.060   0.019  0.00  0.00    -0.507 OA
ATOM     24  H   UNL     1      -3.351   1.598   0.027  0.00  0.00    +0.292 HD
ENDBRANCH  21  23
ENDBRANCH   7  17
BRANCH   8  25
ATOM     25  N   UNL     1       0.298   5.277  -2.401  0.00  0.00    -0.418 NA
ATOM     26  H   UNL     1       0.874   5.752  -3.209  0.00  0.00    +0.120 HD
ATOM     27  H   UNL     1      -0.777   5.403  -2.594  0.00  0.00    +0.120 HD
ATOM     28  H   UNL     1       0.540   4.204  -2.360  0.00  0.00    +0.120 HD
ENDBRANCH   8  25
BRANCH   9  29
ATOM     29  C   UNL     1       2.077   7.219  -2.487  0.00  0.00    +0.097 C 
ATOM     30  N   UNL     1       2.521   7.514  -3.490  0.00  0.00    -0.191 NA
ENDBRANCH   9  29
TORSDOF 5
