REMARK  Name = ZINC36512944
REMARK  15 active torsions:
REMARK  status: ('A' for Active; 'I' for Inactive)
REMARK    1  A    between atoms: C_1  and  C_2
REMARK    2  A    between atoms: C_2  and  C_3
REMARK    3  A    between atoms: C_3  and  C_4
REMARK    4  A    between atoms: C_4  and  C_5
REMARK    5  A    between atoms: C_5  and  C_6
REMARK    6  A    between atoms: C_6  and  N_7
REMARK    7  A    between atoms: N_7  and  C_8
REMARK    8  A    between atoms: C_8  and  C_10
REMARK    9  A    between atoms: C_8  and  C_17
REMARK   10  A    between atoms: C_13  and  O_16
REMARK   11  A    between atoms: N_19  and  C_20
REMARK   12  A    between atoms: C_20  and  S_21
REMARK   13  A    between atoms: S_21  and  C_24
REMARK   14  A    between atoms: C_27  and  C_30
REMARK   15  A    between atoms: C_31  and  C_33
REMARK                            x       y       z     vdW  Elec       q    Type
REMARK                         _______ _______ _______ _____ _____    ______ ____
ROOT
ATOM      1  C   UNL     1       1.479  -4.713   4.866  0.00  0.00    +0.193 C 
ENDROOT
BRANCH   1   2
ATOM      2  C   UNL     1       1.921  -3.761   5.948  0.00  0.00    -0.018 A 
ATOM      3  C   UNL     1       2.830  -4.175   6.903  0.00  0.00    +0.009 A 
ATOM      4  C   UNL     1       3.236  -3.304   7.896  0.00  0.00    +0.046 A 
ATOM      5  C   UNL     1       2.730  -2.013   7.933  0.00  0.00    +0.117 A 
ATOM      6  C   UNL     1       1.818  -1.599   6.973  0.00  0.00    +0.046 A 
ATOM      7  C   UNL     1       1.419  -2.473   5.979  0.00  0.00    +0.009 A 
BRANCH   5   8
ATOM      8  O   UNL     1       3.128  -1.154   8.909  0.00  0.00    -0.507 OA
ATOM      9  H   UNL     1       3.907  -0.630   8.678  0.00  0.00    +0.292 HD
ENDBRANCH   5   8
ENDBRANCH   1   2
BRANCH   1  10
ATOM     10  C   UNL     1       1.422  -6.113   5.422  0.00  0.00    +0.239 C 
ATOM     11  O   UNL     1       2.111  -6.986   4.939  0.00  0.00    -0.273 OA
ATOM     12  N   UNL     1       0.606  -6.394   6.457  0.00  0.00    -0.294 N 
ATOM     13  H   UNL     1       0.055  -5.696   6.844  0.00  0.00    +0.150 HD
BRANCH  12  14
ATOM     14  C   UNL     1       0.550  -7.755   6.998  0.00  0.00    +0.278 C 
BRANCH  14  15
ATOM     15  S   UNL     1       1.677  -7.890   8.412  0.00  0.00    +0.013 S 
ATOM     16  O   UNL     1       1.588  -9.186   8.988  0.00  0.00    -0.168 OA
ATOM     17  O   UNL     1       2.941  -7.327   8.087  0.00  0.00    -0.168 OA
BRANCH  15  18
ATOM     18  C   UNL     1       1.005  -6.810   9.632  0.00  0.00    +0.090 A 
ATOM     19  C   UNL     1       1.393  -5.484   9.670  0.00  0.00    +0.027 A 
ATOM     20  C   UNL     1       0.866  -4.636  10.626  0.00  0.00    +0.005 A 
ATOM     21  C   UNL     1      -0.050  -5.115  11.544  0.00  0.00    -0.050 A 
ATOM     22  C   UNL     1      -0.439  -6.441  11.506  0.00  0.00    +0.005 A 
ATOM     23  C   UNL     1       0.085  -7.287  10.547  0.00  0.00    +0.027 A 
ATOM     24  C   UNL     1      -0.624  -4.192  12.588  0.00  0.00    +0.044 C 
ENDBRANCH  15  18
ENDBRANCH  14  15
ENDBRANCH  12  14
ENDBRANCH   1  10
BRANCH   1  25
ATOM     25  N   UNL     1       2.434  -4.668   3.756  0.00  0.00    -0.279 N 
ATOM     26  C   UNL     1       3.728  -4.979   3.967  0.00  0.00    +0.283 C 
ATOM     27  O   UNL     1       4.087  -5.386   5.056  0.00  0.00    -0.267 OA
BRANCH  26  28
ATOM     28  C   UNL     1       4.705  -4.827   2.883  0.00  0.00    +0.189 A 
ATOM     29  C   UNL     1       6.016  -5.207   2.925  0.00  0.00    +0.054 A 
ATOM     30  C   UNL     1       6.572  -4.876   1.680  0.00  0.00    +0.042 A 
ATOM     31  C   UNL     1       5.589  -4.315   0.942  0.00  0.00    +0.196 A 
ATOM     32  O   UNL     1       4.464  -4.292   1.668  0.00  0.00    -0.458 OA
ENDBRANCH  26  28
BRANCH  25  33
ATOM     33  C   UNL     1       1.982  -4.284   2.417  0.00  0.00    +0.109 C 
BRANCH  33  34
ATOM     34  C   UNL     1       2.200  -2.783   2.215  0.00  0.00    +0.019 C 
BRANCH  34  35
ATOM     35  C   UNL     1       1.728  -2.383   0.816  0.00  0.00    +0.002 C 
BRANCH  35  36
ATOM     36  C   UNL     1       1.946  -0.882   0.614  0.00  0.00    -0.000 C 
BRANCH  36  38
ATOM     37  C   UNL     1       1.692   1.020  -0.987  0.00  0.00    +0.004 C 
ATOM     38  C   UNL     1       1.474  -0.481  -0.785  0.00  0.00    -0.003 C 
ENDBRANCH  36  38
ENDBRANCH  35  36
ENDBRANCH  34  35
ENDBRANCH  33  34
ENDBRANCH  25  33
ENDBRANCH   1  25
TORSDOF 13
