REMARK  Name = ZINC09460302
REMARK  11 active torsions:
REMARK  status: ('A' for Active; 'I' for Inactive)
REMARK    1  A    between atoms: C_1  and  C_2
REMARK    2  A    between atoms: C_2  and  O_3
REMARK    3  A    between atoms: O_3  and  C_4
REMARK    4  A    between atoms: C_9  and  C_10
REMARK    5  A    between atoms: C_10  and  N_11
REMARK    6  A    between atoms: C_12  and  C_14
REMARK    7  A    between atoms: C_19  and  S_20
REMARK    8  A    between atoms: S_20  and  C_21
REMARK    9  A    between atoms: C_21  and  C_22
REMARK   10  A    between atoms: C_22  and  C_29
REMARK   11  A    between atoms: C_31  and  C_34
REMARK                            x       y       z     vdW  Elec       q    Type
REMARK                         _______ _______ _______ _____ _____    ______ ____
ROOT
ATOM      1  N   UNL     1      -3.683   3.175   0.052  0.00  0.00    -0.307 N 
ATOM      2  C   UNL     1      -2.524   3.863   0.045  0.00  0.00    +0.245 C 
ATOM      3  O   UNL     1      -2.538   5.079   0.051  0.00  0.00    -0.270 OA
ATOM      4  H   UNL     1      -3.671   2.206   0.047  0.00  0.00    +0.149 HD
ENDROOT
BRANCH   2   5
ATOM      5  C   UNL     1      -1.238   3.142   0.030  0.00  0.00    +0.050 A 
ATOM      6  C   UNL     1      -1.217   1.744   0.017  0.00  0.00    +0.014 A 
ATOM      7  C   UNL     1      -0.013   1.076   0.008  0.00  0.00    +0.001 A 
ATOM      8  C   UNL     1       1.181   1.782   0.000  0.00  0.00    +0.001 A 
ATOM      9  C   UNL     1       1.177   3.160   0.008  0.00  0.00    +0.015 A 
ATOM     10  C   UNL     1      -0.028   3.854   0.023  0.00  0.00    +0.020 A 
BRANCH  10  11
ATOM     11  S   UNL     1      -0.037   5.616   0.033  0.00  0.00    -0.122 S 
BRANCH  11  12
ATOM     12  C   UNL     1       1.721   6.063   0.019  0.00  0.00    +0.109 C 
BRANCH  12  13
ATOM     13  C   UNL     1       1.859   7.587   0.027  0.00  0.00    +0.119 C 
ATOM     14  C   UNL     1       3.318   7.990  -0.055  0.00  0.00    +0.244 C 
ATOM     15  O   UNL     1       4.095   7.750  -0.954  0.00  0.00    -0.273 OA
ATOM     16  N   UNL     1       3.572   8.673   1.079  0.00  0.00    -0.238 N 
ATOM     17  C   UNL     1       2.487   8.756   1.858  0.00  0.00    +0.307 C 
ATOM     18  O   UNL     1       2.469   9.323   2.933  0.00  0.00    -0.252 OA
ATOM     19  N   UNL     1       1.415   8.141   1.317  0.00  0.00    -0.285 N 
ATOM     20  C   UNL     1       1.065   8.204  -1.126  0.00  0.00    +0.042 C 
ATOM     21  H   UNL     1       4.434   9.057   1.303  0.00  0.00    +0.159 HD
ATOM     22  H   UNL     1       0.527   8.076   1.701  0.00  0.00    +0.151 HD
ENDBRANCH  12  13
ENDBRANCH  11  12
ENDBRANCH  10  11
ENDBRANCH   2   5
BRANCH   1  23
ATOM     23  C   UNL     1      -4.960   3.893   0.067  0.00  0.00    +0.143 C 
BRANCH  23  29
ATOM     24  C   UNL     1      -6.461   2.278   1.256  0.00  0.00    +0.126 A 
ATOM     25  C   UNL     1      -7.512   1.371   1.257  0.00  0.00    +0.053 A 
ATOM     26  C   UNL     1      -8.176   1.086   0.085  0.00  0.00    +0.001 A 
ATOM     27  C   UNL     1      -7.808   1.696  -1.108  0.00  0.00    +0.125 A 
ATOM     28  C   UNL     1      -6.758   2.610  -1.102  0.00  0.00    +0.054 A 
ATOM     29  C   UNL     1      -6.094   2.900   0.072  0.00  0.00    +0.015 A 
ATOM     30  O   UNL     1      -8.581   1.262  -2.142  0.00  0.00    -0.488 OA
ATOM     31  C   UNL     1      -9.784   0.672  -1.620  0.00  0.00    +0.175 C 
ATOM     32  C   UNL     1      -9.340   0.166  -0.227  0.00  0.00    +0.083 C 
ATOM     33  C   UNL     1     -10.242  -0.493  -2.499  0.00  0.00    +0.052 C 
BRANCH  24  34
ATOM     34  O   UNL     1      -5.799   2.559   2.410  0.00  0.00    -0.492 OA
BRANCH  34  36
ATOM     35  C   UNL     1      -5.377   2.321   4.777  0.00  0.00    +0.048 C 
ATOM     36  C   UNL     1      -6.234   1.879   3.589  0.00  0.00    +0.225 C 
ENDBRANCH  34  36
ENDBRANCH  24  34
ENDBRANCH  23  29
ENDBRANCH   1  23
TORSDOF 8
