REMARK  Name = ZINC00804014
REMARK  7 active torsions:
REMARK  status: ('A' for Active; 'I' for Inactive)
REMARK    1  A    between atoms: C_1  and  C_2
REMARK    2  A    between atoms: C_2  and  C_3
REMARK    3  A    between atoms: C_2  and  C_4
REMARK    4  A    between atoms: C_2  and  C_5
REMARK    5  A    between atoms: C_12  and  N_29
REMARK    6  A    between atoms: C_13  and  C_27
REMARK    7  A    between atoms: C_14  and  C_16
REMARK                            x       y       z     vdW  Elec       q    Type
REMARK                         _______ _______ _______ _____ _____    ______ ____
ROOT
ATOM      1  C   UNL     1       0.848  -0.262  -1.286  0.00  0.00    +0.049 A 
ATOM      2  C   UNL     1       0.942  -1.536  -1.694  0.00  0.00    +0.050 A 
ATOM      3  C   UNL     1       1.651  -1.555  -2.915  0.00  0.00    +0.245 A 
ATOM      4  N   UNL     1       1.966  -0.329  -3.216  0.00  0.00    -0.135 NA
ATOM      5  N   UNL     1       1.467   0.511  -2.207  0.00  0.00    -0.277 N 
ATOM      6  H   UNL     1       1.553   1.477  -2.176  0.00  0.00    +0.189 HD
ATOM      7  O   UNL     1       1.906  -2.712  -3.583  0.00  0.00    -0.421 OA
ATOM      8  C   UNL     1       1.235  -3.814  -3.194  0.00  0.00    +0.201 C 
ATOM      9  C   UNL     1       0.534  -3.918  -2.046  0.00  0.00    +0.098 C 
ATOM     10  C   UNL     1       0.424  -2.795  -1.046  0.00  0.00    +0.104 C 
ENDROOT
BRANCH  10  11
ATOM     11  C   UNL     1       1.249  -3.116   0.174  0.00  0.00    +0.003 A 
ATOM     12  C   UNL     1       2.611  -3.161   0.085  0.00  0.00    +0.017 A 
ATOM     13  C   UNL     1       3.343  -3.465   1.248  0.00  0.00    +0.001 A 
ATOM     14  C   UNL     1       4.746  -3.529   1.233  0.00  0.00    +0.010 A 
ATOM     15  C   UNL     1       5.418  -3.826   2.379  0.00  0.00    +0.001 A 
ATOM     16  C   UNL     1       4.733  -4.068   3.568  0.00  0.00    +0.002 A 
ATOM     17  C   UNL     1       3.374  -4.015   3.619  0.00  0.00    +0.028 A 
ATOM     18  C   UNL     1       2.644  -3.711   2.456  0.00  0.00    +0.073 A 
ATOM     19  N   UNL     1       1.309  -3.651   2.476  0.00  0.00    -0.235 NA
ATOM     20  C   UNL     1       0.623  -3.362   1.395  0.00  0.00    +0.134 A 
ATOM     21 CL   UNL     1      -1.109  -3.292   1.487  0.00  0.00    -0.062 Cl
ENDBRANCH  10  11
BRANCH   1  23
ATOM     22  C   UNL     1       0.143   1.752  -0.022  0.00  0.00    +0.017 C 
ATOM     23  C   UNL     1       0.169   0.222  -0.030  0.00  0.00    +0.004 C 
ATOM     24  C   UNL     1       0.938  -0.282   1.192  0.00  0.00    +0.017 C 
ATOM     25  C   UNL     1      -1.264  -0.312   0.013  0.00  0.00    +0.017 C 
ENDBRANCH   1  23
BRANCH   8  26
ATOM     26  N   UNL     1       1.266  -4.907  -4.025  0.00  0.00    -0.328 N 
ATOM     27  H   UNL     1       1.760  -4.868  -4.859  0.00  0.00    +0.145 HD
ATOM     28  H   UNL     1       0.794  -5.717  -3.777  0.00  0.00    +0.145 HD
ENDBRANCH   8  26
BRANCH   9  29
ATOM     29  C   UNL     1      -0.135  -5.152  -1.764  0.00  0.00    +0.101 C 
ATOM     30  N   UNL     1      -0.666  -6.131  -1.540  0.00  0.00    -0.191 NA
ENDBRANCH   9  29
TORSDOF 4
