REMARK  Name = ZINC28214762
REMARK  12 active torsions:
REMARK  status: ('A' for Active; 'I' for Inactive)
REMARK    1  A    between atoms: C_1  and  O_2
REMARK    2  A    between atoms: O_2  and  C_3
REMARK    3  A    between atoms: C_8  and  N_9
REMARK    4  A    between atoms: C_10  and  C_12
REMARK    5  A    between atoms: C_12  and  O_13
REMARK    6  A    between atoms: O_13  and  C_14
REMARK    7  A    between atoms: C_17  and  C_20
REMARK    8  A    between atoms: N_21  and  N_22
REMARK    9  A    between atoms: C_23  and  C_25
REMARK   10  A    between atoms: C_28  and  C_31
REMARK   11  A    between atoms: C_31  and  S_32
REMARK   12  A    between atoms: S_32  and  C_33
REMARK                            x       y       z     vdW  Elec       q    Type
REMARK                         _______ _______ _______ _____ _____    ______ ____
ROOT
ATOM      1  C   UNL     1       1.874  -7.178   0.366  0.00  0.00    +0.121 A 
ATOM      2  C   UNL     1       3.176  -6.694   0.378  0.00  0.00    +0.046 A 
ATOM      3  C   UNL     1       4.238  -7.567   0.474  0.00  0.00    +0.013 A 
ATOM      4  C   UNL     1       4.003  -8.942   0.560  0.00  0.00    -0.005 A 
ATOM      5  C   UNL     1       2.692  -9.425   0.548  0.00  0.00    +0.013 A 
ATOM      6  C   UNL     1       1.636  -8.544   0.457  0.00  0.00    +0.046 A 
ENDROOT
BRANCH   4   7
ATOM      7  C   UNL     1       5.135  -9.880   0.662  0.00  0.00    +0.138 C 
ATOM      8  N   UNL     1       4.915 -11.157   0.741  0.00  0.00    -0.187 NA
BRANCH   8   9
ATOM      9  N   UNL     1       5.991 -12.049   0.839  0.00  0.00    -0.203 N 
ATOM     10  C   UNL     1       5.763 -13.375   0.921  0.00  0.00    +0.263 C 
ATOM     11  O   UNL     1       4.622 -13.797   0.911  0.00  0.00    -0.268 OA
ATOM     12  H   UNL     1       6.901 -11.713   0.846  0.00  0.00    +0.178 HD
BRANCH  10  13
ATOM     13  C   UNL     1       6.898 -14.316   1.024  0.00  0.00    +0.038 A 
ATOM     14  C   UNL     1       8.208 -13.834   1.041  0.00  0.00    +0.013 A 
ATOM     15  C   UNL     1       9.263 -14.717   1.137  0.00  0.00    +0.005 A 
ATOM     16  C   UNL     1       9.025 -16.078   1.216  0.00  0.00    -0.037 A 
ATOM     17  C   UNL     1       7.729 -16.562   1.200  0.00  0.00    +0.005 A 
ATOM     18  C   UNL     1       6.664 -15.689   1.109  0.00  0.00    +0.013 A 
BRANCH  16  19
ATOM     19  C   UNL     1      10.182 -17.038   1.321  0.00  0.00    +0.109 C 
BRANCH  19  20
ATOM     20  S   UNL     1      10.584 -17.312   3.068  0.00  0.00    -0.121 S 
BRANCH  20  21
ATOM     21  C   UNL     1      11.938 -18.439   3.022  0.00  0.00    +0.008 A 
ATOM     22  C   UNL     1      12.432 -18.885   1.802  0.00  0.00    +0.015 A 
ATOM     23  C   UNL     1      13.493 -19.768   1.770  0.00  0.00    +0.001 A 
ATOM     24  C   UNL     1      14.063 -20.210   2.950  0.00  0.00    +0.000 A 
ATOM     25  C   UNL     1      13.574 -19.769   4.166  0.00  0.00    +0.001 A 
ATOM     26  C   UNL     1      12.517 -18.881   4.206  0.00  0.00    +0.015 A 
ENDBRANCH  20  21
ENDBRANCH  19  20
ENDBRANCH  16  19
ENDBRANCH  10  13
ENDBRANCH   8   9
ENDBRANCH   4   7
BRANCH   1  27
ATOM     27  O   UNL     1       0.831  -6.314   0.271  0.00  0.00    -0.483 OA
BRANCH  27  28
ATOM     28  C   UNL     1       1.147  -4.923   0.181  0.00  0.00    +0.324 C 
BRANCH  28  30
ATOM     29  N   UNL     1      -0.074  -2.780  -0.012  0.00  0.00    -0.280 N 
ATOM     30  C   UNL     1      -0.127  -4.124   0.083  0.00  0.00    +0.255 C 
ATOM     31  O   UNL     1      -1.200  -4.689   0.090  0.00  0.00    -0.272 OA
ATOM     32  H   UNL     1       0.783  -2.334  -0.098  0.00  0.00    +0.155 HD
BRANCH  29  38
ATOM     33  C   UNL     1      -1.294  -0.766  -0.572  0.00  0.00    +0.141 A 
ATOM     34  C   UNL     1      -2.468  -0.030  -0.548  0.00  0.00    +0.047 A 
ATOM     35  C   UNL     1      -3.596  -0.546   0.062  0.00  0.00    +0.004 A 
ATOM     36  C   UNL     1      -3.557  -1.798   0.649  0.00  0.00    +0.002 A 
ATOM     37  C   UNL     1      -2.391  -2.538   0.629  0.00  0.00    +0.027 A 
ATOM     38  C   UNL     1      -1.256  -2.029   0.014  0.00  0.00    +0.076 A 
BRANCH  33  40
ATOM     39  C   UNL     1      -0.297   1.042  -1.753  0.00  0.00    +0.277 C 
ATOM     40  O   UNL     1      -0.184  -0.259  -1.172  0.00  0.00    -0.493 OA
ENDBRANCH  33  40
ENDBRANCH  29  38
ENDBRANCH  28  30
ENDBRANCH  27  28
ENDBRANCH   1  27
TORSDOF 11
