REMARK  Name = ZINC09712665
REMARK  8 active torsions:
REMARK  status: ('A' for Active; 'I' for Inactive)
REMARK    1  A    between atoms: C_1  and  C_2
REMARK    2  A    between atoms: C_2  and  C_3
REMARK    3  A    between atoms: C_3  and  C_4
REMARK    4  A    between atoms: C_4  and  N_5
REMARK    5  A    between atoms: N_14  and  C_32
REMARK    6  A    between atoms: C_15  and  C_17
REMARK    7  A    between atoms: C_17  and  N_56
REMARK    8  A    between atoms: C_25  and  C_27
REMARK                            x       y       z     vdW  Elec       q    Type
REMARK                         _______ _______ _______ _____ _____    ______ ____
ROOT
ATOM      1  N   UNL     1      -0.675   1.545   3.712  0.00  0.00    -0.277 N 
ATOM      2  C   UNL     1      -1.678   0.778   4.282  0.00  0.00    +0.168 A 
ATOM      3  C   UNL     1      -2.313   1.248   5.425  0.00  0.00    +0.151 A 
ATOM      4  C   UNL     1      -1.918   2.489   5.970  0.00  0.00    +0.280 A 
ATOM      5  O   UNL     1      -2.460   2.922   6.972  0.00  0.00    -0.265 OA
ATOM      6  N   UNL     1      -0.934   3.189   5.370  0.00  0.00    -0.273 N 
ATOM      7  H   UNL     1      -0.653   4.070   5.751  0.00  0.00    +0.173 HD
ATOM      8  C   UNL     1      -0.325   2.721   4.267  0.00  0.00    +0.331 A 
ATOM      9  O   UNL     1       0.562   3.377   3.755  0.00  0.00    -0.246 OA
ATOM     10  N   UNL     1      -3.252   0.295   5.764  0.00  0.00    -0.327 N 
ATOM     11  C   UNL     1      -3.162  -0.690   4.849  0.00  0.00    +0.096 A 
ATOM     12  N   UNL     1      -2.231  -0.398   3.977  0.00  0.00    -0.216 NA
ATOM     13  C   UNL     1      -4.173   0.345   6.903  0.00  0.00    +0.151 C 
ENDROOT
BRANCH   1  14
ATOM     14  C   UNL     1       0.011   1.072   2.506  0.00  0.00    +0.128 C 
BRANCH  14  15
ATOM     15  C   UNL     1      -0.729   1.579   1.267  0.00  0.00    +0.021 C 
BRANCH  15  17
ATOM     16  C   UNL     1      -0.753   1.593  -1.232  0.00  0.00    +0.004 C 
ATOM     17  C   UNL     1      -0.013   1.086   0.008  0.00  0.00    -0.002 C 
ENDBRANCH  15  17
ENDBRANCH  14  15
ENDBRANCH   1  14
BRANCH  11  18
ATOM     18  C   UNL     1      -4.006  -1.938   4.833  0.00  0.00    -0.002 C 
BRANCH  18  27
ATOM     19  C   UNL     1      -4.889  -1.481   2.624  0.00  0.00    -0.072 C 
ATOM     20  C   UNL     1      -6.100  -0.839   1.926  0.00  0.00    +0.024 C 
ATOM     21  C   UNL     1      -7.317  -1.604   2.332  0.00  0.00    -0.010 A 
ATOM     22  C   UNL     1      -7.413  -2.497   3.357  0.00  0.00    -0.046 A 
ATOM     23  C   UNL     1      -8.657  -3.094   3.548  0.00  0.00    +0.010 A 
ATOM     24  C   UNL     1      -9.693  -2.775   2.737  0.00  0.00    +0.045 A 
ATOM     25  S   UNL     1      -8.944  -1.585   1.634  0.00  0.00    -0.101 S 
ATOM     26  C   UNL     1      -6.189  -2.787   4.220  0.00  0.00    +0.001 C 
ATOM     27  N   UNL     1      -5.231  -1.668   4.055  0.00  0.00    +0.392 N 
ATOM     28  H   UNL     1      -5.665  -0.807   4.407  0.00  0.00    -0.080 HD
BRANCH  26  29
ATOM     29  C   UNL     1      -6.597  -2.867   5.668  0.00  0.00    -0.019 A 
ATOM     30  C   UNL     1      -6.809  -3.963   6.436  0.00  0.00    +0.010 A 
ATOM     31  C   UNL     1      -7.182  -3.795   7.756  0.00  0.00    +0.008 A 
ATOM     32  C   UNL     1      -7.325  -2.538   8.244  0.00  0.00    +0.045 A 
ATOM     33  S   UNL     1      -6.921  -1.541   6.819  0.00  0.00    -0.103 S 
ENDBRANCH  26  29
ENDBRANCH  18  27
ENDBRANCH  11  18
TORSDOF 6
