REMARK  Name = ZINC35164922
REMARK  4 active torsions:
REMARK  status: ('A' for Active; 'I' for Inactive)
REMARK    1  A    between atoms: C_5  and  N_7
REMARK    2  A    between atoms: N_7  and  C_8
REMARK    3  A    between atoms: C_8  and  C_9
REMARK    4  A    between atoms: C_12  and  C_14
REMARK                            x       y       z     vdW  Elec       q    Type
REMARK                         _______ _______ _______ _____ _____    ______ ____
ROOT
ATOM      1  C   UNL     1       0.280  -4.307  -0.024  0.00  0.00    +0.066 A 
ATOM      2  C   UNL     1       0.321  -5.002   1.144  0.00  0.00    +0.072 A 
ATOM      3  S   UNL     1       0.703  -6.641   0.539  0.00  0.00    -0.075 S 
ATOM      4  C   UNL     1       0.766  -6.223  -1.198  0.00  0.00    +0.109 A 
ATOM      5  N   UNL     1       0.496  -4.926  -1.161  0.00  0.00    -0.242 NA
ENDROOT
BRANCH   4   6
ATOM      6  C   UNL     1       1.040  -7.092  -2.363  0.00  0.00    +0.007 A 
ATOM      7  C   UNL     1       1.048  -6.554  -3.651  0.00  0.00    +0.013 A 
ATOM      8  C   UNL     1       1.304  -7.369  -4.734  0.00  0.00    +0.039 A 
ATOM      9  C   UNL     1       1.553  -8.719  -4.545  0.00  0.00    +0.123 A 
ATOM     10  C   UNL     1       1.547  -9.258  -3.268  0.00  0.00    +0.039 A 
ATOM     11  C   UNL     1       1.298  -8.451  -2.178  0.00  0.00    +0.013 A 
ATOM     12  F   UNL     1       1.803  -9.513  -5.609  0.00  0.00    -0.205 F 
ENDBRANCH   4   6
BRANCH   1  13
ATOM     13  C   UNL     1      -0.019  -2.830  -0.013  0.00  0.00    +0.157 C 
BRANCH  13  14
ATOM     14  N   UNL     1       1.238  -2.078  -0.021  0.00  0.00    -0.337 N 
ATOM     15  H   UNL     1       2.085  -2.549  -0.032  0.00  0.00    +0.146 HD
BRANCH  14  20
ATOM     16  C   UNL     1      -0.017   1.377   0.010  0.00  0.00    +0.002 A 
ATOM     17  C   UNL     1       1.171   2.086   0.002  0.00  0.00    +0.001 A 
ATOM     18  C   UNL     1       2.380   1.416  -0.013  0.00  0.00    +0.016 A 
ATOM     19  C   UNL     1       2.406   0.035  -0.021  0.00  0.00    +0.034 A 
ATOM     20  C   UNL     1       1.215  -0.681  -0.013  0.00  0.00    +0.041 A 
ATOM     21  C   UNL     1       0.002  -0.004   0.002  0.00  0.00    +0.024 A 
ATOM     22  I   UNL     1       4.239  -0.979  -0.044  0.00  0.00    -0.042 I 
ENDBRANCH  14  20
ENDBRANCH  13  14
ENDBRANCH   1  13
TORSDOF 4
