REMARK  Name = ZINC60154541
REMARK  10 active torsions:
REMARK  status: ('A' for Active; 'I' for Inactive)
REMARK    1  A    between atoms: C_1  and  C_2
REMARK    2  A    between atoms: C_2  and  N_3
REMARK    3  A    between atoms: N_3  and  C_4
REMARK    4  A    between atoms: N_3  and  C_6
REMARK    5  A    between atoms: C_4  and  C_5
REMARK    6  A    between atoms: C_6  and  C_8
REMARK    7  A    between atoms: C_6  and  C_32
REMARK    8  A    between atoms: C_8  and  N_9
REMARK    9  A    between atoms: C_10  and  C_12
REMARK   10  A    between atoms: C_16  and  N_18
REMARK                            x       y       z     vdW  Elec       q    Type
REMARK                         _______ _______ _______ _____ _____    ______ ____
ROOT
ATOM      1  C   UNL     1      -1.012  -4.730   0.643  0.00  0.00    +0.039 A 
ATOM      2  C   UNL     1      -1.525  -5.000   1.913  0.00  0.00    +0.013 A 
ATOM      3  C   UNL     1      -1.542  -6.295   2.390  0.00  0.00    +0.003 A 
ATOM      4  C   UNL     1      -1.052  -7.328   1.614  0.00  0.00    +0.025 A 
ATOM      5  C   UNL     1      -0.538  -7.070   0.349  0.00  0.00    +0.057 A 
ATOM      6  C   UNL     1      -0.522  -5.773  -0.142  0.00  0.00    +0.038 A 
ENDROOT
BRANCH   5   7
ATOM      7  N   UNL     1      -0.042  -8.120  -0.433  0.00  0.00    -0.188 N 
ATOM      8  C   UNL     1       0.559  -9.173   0.158  0.00  0.00    +0.240 C 
ATOM      9  O   UNL     1       0.717  -9.190   1.360  0.00  0.00    -0.273 OA
ATOM     10  C   UNL     1       1.031 -10.329  -0.684  0.00  0.00    +0.093 C 
ATOM     11  C   UNL     1       1.072 -11.611   0.149  0.00  0.00    +0.040 C 
ATOM     12  C   UNL     1       1.294 -12.792  -0.754  0.00  0.00    -0.030 C 
ATOM     13  C   UNL     1       1.109 -12.771  -2.035  0.00  0.00    -0.030 C 
ATOM     14  C   UNL     1       0.652 -11.562  -2.802  0.00  0.00    +0.040 C 
ATOM     15  C   UNL     1       0.049 -10.533  -1.847  0.00  0.00    +0.092 C 
ATOM     16  C   UNL     1      -0.164  -9.217  -2.546  0.00  0.00    +0.234 C 
ATOM     17  O   UNL     1      -0.328  -9.183  -3.747  0.00  0.00    -0.274 OA
ATOM     18  N   UNL     1      -0.175  -8.077  -1.827  0.00  0.00    -0.227 N 
ATOM     19  H   UNL     1      -0.274  -7.224  -2.278  0.00  0.00    +0.173 HD
ENDBRANCH   5   7
BRANCH   1  21
ATOM     20  N   UNL     1      -1.365  -2.324   0.930  0.00  0.00    -0.313 N 
ATOM     21  C   UNL     1      -0.993  -3.343   0.130  0.00  0.00    +0.244 C 
ATOM     22  O   UNL     1      -0.641  -3.123  -1.012  0.00  0.00    -0.270 OA
ATOM     23  H   UNL     1      -1.575  -2.490   1.862  0.00  0.00    +0.149 HD
BRANCH  20  24
ATOM     24  C   UNL     1      -1.451  -0.964   0.391  0.00  0.00    +0.094 C 
BRANCH  24  25
ATOM     25  C   UNL     1      -1.750   0.017   1.526  0.00  0.00    -0.020 C 
BRANCH  25  26
ATOM     26  C   UNL     1      -1.736   1.425   0.990  0.00  0.00    -0.059 A 
ATOM     27  C   UNL     1      -1.944   1.654  -0.357  0.00  0.00    +0.002 A 
ATOM     28  C   UNL     1      -1.931   2.946  -0.848  0.00  0.00    +0.000 A 
ATOM     29  C   UNL     1      -1.709   4.009   0.007  0.00  0.00    +0.000 A 
ATOM     30  C   UNL     1      -1.502   3.780   1.355  0.00  0.00    +0.000 A 
ATOM     31  C   UNL     1      -1.519   2.488   1.847  0.00  0.00    +0.002 A 
ENDBRANCH  25  26
BRANCH  25  32
ATOM     32  N   UNL     1      -0.729  -0.120   2.573  0.00  0.00    +0.385 N 
ATOM     33  H   UNL     1      -0.423  -1.080   2.622  0.00  0.00    -0.081 HD
BRANCH  32  35
ATOM     34  C   UNL     1       0.958   0.382   0.871  0.00  0.00    -0.017 C 
ATOM     35  C   UNL     1       0.416   0.743   2.255  0.00  0.00    -0.081 C 
ENDBRANCH  32  35
BRANCH  32  36
ATOM     36  C   UNL     1      -1.298   0.280   3.867  0.00  0.00    -0.081 C 
ATOM     37  C   UNL     1      -2.339  -0.752   4.307  0.00  0.00    -0.017 C 
ENDBRANCH  32  36
ENDBRANCH  25  32
ENDBRANCH  24  25
ENDBRANCH  20  24
ENDBRANCH   1  21
TORSDOF 8
