REMARK  Name = ZINC03146796
REMARK  13 active torsions:
REMARK  status: ('A' for Active; 'I' for Inactive)
REMARK    1  A    between atoms: C_1  and  C_2
REMARK    2  A    between atoms: C_5  and  N_8
REMARK    3  A    between atoms: C_13  and  C_14
REMARK    4  A    between atoms: C_13  and  C_15
REMARK    5  A    between atoms: N_16  and  C_17
REMARK    6  A    between atoms: C_17  and  C_19
REMARK    7  A    between atoms: C_17  and  C_34
REMARK    8  A    between atoms: C_19  and  N_21
REMARK    9  A    between atoms: C_19  and  O_26
REMARK   10  A    between atoms: O_26  and  C_27
REMARK   11  A    between atoms: C_34  and  C_35
REMARK   12  A    between atoms: C_34  and  C_36
REMARK   13  A    between atoms: C_34  and  C_37
REMARK                            x       y       z     vdW  Elec       q    Type
REMARK                         _______ _______ _______ _____ _____    ______ ____
ROOT
ATOM      1  C   UNL     1       0.271  -9.098   0.405  0.00  0.00    +0.140 C 
ENDROOT
BRANCH   1  10
ATOM      2  N   UNL     1      -0.802  -4.650  -0.849  0.00  0.00    -0.270 N 
ATOM      3  C   UNL     1      -0.630  -5.614  -1.774  0.00  0.00    +0.143 C 
ATOM      4  S   UNL     1      -0.773  -5.356  -3.461  0.00  0.00    -0.018 S 
ATOM      5  N   UNL     1      -0.334  -6.794  -1.223  0.00  0.00    -0.287 N 
ATOM      6  C   UNL     1      -0.281  -6.738   0.084  0.00  0.00    +0.089 C 
ATOM      7  C   UNL     1      -0.583  -5.300   0.456  0.00  0.00    +0.087 C 
ATOM      8  C   UNL     1      -1.845  -5.221   1.317  0.00  0.00    +0.039 C 
ATOM      9  C   UNL     1       0.607  -4.667   1.180  0.00  0.00    +0.039 C 
ATOM     10  N   UNL     1      -0.006  -7.760   0.934  0.00  0.00    -0.325 N 
ATOM     11  H   UNL     1       0.007  -7.605   1.891  0.00  0.00    +0.147 HD
ATOM     12  H   UNL     1      -0.177  -7.603  -1.734  0.00  0.00    +0.155 HD
BRANCH   2  17
ATOM     13  C   UNL     1      -2.084   0.796  -1.782  0.00  0.00    +0.044 C 
ATOM     14  C   UNL     1      -1.744  -0.651  -1.534  0.00  0.00    -0.050 A 
ATOM     15  C   UNL     1      -2.713  -1.624  -1.691  0.00  0.00    +0.005 A 
ATOM     16  C   UNL     1      -2.404  -2.951  -1.465  0.00  0.00    +0.024 A 
ATOM     17  C   UNL     1      -1.118  -3.307  -1.079  0.00  0.00    +0.036 A 
ATOM     18  C   UNL     1      -0.147  -2.327  -0.923  0.00  0.00    +0.024 A 
ATOM     19  C   UNL     1      -0.461  -1.002  -1.155  0.00  0.00    +0.005 A 
ENDBRANCH   2  17
ENDBRANCH   1  10
BRANCH   1  20
ATOM     20  C   UNL     1      -1.047  -9.839   0.174  0.00  0.00    -0.014 C 
ATOM     21  C   UNL     1      -1.959  -8.991  -0.715  0.00  0.00    +0.012 C 
ATOM     22  C   UNL     1      -0.767 -11.178  -0.512  0.00  0.00    +0.012 C 
ATOM     23  C   UNL     1      -1.734 -10.089   1.518  0.00  0.00    +0.012 C 
ENDBRANCH   1  20
BRANCH   1  24
ATOM     24  C   UNL     1       1.125  -9.876   1.409  0.00  0.00    +0.315 C 
BRANCH  24  25
ATOM     25  N   UNL     1       2.325  -9.101   1.734  0.00  0.00    -0.211 N 
ATOM     26  C   UNL     1       2.744  -8.742   2.959  0.00  0.00    +0.223 A 
ATOM     27  N   UNL     1       3.853  -8.061   2.826  0.00  0.00    -0.223 NA
ATOM     28  C   UNL     1       4.172  -7.966   1.536  0.00  0.00    +0.245 A 
ATOM     29  N   UNL     1       3.269  -8.592   0.828  0.00  0.00    -0.155 NA
ENDBRANCH  24  25
BRANCH  24  30
ATOM     30  O   UNL     1       1.507 -11.129   0.838  0.00  0.00    -0.465 OA
BRANCH  30  31
ATOM     31  C   UNL     1       1.808 -12.135   1.702  0.00  0.00    +0.124 A 
ATOM     32  C   UNL     1       2.132 -13.393   1.217  0.00  0.00    +0.047 A 
ATOM     33  C   UNL     1       2.437 -14.414   2.097  0.00  0.00    +0.023 A 
ATOM     34  C   UNL     1       2.420 -14.181   3.461  0.00  0.00    +0.041 A 
ATOM     35  C   UNL     1       2.097 -12.926   3.946  0.00  0.00    +0.023 A 
ATOM     36  C   UNL     1       1.798 -11.902   3.069  0.00  0.00    +0.047 A 
ATOM     37 CL   UNL     1       2.804 -15.465   4.564  0.00  0.00    -0.084 Cl
ENDBRANCH  30  31
ENDBRANCH  24  30
ENDBRANCH   1  24
TORSDOF 7
