REMARK  Name = ZINC39684319
REMARK  8 active torsions:
REMARK  status: ('A' for Active; 'I' for Inactive)
REMARK    1  A    between atoms: C_1  and  C_2
REMARK    2  A    between atoms: C_2  and  C_4
REMARK    3  A    between atoms: C_2  and  N_8
REMARK    4  A    between atoms: C_4  and  C_5
REMARK    5  A    between atoms: C_4  and  C_6
REMARK    6  A    between atoms: C_4  and  C_7
REMARK    7  A    between atoms: C_9  and  C_11
REMARK    8  A    between atoms: C_22  and  C_24
REMARK                            x       y       z     vdW  Elec       q    Type
REMARK                         _______ _______ _______ _____ _____    ______ ____
ROOT
ATOM      1  C   UNL     1       0.780  -1.133   3.576  0.00  0.00    +0.100 C 
ATOM      2  C   UNL     1       1.189  -2.611   3.392  0.00  0.00    +0.121 C 
ATOM      3  N   UNL     1       1.007  -3.220   4.731  0.00  0.00    -0.296 N 
ATOM      4  C   UNL     1      -0.236  -2.602   5.251  0.00  0.00    +0.115 C 
ATOM      5  C   UNL     1      -0.156  -1.131   4.797  0.00  0.00    -0.004 C 
ATOM      6  C   UNL     1      -1.540  -0.625   4.401  0.00  0.00    -0.010 C 
ATOM      7  C   UNL     1      -2.435  -0.577   5.642  0.00  0.00    -0.082 C 
ATOM      8  N   UNL     1      -1.836   0.311   6.646  0.00  0.00    +0.379 N 
ATOM      9  C   UNL     1      -0.547  -0.233   7.089  0.00  0.00    -0.082 C 
ATOM     10  C   UNL     1       0.428  -0.266   5.909  0.00  0.00    -0.010 C 
ATOM     11  C   UNL     1       1.794  -4.129   5.338  0.00  0.00    +0.249 C 
ATOM     12  O   UNL     1       1.509  -4.536   6.448  0.00  0.00    -0.270 OA
ATOM     13  H   UNL     1      -1.694   1.224   6.242  0.00  0.00    -0.086 HD
ATOM     14  H   UNL     1      -2.457   0.389   7.437  0.00  0.00    -0.086 HD
ENDROOT
BRANCH  11  15
ATOM     15  C   UNL     1       3.004  -4.632   4.657  0.00  0.00    +0.073 A 
ATOM     16  C   UNL     1       4.229  -3.982   4.831  0.00  0.00    +0.054 A 
ATOM     17  C   UNL     1       5.356  -4.459   4.190  0.00  0.00    +0.021 A 
ATOM     18  C   UNL     1       5.275  -5.575   3.378  0.00  0.00    +0.003 A 
ATOM     19  C   UNL     1       4.066  -6.223   3.200  0.00  0.00    +0.021 A 
ATOM     20  C   UNL     1       2.931  -5.762   3.839  0.00  0.00    +0.054 A 
ATOM     21 CL   UNL     1       1.416  -6.582   3.620  0.00  0.00    -0.083 Cl
ATOM     22 CL   UNL     1       4.334  -2.581   5.849  0.00  0.00    -0.083 Cl
ENDBRANCH  11  15
BRANCH   1  24
ATOM     23  N   UNL     1       0.108   0.671   2.023  0.00  0.00    -0.312 N 
ATOM     24  C   UNL     1       0.051  -0.633   2.355  0.00  0.00    +0.218 C 
ATOM     25  O   UNL     1      -0.587  -1.406   1.672  0.00  0.00    -0.275 OA
ATOM     26  H   UNL     1       0.619   1.289   2.570  0.00  0.00    +0.149 HD
BRANCH  23  28
ATOM     27  C   UNL     1      -2.054   1.464   1.200  0.00  0.00    +0.028 C 
ATOM     28  C   UNL     1      -0.600   1.157   0.836  0.00  0.00    +0.075 C 
BRANCH  28  29
ATOM     29  C   UNL     1       0.077   2.429   0.323  0.00  0.00    -0.020 C 
ATOM     30  C   UNL     1       0.040   3.502   1.413  0.00  0.00    +0.012 C 
ATOM     31  C   UNL     1       1.531   2.122  -0.042  0.00  0.00    +0.012 C 
ATOM     32  C   UNL     1      -0.663   2.936  -0.917  0.00  0.00    +0.012 C 
ENDBRANCH  28  29
ENDBRANCH  23  28
ENDBRANCH   1  24
TORSDOF 4
