REMARK  Name = ZINC13618484
REMARK  7 active torsions:
REMARK  status: ('A' for Active; 'I' for Inactive)
REMARK    1  A    between atoms: C_1  and  C_2
REMARK    2  A    between atoms: C_2  and  O_3
REMARK    3  A    between atoms: O_3  and  C_4
REMARK    4  A    between atoms: C_6  and  C_11
REMARK    5  A    between atoms: C_9  and  O_10
REMARK    6  A    between atoms: C_14  and  C_24
REMARK    7  A    between atoms: C_15  and  C_17
REMARK                            x       y       z     vdW  Elec       q    Type
REMARK                         _______ _______ _______ _____ _____    ______ ____
ROOT
ATOM      1  C   UNL     1      -0.317  -4.970   0.396  0.00  0.00    +0.139 A 
ATOM      2  N   UNL     1      -0.264  -6.334   0.350  0.00  0.00    -0.337 N 
ATOM      3  H   UNL     1       0.061  -6.873  -0.389  0.00  0.00    +0.167 HD
ATOM      4  C   UNL     1      -0.755  -6.800   1.548  0.00  0.00    +0.074 A 
ATOM      5  C   UNL     1      -1.096  -5.683   2.292  0.00  0.00    +0.097 A 
ATOM      6  N   UNL     1      -0.808  -4.598   1.556  0.00  0.00    -0.227 NA
ENDROOT
BRANCH   5   7
ATOM      7  C   UNL     1      -1.669  -5.686   3.658  0.00  0.00    +0.003 A 
ATOM      8  C   UNL     1      -1.172  -6.559   4.625  0.00  0.00    +0.011 A 
ATOM      9  C   UNL     1      -1.709  -6.557   5.895  0.00  0.00    +0.020 A 
ATOM     10  C   UNL     1      -2.741  -5.690   6.212  0.00  0.00    +0.041 A 
ATOM     11  C   UNL     1      -3.239  -4.820   5.256  0.00  0.00    +0.020 A 
ATOM     12  C   UNL     1      -2.705  -4.810   3.984  0.00  0.00    +0.011 A 
ATOM     13 CL   UNL     1      -3.414  -5.693   7.812  0.00  0.00    -0.084 Cl
ENDBRANCH   5   7
BRANCH   4  14
ATOM     14  C   UNL     1      -0.891  -8.211   1.959  0.00  0.00    +0.001 A 
ATOM     15  C   UNL     1      -2.086  -8.665   2.524  0.00  0.00    +0.011 A 
ATOM     16  C   UNL     1      -2.207  -9.985   2.905  0.00  0.00    +0.020 A 
ATOM     17  C   UNL     1      -1.148 -10.860   2.729  0.00  0.00    +0.041 A 
ATOM     18  C   UNL     1       0.039 -10.416   2.169  0.00  0.00    +0.020 A 
ATOM     19  C   UNL     1       0.171  -9.100   1.778  0.00  0.00    +0.011 A 
ATOM     20 CL   UNL     1      -1.308 -12.519   3.212  0.00  0.00    -0.084 Cl
ENDBRANCH   4  14
BRANCH   1  23
ATOM     21  C   UNL     1       0.418  -1.828  -1.529  0.00  0.00    +0.162 A 
ATOM     22  C   UNL     1       0.013  -2.677  -0.516  0.00  0.00    +0.061 A 
ATOM     23  C   UNL     1       0.113  -4.059  -0.685  0.00  0.00    +0.021 A 
ATOM     24  C   UNL     1       0.621  -4.578  -1.877  0.00  0.00    +0.015 A 
ATOM     25  C   UNL     1       1.023  -3.727  -2.885  0.00  0.00    +0.050 A 
ATOM     26  C   UNL     1       0.919  -2.353  -2.719  0.00  0.00    +0.158 A 
BRANCH  26  27
ATOM     27  O   UNL     1       1.312  -1.518  -3.716  0.00  0.00    -0.503 OA
ATOM     28  H   UNL     1       2.242  -1.258  -3.669  0.00  0.00    +0.292 HD
ENDBRANCH  26  27
BRANCH  21  29
ATOM     29  O   UNL     1       0.322  -0.481  -1.368  0.00  0.00    -0.489 OA
BRANCH  29  31
ATOM     30  C   UNL     1      -0.233   1.517  -0.127  0.00  0.00    +0.048 C 
ATOM     31  C   UNL     1      -0.201  -0.013  -0.123  0.00  0.00    +0.226 C 
ENDBRANCH  29  31
ENDBRANCH  21  29
ENDBRANCH   1  23
TORSDOF 6
