REMARK  Name = ZINC09836828
REMARK  6 active torsions:
REMARK  status: ('A' for Active; 'I' for Inactive)
REMARK    1  A    between atoms: C_7  and  C_11
REMARK    2  A    between atoms: C_11  and  C_12
REMARK    3  A    between atoms: N_14  and  C_15
REMARK    4  A    between atoms: C_18  and  N_21
REMARK    5  A    between atoms: N_21  and  S_22
REMARK    6  A    between atoms: S_22  and  C_25
REMARK                            x       y       z     vdW  Elec       q    Type
REMARK                         _______ _______ _______ _____ _____    ______ ____
ROOT
ATOM      1  C   UNL     1       3.902   3.799  -0.403  0.00  0.00    +0.034 A 
ATOM      2  C   UNL     1       2.792   4.124  -1.171  0.00  0.00    +0.025 A 
ATOM      3  C   UNL     1       1.613   3.425  -1.010  0.00  0.00    +0.026 A 
ATOM      4  C   UNL     1       1.537   2.397  -0.079  0.00  0.00    +0.048 A 
ATOM      5  C   UNL     1       2.646   2.076   0.693  0.00  0.00    +0.026 A 
ATOM      6  C   UNL     1       3.827   2.772   0.528  0.00  0.00    +0.025 A 
ENDROOT
BRANCH   1   9
ATOM      7  C   UNL     1       5.069   5.818  -0.889  0.00  0.00    +0.222 C 
ATOM      8  O   UNL     1       4.008   6.404  -0.944  0.00  0.00    -0.275 OA
ATOM      9  N   UNL     1       5.100   4.509  -0.567  0.00  0.00    -0.285 N 
ATOM     10  H   UNL     1       5.951   4.059  -0.450  0.00  0.00    +0.155 HD
BRANCH   7  11
ATOM     11  C   UNL     1       6.351   6.553  -1.180  0.00  0.00    +0.133 C 
BRANCH  11  18
ATOM     12  C   UNL     1       5.684  10.375   1.451  0.00  0.00    +0.001 A 
ATOM     13  C   UNL     1       5.419  11.510   0.698  0.00  0.00    +0.002 A 
ATOM     14  C   UNL     1       5.373  11.446  -0.677  0.00  0.00    +0.026 A 
ATOM     15  C   UNL     1       5.593  10.232  -1.321  0.00  0.00    +0.047 A 
ATOM     16  C   UNL     1       5.861   9.085  -0.553  0.00  0.00    +0.003 A 
ATOM     17  C   UNL     1       5.903   9.172   0.840  0.00  0.00    +0.010 A 
ATOM     18  C   UNL     1       6.043   7.991  -1.510  0.00  0.00    -0.014 A 
ATOM     19  C   UNL     1       5.888   8.513  -2.737  0.00  0.00    +0.087 A 
ATOM     20  N   UNL     1       5.614   9.850  -2.643  0.00  0.00    -0.360 N 
ATOM     21  H   UNL     1       5.460  10.442  -3.397  0.00  0.00    +0.165 HD
ENDBRANCH  11  18
ENDBRANCH   7  11
ENDBRANCH   1   9
BRANCH   4  22
ATOM     22  N   UNL     1       0.342   1.689   0.086  0.00  0.00    -0.216 N 
ATOM     23  H   UNL     1      -0.502   2.166   0.137  0.00  0.00    +0.174 HD
BRANCH  22  24
ATOM     24  S   UNL     1       0.365   0.036   0.185  0.00  0.00    +0.072 S 
ATOM     25  O   UNL     1       1.329  -0.298   1.174  0.00  0.00    -0.150 OA
ATOM     26  O   UNL     1      -0.989  -0.385   0.269  0.00  0.00    -0.150 OA
BRANCH  24  27
ATOM     27  C   UNL     1       0.987  -0.569  -1.349  0.00  0.00    +0.112 A 
ATOM     28  C   UNL     1       0.128  -0.748  -2.417  0.00  0.00    +0.032 A 
ATOM     29  C   UNL     1       0.610  -1.218  -3.626  0.00  0.00    +0.051 A 
ATOM     30  C   UNL     1       1.955  -1.519  -3.759  0.00  0.00    +0.162 A 
ATOM     31  C   UNL     1       2.815  -1.345  -2.684  0.00  0.00    +0.164 A 
ATOM     32  C   UNL     1       2.331  -0.870  -1.477  0.00  0.00    +0.078 A 
ATOM     33  O   UNL     1       4.139  -1.644  -2.825  0.00  0.00    -0.488 OA
ATOM     34  C   UNL     1       4.454  -3.029  -2.987  0.00  0.00    +0.232 C 
ATOM     35  C   UNL     1       4.319  -3.445  -4.444  0.00  0.00    +0.082 C 
ATOM     36  C   UNL     1       2.886  -3.346  -4.944  0.00  0.00    +0.232 C 
ATOM     37  O   UNL     1       2.442  -1.988  -4.944  0.00  0.00    -0.488 OA
ENDBRANCH  24  27
ENDBRANCH  22  24
ENDBRANCH   4  22
TORSDOF 6
