REMARK  Name = ZINC39578178
REMARK  8 active torsions:
REMARK  status: ('A' for Active; 'I' for Inactive)
REMARK    1  A    between atoms: C_1  and  C_2
REMARK    2  A    between atoms: C_9  and  C_16
REMARK    3  A    between atoms: C_11  and  O_12
REMARK    4  A    between atoms: C_16  and  N_17
REMARK    5  A    between atoms: C_20  and  C_24
REMARK    6  A    between atoms: C_20  and  C_25
REMARK    7  A    between atoms: C_28  and  O_31
REMARK    8  A    between atoms: O_31  and  C_32
REMARK                            x       y       z     vdW  Elec       q    Type
REMARK                         _______ _______ _______ _____ _____    ______ ____
ROOT
ATOM      1  N   UNL     1       1.953  -7.120  -3.050  0.00  0.00    -0.220 N 
ATOM      2  C   UNL     1       2.726  -6.254  -3.734  0.00  0.00    +0.251 C 
ATOM      3  O   UNL     1       2.398  -5.178  -4.186  0.00  0.00    -0.272 OA
ATOM      4  C   UNL     1       4.093  -6.905  -3.820  0.00  0.00    +0.135 C 
ATOM      5  N   UNL     1       3.913  -8.182  -3.107  0.00  0.00    -0.281 N 
ATOM      6  C   UNL     1       2.634  -8.214  -2.691  0.00  0.00    +0.310 C 
ATOM      7  O   UNL     1       2.151  -9.135  -2.062  0.00  0.00    -0.252 OA
ATOM      8  C   UNL     1       4.480  -7.153  -5.279  0.00  0.00    +0.047 C 
ATOM      9  H   UNL     1       4.587  -8.865  -2.964  0.00  0.00    +0.152 HD
ENDROOT
BRANCH   4  10
ATOM     10  C   UNL     1       5.129  -6.055  -3.131  0.00  0.00    -0.015 A 
ATOM     11  C   UNL     1       4.975  -4.682  -3.084  0.00  0.00    +0.010 A 
ATOM     12  C   UNL     1       5.924  -3.900  -2.454  0.00  0.00    +0.046 A 
ATOM     13  C   UNL     1       7.032  -4.494  -1.868  0.00  0.00    +0.127 A 
ATOM     14  C   UNL     1       7.184  -5.873  -1.915  0.00  0.00    +0.046 A 
ATOM     15  C   UNL     1       6.230  -6.650  -2.542  0.00  0.00    +0.010 A 
BRANCH  13  16
ATOM     16  O   UNL     1       7.967  -3.728  -1.248  0.00  0.00    -0.434 OA
BRANCH  16  17
ATOM     17  C   UNL     1       9.082  -4.407  -0.666  0.00  0.00    +0.541 C 
ATOM     18  F   UNL     1       8.625  -5.304   0.307  0.00  0.00    -0.166 F 
ATOM     19  F   UNL     1       9.771  -5.110  -1.660  0.00  0.00    -0.166 F 
ENDBRANCH  16  17
ENDBRANCH  13  16
ENDBRANCH   4  10
BRANCH   1  20
ATOM     20  C   UNL     1       0.541  -6.889  -2.733  0.00  0.00    +0.154 C 
BRANCH  20  29
ATOM     21  C   UNL     1      -0.036   1.450   0.103  0.00  0.00    +0.109 C 
ATOM     22  C   UNL     1       0.231  -0.029  -0.007  0.00  0.00    +0.214 C 
ATOM     23  O   UNL     1       0.659  -0.644   0.953  0.00  0.00    -0.276 OA
ATOM     24  N   UNL     1       0.000  -0.657  -1.144  0.00  0.00    -0.286 N 
ATOM     25  C   UNL     1       0.106  -2.013  -1.205  0.00  0.00    +0.037 A 
ATOM     26  C   UNL     1       0.205  -2.651  -2.454  0.00  0.00    +0.024 A 
ATOM     27  C   UNL     1       0.312  -4.003  -2.529  0.00  0.00    +0.014 A 
ATOM     28  C   UNL     1       0.323  -4.772  -1.352  0.00  0.00    +0.022 A 
ATOM     29  C   UNL     1       0.433  -6.178  -1.409  0.00  0.00    -0.012 A 
ATOM     30  C   UNL     1       0.440  -6.887  -0.224  0.00  0.00    +0.093 A 
ATOM     31  C   UNL     1       0.340  -6.214   0.985  0.00  0.00    +0.285 A 
ATOM     32  O   UNL     1       0.235  -4.882   1.034  0.00  0.00    -0.425 OA
ATOM     33  C   UNL     1       0.224  -4.140  -0.093  0.00  0.00    +0.141 A 
ATOM     34  C   UNL     1       0.121  -2.762  -0.028  0.00  0.00    +0.070 A 
ATOM     35  H   UNL     1      -0.245  -0.153  -1.935  0.00  0.00    +0.155 HD
BRANCH  31  36
ATOM     36  O   UNL     1       0.348  -6.918   2.134  0.00  0.00    -0.480 OA
ATOM     37  H   UNL     1       0.274  -6.373   2.929  0.00  0.00    +0.295 HD
ENDBRANCH  31  36
ENDBRANCH  20  29
ENDBRANCH   1  20
TORSDOF 6
