REMARK  Name = ZINC33779471
REMARK  14 active torsions:
REMARK  status: ('A' for Active; 'I' for Inactive)
REMARK    1  A    between atoms: C_1  and  C_2
REMARK    2  A    between atoms: C_2  and  C_3
REMARK    3  A    between atoms: C_2  and  C_4
REMARK    4  A    between atoms: C_4  and  N_5
REMARK    5  A    between atoms: N_5  and  C_6
REMARK    6  A    between atoms: N_5  and  S_10
REMARK    7  A    between atoms: C_6  and  C_7
REMARK    8  A    between atoms: C_7  and  C_8
REMARK    9  A    between atoms: C_7  and  C_9
REMARK   10  A    between atoms: S_10  and  C_13
REMARK   11  A    between atoms: C_16  and  C_19
REMARK   12  A    between atoms: C_19  and  N_21
REMARK   13  A    between atoms: N_23  and  C_33
REMARK   14  A    between atoms: C_33  and  C_34
REMARK                            x       y       z     vdW  Elec       q    Type
REMARK                         _______ _______ _______ _____ _____    ______ ____
ROOT
ATOM      1  C   UNL     1      -7.258   0.533  -3.843  0.00  0.00    +0.106 A 
ATOM      2  C   UNL     1      -7.518   0.815  -2.514  0.00  0.00    +0.029 A 
ATOM      3  C   UNL     1      -6.490   0.821  -1.593  0.00  0.00    +0.015 A 
ATOM      4  C   UNL     1      -5.187   0.543  -2.005  0.00  0.00    +0.039 A 
ATOM      5  C   UNL     1      -4.930   0.265  -3.348  0.00  0.00    +0.015 A 
ATOM      6  C   UNL     1      -5.967   0.257  -4.258  0.00  0.00    +0.029 A 
ENDROOT
BRANCH   1   7
ATOM      7  S   UNL     1      -8.575   0.528  -5.013  0.00  0.00    +0.061 S 
ATOM      8  O   UNL     1      -8.158  -0.299  -6.091  0.00  0.00    -0.153 OA
ATOM      9  O   UNL     1      -9.768   0.280  -4.281  0.00  0.00    -0.153 OA
BRANCH   7  10
ATOM     10  N   UNL     1      -8.701   2.065  -5.617  0.00  0.00    -0.176 NA
BRANCH  10  11
ATOM     11  C   UNL     1      -7.937   2.450  -6.806  0.00  0.00    +0.112 C 
BRANCH  11  13
ATOM     12  C   UNL     1      -8.086   2.931  -9.253  0.00  0.00    +0.008 C 
ATOM     13  C   UNL     1      -8.849   2.410  -8.033  0.00  0.00    -0.001 C 
ATOM     14  C   UNL     1      -9.298   0.970  -8.289  0.00  0.00    +0.008 C 
ENDBRANCH  11  13
ENDBRANCH  10  11
BRANCH  10  15
ATOM     15  C   UNL     1      -9.577   3.039  -4.961  0.00  0.00    +0.112 C 
BRANCH  15  16
ATOM     16  C   UNL     1      -8.767   3.855  -3.951  0.00  0.00    -0.001 C 
ATOM     17  C   UNL     1      -7.714   4.683  -4.692  0.00  0.00    +0.008 C 
ATOM     18  C   UNL     1      -9.703   4.790  -3.183  0.00  0.00    +0.008 C 
ENDBRANCH  15  16
ENDBRANCH  10  15
ENDBRANCH   7  10
ENDBRANCH   1   7
BRANCH   4  19
ATOM     19  C   UNL     1      -4.079   0.548  -1.022  0.00  0.00    +0.269 C 
ATOM     20  O   UNL     1      -4.306   0.796   0.150  0.00  0.00    -0.268 OA
BRANCH  19  21
ATOM     21  N   UNL     1      -2.832   0.281  -1.419  0.00  0.00    -0.152 NA
ATOM     22  C   UNL     1      -1.838   0.286  -0.537  0.00  0.00    +0.167 A 
ATOM     23  N   UNL     1      -0.518   0.041  -0.753  0.00  0.00    -0.315 N 
ATOM     24  C   UNL     1       0.377   0.087   0.303  0.00  0.00    +0.094 A 
ATOM     25  C   UNL     1       1.764  -0.140   0.280  0.00  0.00    +0.151 A 
ATOM     26  C   UNL     1       2.511  -0.053   1.433  0.00  0.00    +0.078 A 
ATOM     27  C   UNL     1       1.921   0.261   2.648  0.00  0.00    +0.127 A 
ATOM     28  C   UNL     1       0.557   0.499   2.695  0.00  0.00    +0.055 A 
ATOM     29  C   UNL     1      -0.190   0.407   1.544  0.00  0.00    +0.044 A 
ATOM     30  S   UNL     1      -1.913   0.607   1.165  0.00  0.00    -0.052 S 
ATOM     31  F   UNL     1       2.668   0.343   3.770  0.00  0.00    -0.205 F 
ATOM     32  F   UNL     1       2.371  -0.448  -0.887  0.00  0.00    -0.203 F 
BRANCH  23  33
ATOM     33  C   UNL     1      -0.043  -0.278  -2.102  0.00  0.00    +0.151 C 
BRANCH  33  34
ATOM     34  C   UNL     1      -0.821   0.526  -3.111  0.00  0.00    -0.013 C 
ATOM     35  C   UNL     1      -0.202   1.388  -3.879  0.00  0.00    +0.005 C 
ENDBRANCH  33  34
ENDBRANCH  23  33
ENDBRANCH  19  21
ENDBRANCH   4  19
TORSDOF 10
