REMARK  Name = ZINC63142245
REMARK  8 active torsions:
REMARK  status: ('A' for Active; 'I' for Inactive)
REMARK    1  A    between atoms: C_1  and  O_2
REMARK    2  A    between atoms: O_2  and  C_3
REMARK    3  A    between atoms: C_7  and  C_9
REMARK    4  A    between atoms: C_9  and  N_10
REMARK    5  A    between atoms: C_30  and  C_32
REMARK    6  A    between atoms: C_35  and  C_38
REMARK    7  A    between atoms: C_38  and  O_40
REMARK    8  A    between atoms: O_40  and  C_41
REMARK                            x       y       z     vdW  Elec       q    Type
REMARK                         _______ _______ _______ _____ _____    ______ ____
ROOT
ATOM      1  N   UNL     1       0.228  -4.667   2.925  0.00  0.00    -0.287 N 
ATOM      2  C   UNL     1       0.323  -4.829   4.366  0.00  0.00    +0.204 C 
ATOM      3  C   UNL     1      -0.939  -5.363   4.959  0.00  0.00    +0.234 C 
ATOM      4  O   UNL     1      -0.967  -5.539   6.159  0.00  0.00    -0.274 OA
ATOM      5  N   UNL     1      -2.041  -5.661   4.261  0.00  0.00    -0.279 N 
ATOM      6  C   UNL     1      -2.133  -5.475   2.816  0.00  0.00    +0.167 C 
ATOM      7  C   UNL     1      -0.869  -4.947   2.223  0.00  0.00    +0.237 C 
ATOM      8  O   UNL     1      -0.837  -4.767   1.024  0.00  0.00    -0.274 OA
ATOM      9  C   UNL     1      -3.295  -4.521   2.483  0.00  0.00    +0.065 C 
ATOM     10  C   UNL     1      -4.475  -4.978   3.304  0.00  0.00    -0.034 C 
ATOM     11  C   UNL     1      -5.728  -5.256   2.965  0.00  0.00    -0.001 A 
ATOM     12  C   UNL     1      -6.453  -5.115   1.692  0.00  0.00    +0.010 A 
ATOM     13  C   UNL     1      -7.749  -5.525   1.692  0.00  0.00    +0.001 A 
ATOM     14  C   UNL     1      -8.389  -6.055   2.817  0.00  0.00    +0.002 A 
ATOM     15  C   UNL     1      -7.801  -6.211   4.030  0.00  0.00    +0.026 A 
ATOM     16  C   UNL     1      -6.441  -5.807   4.157  0.00  0.00    +0.043 A 
ATOM     17  N   UNL     1      -5.652  -5.822   5.191  0.00  0.00    -0.375 N 
ATOM     18  C   UNL     1      -4.371  -5.231   4.803  0.00  0.00    +0.131 C 
ATOM     19  C   UNL     1      -3.203  -6.201   5.002  0.00  0.00    +0.133 C 
ATOM     20  H   UNL     1      -5.875  -6.167   6.070  0.00  0.00    +0.160 HD
ENDROOT
BRANCH  19  21
ATOM     21  C   UNL     1      -2.870  -6.307   6.468  0.00  0.00    -0.025 A 
ATOM     22  C   UNL     1      -3.041  -5.210   7.294  0.00  0.00    +0.006 A 
ATOM     23  C   UNL     1      -2.738  -5.300   8.636  0.00  0.00    +0.015 A 
ATOM     24  C   UNL     1      -2.259  -6.502   9.162  0.00  0.00    +0.059 A 
ATOM     25  C   UNL     1      -2.089  -7.605   8.322  0.00  0.00    +0.015 A 
ATOM     26  C   UNL     1      -2.401  -7.502   6.982  0.00  0.00    +0.006 A 
BRANCH  24  27
ATOM     27  C   UNL     1      -1.932  -6.606  10.598  0.00  0.00    +0.339 C 
ATOM     28  O   UNL     1      -2.080  -5.644  11.326  0.00  0.00    -0.245 OA
BRANCH  27  29
ATOM     29  O   UNL     1      -1.469  -7.766  11.102  0.00  0.00    -0.464 OA
ATOM     30  C   UNL     1      -1.174  -7.795  12.500  0.00  0.00    +0.280 C 
ENDBRANCH  27  29
ENDBRANCH  24  27
ENDBRANCH  19  21
BRANCH   1  31
ATOM     31  C   UNL     1       1.400  -4.162   2.206  0.00  0.00    +0.143 C 
BRANCH  31  36
ATOM     32  C   UNL     1       0.658  -0.648   1.032  0.00  0.00    +0.120 A 
ATOM     33  C   UNL     1       1.240   0.107   2.041  0.00  0.00    +0.045 A 
ATOM     34  C   UNL     1       1.869  -0.522   3.097  0.00  0.00    +0.004 A 
ATOM     35  C   UNL     1       1.920  -1.903   3.150  0.00  0.00    +0.005 A 
ATOM     36  C   UNL     1       1.342  -2.657   2.146  0.00  0.00    -0.027 A 
ATOM     37  C   UNL     1       0.706  -2.033   1.090  0.00  0.00    +0.050 A 
BRANCH  32  39
ATOM     38  C   UNL     1       0.027   1.398  -0.002  0.00  0.00    +0.277 C 
ATOM     39  O   UNL     1       0.038  -0.031  -0.008  0.00  0.00    -0.495 OA
ENDBRANCH  32  39
ENDBRANCH  31  36
ENDBRANCH   1  31
TORSDOF 6
