REMARK  Name = ZINC26968639
REMARK  8 active torsions:
REMARK  status: ('A' for Active; 'I' for Inactive)
REMARK    1  A    between atoms: C_1  and  C_2
REMARK    2  A    between atoms: C_5  and  N_24
REMARK    3  A    between atoms: N_8  and  C_9
REMARK    4  A    between atoms: C_9  and  C_10
REMARK    5  A    between atoms: N_12  and  C_13
REMARK    6  A    between atoms: N_24  and  S_25
REMARK    7  A    between atoms: S_25  and  C_28
REMARK    8  A    between atoms: C_28  and  C_29
REMARK                            x       y       z     vdW  Elec       q    Type
REMARK                         _______ _______ _______ _____ _____    ______ ____
ROOT
ATOM      1  C   UNL     1       7.248   0.598  -3.217  0.00  0.00    +0.063 C 
ATOM      2  C   UNL     1       6.805   1.537  -4.310  0.00  0.00    +0.020 A 
ATOM      3  C   UNL     1       7.413   1.489  -5.517  0.00  0.00    +0.023 A 
ATOM      4  C   UNL     1       7.012   2.362  -6.539  0.00  0.00    +0.031 A 
ATOM      5  C   UNL     1       6.001   3.252  -6.300  0.00  0.00    +0.112 A 
ATOM      6  C   UNL     1       5.386   3.270  -5.029  0.00  0.00    +0.274 A 
ATOM      7  O   UNL     1       4.482   4.058  -4.800  0.00  0.00    -0.266 OA
ATOM      8  N   UNL     1       5.796   2.417  -4.072  0.00  0.00    -0.302 N 
ENDROOT
BRANCH   5   9
ATOM      9  N   UNL     1       5.582   4.135  -7.303  0.00  0.00    -0.215 N 
ATOM     10  H   UNL     1       4.769   4.848  -7.104  0.00  0.00    +0.173 HD
BRANCH   9  11
ATOM     11  S   UNL     1       6.312   4.105  -8.790  0.00  0.00    +0.047 S 
ATOM     12  O   UNL     1       5.664   5.129  -9.532  0.00  0.00    -0.155 OA
ATOM     13  O   UNL     1       7.703   4.180  -8.513  0.00  0.00    -0.155 OA
BRANCH  11  14
ATOM     14  C   UNL     1       5.899   2.478  -9.479  0.00  0.00    +0.223 C 
BRANCH  14  15
ATOM     15  C   UNL     1       6.518   2.340 -10.846  0.00  0.00    -0.025 A 
ATOM     16  C   UNL     1       5.811   2.731 -11.967  0.00  0.00    +0.008 A 
ATOM     17  C   UNL     1       6.379   2.610 -13.221  0.00  0.00    +0.038 A 
ATOM     18  C   UNL     1       7.654   2.086 -13.355  0.00  0.00    +0.123 A 
ATOM     19  C   UNL     1       8.359   1.689 -12.231  0.00  0.00    +0.038 A 
ATOM     20  C   UNL     1       7.791   1.817 -10.978  0.00  0.00    +0.008 A 
ATOM     21  F   UNL     1       8.209   1.962 -14.580  0.00  0.00    -0.205 F 
ENDBRANCH  14  15
ENDBRANCH  11  14
ENDBRANCH   9  11
ENDBRANCH   5   9
BRANCH   8  22
ATOM     22  C   UNL     1       5.153   2.442  -2.756  0.00  0.00    +0.220 C 
BRANCH  22  23
ATOM     23  C   UNL     1       5.817   3.482  -1.891  0.00  0.00    +0.233 C 
ATOM     24  O   UNL     1       6.738   4.138  -2.330  0.00  0.00    -0.274 OA
ATOM     25  N   UNL     1       5.388   3.683  -0.629  0.00  0.00    -0.311 N 
ATOM     26  H   UNL     1       4.553   3.088  -0.231  0.00  0.00    +0.149 HD
BRANCH  25  27
ATOM     27  C   UNL     1       6.034   4.694   0.212  0.00  0.00    +0.078 C 
ATOM     28  C   UNL     1       5.825   4.344   1.688  0.00  0.00    +0.029 C 
ATOM     29  C   UNL     1       6.693   5.244   2.570  0.00  0.00    +0.058 C 
ATOM     30  C   UNL     1       6.425   6.698   2.200  0.00  0.00    +0.054 A 
ATOM     31  C   UNL     1       5.847   7.006   1.011  0.00  0.00    +0.016 A 
ATOM     32  S   UNL     1       5.757   8.776   1.068  0.00  0.00    -0.057 S 
ATOM     33  C   UNL     1       6.481   8.975   2.636  0.00  0.00    +0.156 A 
ATOM     34  N   UNL     1       6.727   7.729   2.987  0.00  0.00    -0.230 NA
ATOM     35  N   UNL     1       6.733  10.144   3.338  0.00  0.00    -0.338 N 
ATOM     36  C   UNL     1       5.407   6.070  -0.062  0.00  0.00    +0.066 C 
ATOM     37  H   UNL     1       7.202  10.098   4.331  0.00  0.00    +0.144 HD
ATOM     38  H   UNL     1       6.463  11.116   2.900  0.00  0.00    +0.144 HD
ENDBRANCH  25  27
ENDBRANCH  22  23
ENDBRANCH   8  22
TORSDOF 7
