REMARK  Name = ZINC50222635
REMARK  2 active torsions:
REMARK  status: ('A' for Active; 'I' for Inactive)
REMARK    1  A    between atoms: C_4  and  C_7
REMARK    2  A    between atoms: C_7  and  N_9
REMARK                            x       y       z     vdW  Elec       q    Type
REMARK                         _______ _______ _______ _____ _____    ______ ____
ROOT
ATOM      1  C   UNL     1       2.847  -0.454  -2.513  0.00  0.00    +0.242 C 
ATOM      2  O   UNL     1       3.284   0.347  -3.316  0.00  0.00    -0.273 OA
ENDROOT
BRANCH   1   3
ATOM      3  N   UNL     1       2.996  -1.759  -2.726  0.00  0.00    -0.147 NA
ATOM      4  C   UNL     1       3.529  -2.190  -3.867  0.00  0.00    +0.210 C 
ATOM      5  N   UNL     1       4.053  -1.370  -4.827  0.00  0.00    -0.306 N 
ATOM      6  C   UNL     1       4.524  -2.266  -5.899  0.00  0.00    +0.205 C 
ATOM      7  C   UNL     1       4.181  -3.647  -5.380  0.00  0.00    +0.266 C 
ATOM      8  O   UNL     1       4.411  -4.817  -5.997  0.00  0.00    -0.269 OA
ATOM      9  N   UNL     1       3.624  -3.477  -4.211  0.00  0.00    -0.180 NA
ATOM     10  H   UNL     1       4.105  -0.401  -4.807  0.00  0.00    +0.149 HD
ENDBRANCH   1   3
BRANCH   1  14
ATOM     11  C   UNL     1      -0.052   1.509  -0.006  0.00  0.00    +0.000 C 
ATOM     12  C   UNL     1       1.379   2.052  -0.018  0.00  0.00    +0.001 C 
ATOM     13  C   UNL     1       2.101   1.560  -1.274  0.00  0.00    +0.013 C 
ATOM     14  C   UNL     1       2.136   0.030  -1.276  0.00  0.00    +0.077 C 
ATOM     15  C   UNL     1       0.705  -0.512  -1.264  0.00  0.00    +0.013 C 
ATOM     16  C   UNL     1      -0.017  -0.021  -0.008  0.00  0.00    +0.001 C 
ENDBRANCH   1  14
TORSDOF 2
