REMARK  Name = ZINC04156688
REMARK  11 active torsions:
REMARK  status: ('A' for Active; 'I' for Inactive)
REMARK    1  A    between atoms: C_1  and  C_2
REMARK    2  A    between atoms: C_2  and  C_4
REMARK    3  A    between atoms: C_2  and  N_16
REMARK    4  A    between atoms: N_16  and  C_17
REMARK    5  A    between atoms: C_17  and  C_18
REMARK    6  A    between atoms: C_18  and  C_19
REMARK    7  A    between atoms: C_19  and  C_20
REMARK    8  A    between atoms: C_20  and  C_21
REMARK    9  A    between atoms: C_21  and  C_22
REMARK   10  A    between atoms: C_22  and  N_23
REMARK   11  A    between atoms: C_24  and  C_26
REMARK                            x       y       z     vdW  Elec       q    Type
REMARK                         _______ _______ _______ _____ _____    ______ ____
ROOT
ATOM      1  N   UNL     1      -1.566  -0.879   0.147  0.00  0.00    -0.291 N 
ATOM      2  C   UNL     1      -2.676  -0.411   0.753  0.00  0.00    +0.222 C 
ATOM      3  O   UNL     1      -2.582   0.417   1.634  0.00  0.00    -0.275 OA
ENDROOT
BRANCH   2   4
ATOM      4  C   UNL     1      -4.032  -0.917   0.335  0.00  0.00    +0.048 C 
ATOM      5  C   UNL     1      -4.037  -2.446   0.361  0.00  0.00    +0.019 C 
ATOM      6  C   UNL     1      -5.415  -2.959  -0.063  0.00  0.00    -0.009 C 
ATOM      7  C   UNL     1      -6.477  -2.429   0.902  0.00  0.00    +0.007 C 
ATOM      8  C   UNL     1      -6.472  -0.899   0.876  0.00  0.00    -0.009 C 
ATOM      9  C   UNL     1      -5.094  -0.386   1.300  0.00  0.00    +0.019 C 
ATOM     10  C   UNL     1      -6.783  -0.413  -0.541  0.00  0.00    +0.007 C 
ATOM     11  C   UNL     1      -5.721  -0.943  -1.507  0.00  0.00    -0.009 C 
ATOM     12  C   UNL     1      -5.726  -2.473  -1.480  0.00  0.00    +0.007 C 
ATOM     13  C   UNL     1      -4.343  -0.430  -1.082  0.00  0.00    +0.019 C 
ENDBRANCH   2   4
BRANCH   1  15
ATOM     14  C   UNL     1      -0.148   1.104   0.336  0.00  0.00    +0.036 C 
ATOM     15  C   UNL     1      -0.246  -0.405   0.569  0.00  0.00    +0.139 C 
BRANCH  15  16
ATOM     16  C   UNL     1      -0.051  -0.701   2.034  0.00  0.00    +0.131 A 
ATOM     17  N   UNL     1       1.072  -0.235   2.642  0.00  0.00    -0.309 N 
ATOM     18  H   UNL     1       1.720   0.273   2.129  0.00  0.00    +0.170 HD
ATOM     19  C   UNL     1       1.294  -0.474   3.955  0.00  0.00    +0.259 A 
ATOM     20  O   UNL     1       2.295  -0.062   4.512  0.00  0.00    -0.267 OA
ATOM     21  C   UNL     1       0.278  -1.249   4.683  0.00  0.00    +0.065 A 
ATOM     22  C   UNL     1       0.411  -1.549   6.037  0.00  0.00    +0.015 A 
ATOM     23  C   UNL     1      -0.570  -2.280   6.670  0.00  0.00    +0.001 A 
ATOM     24  C   UNL     1      -1.687  -2.717   5.970  0.00  0.00    +0.002 A 
ATOM     25  C   UNL     1      -1.838  -2.431   4.632  0.00  0.00    +0.028 A 
ATOM     26  C   UNL     1      -0.856  -1.692   3.968  0.00  0.00    +0.078 A 
ATOM     27  N   UNL     1      -0.967  -1.383   2.652  0.00  0.00    -0.232 NA
ENDBRANCH  15  16
ENDBRANCH   1  15
BRANCH   1  28
ATOM     28  C   UNL     1      -1.681  -1.862  -0.933  0.00  0.00    +0.108 C 
BRANCH  28  29
ATOM     29  C   UNL     1      -1.359  -3.256  -0.391  0.00  0.00    +0.019 C 
BRANCH  29  30
ATOM     30  C   UNL     1      -1.616  -4.299  -1.480  0.00  0.00    +0.001 C 
BRANCH  30  31
ATOM     31  C   UNL     1      -1.294  -5.693  -0.937  0.00  0.00    -0.002 C 
BRANCH  31  32
ATOM     32  C   UNL     1      -1.552  -6.736  -2.026  0.00  0.00    -0.020 C 
BRANCH  32  33
ATOM     33  C   UNL     1      -1.230  -8.130  -1.484  0.00  0.00    -0.086 C 
BRANCH  33  34
ATOM     34  N   UNL     1      -1.477  -9.132  -2.529  0.00  0.00    +0.378 N 
ATOM     35  H   UNL     1      -1.265 -10.051  -2.172  0.00  0.00    -0.090 HD
ATOM     36  H   UNL     1      -2.446  -9.095  -2.808  0.00  0.00    -0.090 HD
ATOM     37  H   UNL     1      -0.890  -8.938  -3.327  0.00  0.00    -0.090 HD
ENDBRANCH  33  34
ENDBRANCH  32  33
ENDBRANCH  31  32
ENDBRANCH  30  31
ENDBRANCH  29  30
ENDBRANCH  28  29
ENDBRANCH   1  28
TORSDOF 10
