REMARK  Name = ZINC39493568
REMARK  12 active torsions:
REMARK  status: ('A' for Active; 'I' for Inactive)
REMARK    1  A    between atoms: C_1  and  C_2
REMARK    2  A    between atoms: C_2  and  C_3
REMARK    3  A    between atoms: C_2  and  C_4
REMARK    4  A    between atoms: C_4  and  C_5
REMARK    5  A    between atoms: N_7  and  C_8
REMARK    6  A    between atoms: C_8  and  C_10
REMARK    7  A    between atoms: C_8  and  C_16
REMARK    8  A    between atoms: C_16  and  C_18
REMARK    9  A    between atoms: C_16  and  C_25
REMARK   10  A    between atoms: C_23  and  O_24
REMARK   11  A    between atoms: C_25  and  C_27
REMARK   12  A    between atoms: C_32  and  O_33
REMARK                            x       y       z     vdW  Elec       q    Type
REMARK                         _______ _______ _______ _____ _____    ______ ____
ROOT
ATOM      1  C   UNL     1       4.889  -0.252  -3.679  0.00  0.00    +0.118 C 
ENDROOT
BRANCH   1   2
ATOM      2  C   UNL     1       6.388  -0.131  -3.786  0.00  0.00    +0.007 A 
ATOM      3  C   UNL     1       7.021   1.021  -3.360  0.00  0.00    +0.008 A 
ATOM      4  C   UNL     1       8.395   1.132  -3.459  0.00  0.00    +0.001 A 
ATOM      5  C   UNL     1       9.140   0.091  -3.983  0.00  0.00    +0.004 A 
ATOM      6  C   UNL     1       8.512  -1.062  -4.410  0.00  0.00    +0.046 A 
ATOM      7  C   UNL     1       7.133  -1.179  -4.307  0.00  0.00    +0.121 A 
BRANCH   7   8
ATOM      8  O   UNL     1       6.513  -2.315  -4.721  0.00  0.00    -0.506 OA
ATOM      9  H   UNL     1       6.248  -2.302  -5.651  0.00  0.00    +0.292 HD
ENDBRANCH   7   8
ENDBRANCH   1   2
BRANCH   1  10
ATOM     10  C   UNL     1       4.240   0.893  -4.412  0.00  0.00    +0.176 C 
ATOM     11  O   UNL     1       3.995   1.927  -3.827  0.00  0.00    -0.291 OA
BRANCH  10  12
ATOM     12  C   UNL     1       3.903   0.757  -5.834  0.00  0.00    +0.059 A 
ATOM     13  C   UNL     1       4.178  -0.436  -6.513  0.00  0.00    +0.015 A 
ATOM     14  C   UNL     1       3.858  -0.556  -7.846  0.00  0.00    +0.001 A 
ATOM     15  C   UNL     1       3.266   0.499  -8.523  0.00  0.00    +0.004 A 
ATOM     16  C   UNL     1       2.989   1.682  -7.867  0.00  0.00    +0.046 A 
ATOM     17  C   UNL     1       3.297   1.821  -6.522  0.00  0.00    +0.127 A 
BRANCH  17  18
ATOM     18  O   UNL     1       3.020   2.981  -5.876  0.00  0.00    -0.506 OA
ATOM     19  H   UNL     1       3.737   3.629  -5.907  0.00  0.00    +0.292 HD
ENDBRANCH  17  18
ENDBRANCH  10  12
ENDBRANCH   1  10
BRANCH   1  20
ATOM     20  C   UNL     1       4.479  -0.212  -2.205  0.00  0.00    +0.118 C 
BRANCH  20  21
ATOM     21  C   UNL     1       5.089  -1.385  -1.482  0.00  0.00    -0.026 A 
ATOM     22  C   UNL     1       4.586  -2.658  -1.681  0.00  0.00    +0.005 A 
ATOM     23  C   UNL     1       5.146  -3.733  -1.018  0.00  0.00    +0.000 A 
ATOM     24  C   UNL     1       6.209  -3.537  -0.156  0.00  0.00    +0.000 A 
ATOM     25  C   UNL     1       6.713  -2.265   0.041  0.00  0.00    +0.000 A 
ATOM     26  C   UNL     1       6.156  -1.190  -0.625  0.00  0.00    +0.005 A 
ENDBRANCH  20  21
BRANCH  20  29
ATOM     27  C   UNL     1       2.394   0.225  -1.022  0.00  0.00    +0.214 C 
ATOM     28  O   UNL     1       3.041   0.739  -0.134  0.00  0.00    -0.276 OA
ATOM     29  N   UNL     1       3.019  -0.282  -2.103  0.00  0.00    -0.307 N 
ATOM     30  H   UNL     1       2.502  -0.692  -2.814  0.00  0.00    +0.149 HD
BRANCH  27  31
ATOM     31  C   UNL     1       0.893   0.154  -0.917  0.00  0.00    +0.098 C 
BRANCH  31  33
ATOM     32  C   UNL     1       0.776   2.288   0.376  0.00  0.00    +0.008 C 
ATOM     33  C   UNL     1       0.442   0.796   0.397  0.00  0.00    -0.008 C 
ATOM     34  C   UNL     1      -1.068   0.613   0.562  0.00  0.00    +0.008 C 
ENDBRANCH  31  33
ENDBRANCH  27  31
ENDBRANCH  20  29
ENDBRANCH   1  20
TORSDOF 10
