REMARK  Name = ZINC39661390
REMARK  8 active torsions:
REMARK  status: ('A' for Active; 'I' for Inactive)
REMARK    1  A    between atoms: C_1  and  C_2
REMARK    2  A    between atoms: C_2  and  C_3
REMARK    3  A    between atoms: C_2  and  C_4
REMARK    4  A    between atoms: C_4  and  C_6
REMARK    5  A    between atoms: C_4  and  O_29
REMARK    6  A    between atoms: C_10  and  C_19
REMARK    7  A    between atoms: N_21  and  C_22
REMARK    8  A    between atoms: O_29  and  C_30
REMARK                            x       y       z     vdW  Elec       q    Type
REMARK                         _______ _______ _______ _____ _____    ______ ____
ROOT
ATOM      1  C   UNL     1      -1.723  -1.911  -0.250  0.00  0.00    +0.257 C 
ATOM      2  O   UNL     1      -2.283  -2.546   0.618  0.00  0.00    -0.272 OA
ATOM      3  N   UNL     1      -1.130  -2.551  -1.277  0.00  0.00    -0.297 N 
ATOM      4  C   UNL     1      -0.465  -1.952  -2.458  0.00  0.00    +0.121 C 
ATOM      5  C   UNL     1       0.775  -2.842  -2.701  0.00  0.00    +0.100 C 
ATOM      6  C   UNL     1       0.419  -4.194  -2.060  0.00  0.00    -0.004 C 
ATOM      7  C   UNL     1      -0.991  -4.013  -1.478  0.00  0.00    +0.115 C 
ATOM      8  C   UNL     1       1.405  -4.525  -0.943  0.00  0.00    -0.010 C 
ATOM      9  C   UNL     1       1.065  -5.899  -0.359  0.00  0.00    -0.082 C 
ATOM     10  N   UNL     1       1.135  -6.913  -1.418  0.00  0.00    +0.379 N 
ATOM     11  C   UNL     1       0.119  -6.639  -2.442  0.00  0.00    -0.082 C 
ATOM     12  C   UNL     1       0.419  -5.296  -3.114  0.00  0.00    -0.010 C 
ATOM     13  H   UNL     1       2.050  -6.894  -1.841  0.00  0.00    -0.086 HD
ATOM     14  H   UNL     1       0.970  -7.826  -1.020  0.00  0.00    -0.086 HD
ENDROOT
BRANCH   5  15
ATOM     15  C   UNL     1       1.988  -2.246  -2.035  0.00  0.00    +0.219 C 
ATOM     16  O   UNL     1       1.883  -1.710  -0.952  0.00  0.00    -0.275 OA
ATOM     17  N   UNL     1       3.189  -2.308  -2.643  0.00  0.00    -0.304 N 
ATOM     18  H   UNL     1       3.273  -2.737  -3.509  0.00  0.00    +0.149 HD
BRANCH  17  19
ATOM     19  C   UNL     1       4.369  -1.728  -1.995  0.00  0.00    +0.151 C 
ATOM     20  C   UNL     1       5.378  -1.323  -3.071  0.00  0.00    +0.042 C 
ATOM     21  C   UNL     1       6.776  -1.273  -2.410  0.00  0.00    +0.079 C 
ATOM     22  S   UNL     1       6.609  -2.537  -1.091  0.00  0.00    -0.086 S 
ATOM     23  C   UNL     1       4.946  -2.738  -1.031  0.00  0.00    +0.209 C 
ATOM     24  O   UNL     1       4.332  -3.533  -0.351  0.00  0.00    -0.283 OA
ENDBRANCH  17  19
ENDBRANCH   5  15
BRANCH   1  25
ATOM     25  C   UNL     1      -1.691  -0.406  -0.180  0.00  0.00    +0.261 C 
BRANCH  25  27
ATOM     26  C   UNL     1      -0.209   1.591   0.063  0.00  0.00    +0.011 C 
ATOM     27  C   UNL     1      -0.259   0.062   0.086  0.00  0.00    +0.033 C 
ATOM     28  C   UNL     1       0.195  -0.443   1.457  0.00  0.00    +0.011 C 
ENDBRANCH  25  27
BRANCH  25  29
ATOM     29  O   UNL     1      -2.542   0.040   0.877  0.00  0.00    -0.479 OA
BRANCH  29  30
ATOM     30  C   UNL     1      -3.177   1.229   0.698  0.00  0.00    +0.122 A 
ATOM     31  C   UNL     1      -3.044   1.914  -0.500  0.00  0.00    +0.045 A 
ATOM     32  C   UNL     1      -3.690   3.122  -0.680  0.00  0.00    +0.004 A 
ATOM     33  C   UNL     1      -4.469   3.648   0.335  0.00  0.00    +0.000 A 
ATOM     34  C   UNL     1      -4.603   2.967   1.530  0.00  0.00    +0.004 A 
ATOM     35  C   UNL     1      -3.963   1.756   1.712  0.00  0.00    +0.045 A 
ENDBRANCH  29  30
ENDBRANCH  25  29
ENDBRANCH   1  25
TORSDOF 6
