REMARK  Name = ZINC40680248
REMARK  9 active torsions:
REMARK  status: ('A' for Active; 'I' for Inactive)
REMARK    1  A    between atoms: C_1  and  C_2
REMARK    2  A    between atoms: C_2  and  C_3
REMARK    3  A    between atoms: C_3  and  C_4
REMARK    4  A    between atoms: C_4  and  C_5
REMARK    5  A    between atoms: C_8  and  N_11
REMARK    6  A    between atoms: C_13  and  N_32
REMARK    7  A    between atoms: C_14  and  N_18
REMARK    8  A    between atoms: N_18  and  C_19
REMARK    9  A    between atoms: C_19  and  C_20
REMARK                            x       y       z     vdW  Elec       q    Type
REMARK                         _______ _______ _______ _____ _____    ______ ____
ROOT
ATOM      1  N   UNL     1       3.305  -3.849  -6.103  0.00  0.00    -0.299 N 
ATOM      2  C   UNL     1       4.689  -3.980  -6.055  0.00  0.00    +0.126 A 
ATOM      3  C   UNL     1       5.410  -4.311  -7.204  0.00  0.00    +0.104 A 
ATOM      4  C   UNL     1       6.797  -4.429  -7.100  0.00  0.00    +0.153 A 
ATOM      5  N   UNL     1       7.375  -4.224  -5.919  0.00  0.00    -0.220 NA
ATOM      6  C   UNL     1       6.657  -3.914  -4.858  0.00  0.00    +0.200 A 
ATOM      7  N   UNL     1       5.347  -3.787  -4.914  0.00  0.00    -0.333 N 
ATOM      8  H   UNL     1       2.824  -4.082  -6.912  0.00  0.00    +0.154 HD
ATOM      9  H   UNL     1       4.854  -3.553  -4.112  0.00  0.00    +0.168 HD
ENDROOT
BRANCH   4  10
ATOM     10  N   UNL     1       7.563  -4.757  -8.214  0.00  0.00    -0.264 N 
ATOM     11  C   UNL     1       7.918  -6.082  -8.449  0.00  0.00    +0.127 A 
ATOM     12  C   UNL     1       7.375  -7.091  -7.661  0.00  0.00    +0.044 A 
ATOM     13  C   UNL     1       7.736  -8.404  -7.905  0.00  0.00    +0.005 A 
ATOM     14  C   UNL     1       8.633  -8.664  -8.934  0.00  0.00    +0.020 A 
ATOM     15  C   UNL     1       9.133  -7.613  -9.676  0.00  0.00    +0.113 A 
ATOM     16  N   UNL     1       8.767  -6.371  -9.423  0.00  0.00    -0.240 NA
BRANCH  10  17
ATOM     17  C   UNL     1       7.996  -3.708  -9.140  0.00  0.00    +0.149 C 
BRANCH  17  18
ATOM     18  C   UNL     1       9.330  -3.165  -8.696  0.00  0.00    -0.030 A 
ATOM     19  C   UNL     1       9.384  -2.099  -7.817  0.00  0.00    +0.005 A 
ATOM     20  C   UNL     1      10.608  -1.601  -7.410  0.00  0.00    +0.000 A 
ATOM     21  C   UNL     1      11.777  -2.169  -7.880  0.00  0.00    +0.000 A 
ATOM     22  C   UNL     1      11.722  -3.236  -8.758  0.00  0.00    +0.000 A 
ATOM     23  C   UNL     1      10.499  -3.737  -9.162  0.00  0.00    +0.005 A 
ENDBRANCH  17  18
ENDBRANCH  10  17
ENDBRANCH   4  10
BRANCH   1  27
ATOM     24  C   UNL     1       1.228  -2.457  -2.772  0.00  0.00    -0.047 A 
ATOM     25  C   UNL     1       2.439  -1.885  -3.119  0.00  0.00    +0.005 A 
ATOM     26  C   UNL     1       3.130  -2.344  -4.223  0.00  0.00    +0.023 A 
ATOM     27  C   UNL     1       2.608  -3.382  -4.985  0.00  0.00    +0.032 A 
ATOM     28  C   UNL     1       1.393  -3.955  -4.634  0.00  0.00    +0.023 A 
ATOM     29  C   UNL     1       0.709  -3.494  -3.525  0.00  0.00    +0.005 A 
BRANCH  24  30
ATOM     30  C   UNL     1       0.477  -1.953  -1.567  0.00  0.00    +0.035 C 
BRANCH  30  31
ATOM     31  C   UNL     1       0.917  -2.735  -0.328  0.00  0.00    +0.004 C 
BRANCH  31  33
ATOM     32  C   UNL     1       0.595  -3.005   2.135  0.00  0.00    +0.004 C 
ATOM     33  C   UNL     1       0.154  -2.223   0.896  0.00  0.00    -0.003 C 
ENDBRANCH  31  33
ENDBRANCH  30  31
ENDBRANCH  24  30
ENDBRANCH   1  27
BRANCH   3  34
ATOM     34  N   UNL     1       4.758  -4.519  -8.430  0.00  0.00    -0.353 N 
ATOM     35  H   UNL     1       3.804  -4.360  -8.505  0.00  0.00    +0.143 HD
ATOM     36  H   UNL     1       5.262  -4.821  -9.201  0.00  0.00    +0.143 HD
ENDBRANCH   3  34
TORSDOF 8
