REMARK  Name = ZINC04005222
REMARK  3 active torsions:
REMARK  status: ('A' for Active; 'I' for Inactive)
REMARK    1  A    between atoms: C_1  and  C_2
REMARK    2  A    between atoms: C_2  and  N_3
REMARK    3  A    between atoms: C_14  and  C_16
REMARK                            x       y       z     vdW  Elec       q    Type
REMARK                         _______ _______ _______ _____ _____    ______ ____
ROOT
ATOM      1  C   UNL     1       6.066  -1.699  -2.421  0.00  0.00    +0.217 C 
ATOM      2  N   UNL     1       6.712  -2.409  -1.322  0.00  0.00    -0.337 N 
ATOM      3  C   UNL     1       7.625  -1.909  -0.558  0.00  0.00    +0.159 C 
ATOM      4  N   UNL     1       8.109  -0.623  -0.711  0.00  0.00    -0.259 N 
ATOM      5  C   UNL     1       7.772   0.037  -1.885  0.00  0.00    +0.205 A 
ATOM      6  N   UNL     1       6.798  -0.468  -2.717  0.00  0.00    -0.287 N 
ATOM      7  C   UNL     1       6.699   0.386  -3.777  0.00  0.00    +0.072 A 
ATOM      8  C   UNL     1       5.901   0.391  -4.915  0.00  0.00    +0.028 A 
ATOM      9  C   UNL     1       6.072   1.443  -5.801  0.00  0.00    +0.002 A 
ATOM     10  C   UNL     1       6.994   2.450  -5.575  0.00  0.00    +0.002 A 
ATOM     11  C   UNL     1       7.799   2.469  -4.451  0.00  0.00    +0.030 A 
ATOM     12  C   UNL     1       7.644   1.416  -3.542  0.00  0.00    +0.091 A 
ATOM     13  N   UNL     1       8.257   1.141  -2.378  0.00  0.00    -0.214 NA
ATOM     14  N   UNL     1       8.137  -2.688   0.453  0.00  0.00    -0.332 N 
ATOM     15  H   UNL     1       8.658  -0.202  -0.031  0.00  0.00    +0.158 HD
ATOM     16  H   UNL     1       7.812  -3.594   0.579  0.00  0.00    +0.145 HD
ATOM     17  H   UNL     1       8.823  -2.333   1.039  0.00  0.00    +0.145 HD
ATOM     18  H   UNL     1       6.436  -3.324  -1.153  0.00  0.00    +0.164 HD
ENDROOT
BRANCH   1  30
ATOM     19  N   UNL     1       0.688  -0.476  -1.203  0.00  0.00    -0.340 N 
ATOM     20  C   UNL     1       0.070  -0.736  -2.414  0.00  0.00    +0.050 A 
ATOM     21  C   UNL     1      -1.255  -0.642  -2.829  0.00  0.00    +0.026 A 
ATOM     22  C   UNL     1      -1.597  -0.971  -4.123  0.00  0.00    +0.002 A 
ATOM     23  C   UNL     1      -0.631  -1.397  -5.022  0.00  0.00    +0.001 A 
ATOM     24  C   UNL     1       0.686  -1.497  -4.629  0.00  0.00    +0.010 A 
ATOM     25  C   UNL     1       1.046  -1.168  -3.324  0.00  0.00    +0.008 A 
ATOM     26  C   UNL     1       2.329  -1.162  -2.597  0.00  0.00    +0.008 A 
ATOM     27  C   UNL     1       2.046  -0.721  -1.296  0.00  0.00    +0.050 A 
ATOM     28  C   UNL     1       3.083  -0.609  -0.375  0.00  0.00    +0.027 A 
ATOM     29  C   UNL     1       4.373  -0.926  -0.745  0.00  0.00    +0.009 A 
ATOM     30  C   UNL     1       4.650  -1.357  -2.033  0.00  0.00    -0.004 A 
ATOM     31  C   UNL     1       3.635  -1.483  -2.957  0.00  0.00    +0.018 A 
BRANCH  19  33
ATOM     32  C   UNL     1      -0.019   1.526   0.010  0.00  0.00    +0.027 C 
ATOM     33  C   UNL     1       0.002  -0.004   0.002  0.00  0.00    +0.119 C 
ENDBRANCH  19  33
ENDBRANCH   1  30
TORSDOF 2
