REMARK  Name = ZINC39322041
REMARK  9 active torsions:
REMARK  status: ('A' for Active; 'I' for Inactive)
REMARK    1  A    between atoms: C_1  and  C_2
REMARK    2  A    between atoms: C_3  and  C_16
REMARK    3  A    between atoms: N_6  and  C_9
REMARK    4  A    between atoms: C_16  and  C_18
REMARK    5  A    between atoms: C_16  and  C_25
REMARK    6  A    between atoms: C_22  and  O_24
REMARK    7  A    between atoms: C_26  and  C_39
REMARK    8  A    between atoms: N_28  and  C_32
REMARK    9  A    between atoms: C_29  and  O_31
REMARK                            x       y       z     vdW  Elec       q    Type
REMARK                         _______ _______ _______ _____ _____    ______ ____
ROOT
ATOM      1  C   UNL     1      -2.518  -0.354   0.013  0.00  0.00    +0.088 C 
ENDROOT
BRANCH   1   4
ATOM      2  C   UNL     1      -0.364   0.140   2.206  0.00  0.00    +0.065 C 
ATOM      3  C   UNL     1      -0.145  -0.581   0.901  0.00  0.00    +0.039 A 
ATOM      4  C   UNL     1      -1.078  -0.794  -0.048  0.00  0.00    +0.051 A 
ATOM      5  C   UNL     1      -0.470  -1.502  -1.111  0.00  0.00    +0.276 A 
ATOM      6  O   UNL     1      -1.015  -1.865  -2.138  0.00  0.00    -0.266 OA
ATOM      7  N   UNL     1       0.822  -1.704  -0.781  0.00  0.00    -0.219 N 
ATOM      8  N   UNL     1       1.035  -1.124   0.477  0.00  0.00    -0.294 N 
ATOM      9  H   UNL     1       1.874  -1.111   0.963  0.00  0.00    +0.187 HD
BRANCH   7  10
ATOM     10  C   UNL     1       1.778  -2.368  -1.557  0.00  0.00    +0.067 A 
ATOM     11  C   UNL     1       1.429  -2.888  -2.796  0.00  0.00    +0.029 A 
ATOM     12  C   UNL     1       2.376  -3.542  -3.560  0.00  0.00    +0.022 A 
ATOM     13  C   UNL     1       3.670  -3.681  -3.091  0.00  0.00    +0.041 A 
ATOM     14  C   UNL     1       4.020  -3.164  -1.856  0.00  0.00    +0.022 A 
ATOM     15  C   UNL     1       3.079  -2.503  -1.091  0.00  0.00    +0.029 A 
ATOM     16 CL   UNL     1       4.857  -4.505  -4.054  0.00  0.00    -0.084 Cl
ENDBRANCH   7  10
ENDBRANCH   1   4
BRANCH   1  17
ATOM     17  C   UNL     1      -3.180  -0.968   1.220  0.00  0.00    +0.008 C 
ATOM     18  C   UNL     1      -3.826  -0.320   2.166  0.00  0.00    +0.023 C 
ATOM     19  N   UNL     1      -4.316  -1.176   3.133  0.00  0.00    -0.266 N 
ATOM     20  N   UNL     1      -3.982  -2.502   2.825  0.00  0.00    -0.221 N 
ATOM     21  C   UNL     1      -3.229  -2.440   1.561  0.00  0.00    +0.250 C 
ATOM     22  C   UNL     1      -4.008   1.176   2.192  0.00  0.00    +0.062 C 
ATOM     23  H   UNL     1      -4.820  -0.898   3.915  0.00  0.00    +0.170 HD
BRANCH  20  24
ATOM     24  C   UNL     1      -4.301  -3.645   3.562  0.00  0.00    +0.051 A 
ATOM     25  C   UNL     1      -3.887  -4.896   3.121  0.00  0.00    +0.026 A 
ATOM     26  C   UNL     1      -4.203  -6.024   3.852  0.00  0.00    +0.022 A 
ATOM     27  C   UNL     1      -4.932  -5.910   5.022  0.00  0.00    +0.041 A 
ATOM     28  C   UNL     1      -5.346  -4.666   5.465  0.00  0.00    +0.022 A 
ATOM     29  C   UNL     1      -5.028  -3.533   4.740  0.00  0.00    +0.026 A 
ATOM     30 CL   UNL     1      -5.328  -7.331   5.938  0.00  0.00    -0.084 Cl
ENDBRANCH  20  24
BRANCH  21  31
ATOM     31  O   UNL     1      -1.909  -2.954   1.744  0.00  0.00    -0.369 OA
ATOM     32  H   UNL     1      -1.880  -3.895   1.965  0.00  0.00    +0.212 HD
ENDBRANCH  21  31
ENDBRANCH   1  17
BRANCH   1  33
ATOM     33  C   UNL     1      -3.234  -0.804  -1.235  0.00  0.00    -0.032 A 
ATOM     34  C   UNL     1      -3.414  -2.153  -1.480  0.00  0.00    +0.005 A 
ATOM     35  C   UNL     1      -4.070  -2.568  -2.624  0.00  0.00    +0.004 A 
ATOM     36  C   UNL     1      -4.547  -1.636  -3.526  0.00  0.00    +0.045 A 
ATOM     37  C   UNL     1      -4.367  -0.282  -3.282  0.00  0.00    +0.117 A 
ATOM     38  C   UNL     1      -3.714   0.132  -2.131  0.00  0.00    +0.050 A 
BRANCH  37  39
ATOM     39  O   UNL     1      -4.835   0.636  -4.167  0.00  0.00    -0.507 OA
ATOM     40  H   UNL     1      -5.741   0.927  -3.991  0.00  0.00    +0.292 HD
ENDBRANCH  37  39
ENDBRANCH   1  33
TORSDOF 7
