REMARK  Name = ZINC08790420
REMARK  7 active torsions:
REMARK  status: ('A' for Active; 'I' for Inactive)
REMARK    1  A    between atoms: C_1  and  C_2
REMARK    2  A    between atoms: C_4  and  C_38
REMARK    3  A    between atoms: C_13  and  C_15
REMARK    4  A    between atoms: C_15  and  C_16
REMARK    5  A    between atoms: N_24  and  C_27
REMARK    6  A    between atoms: C_27  and  C_28
REMARK    7  A    between atoms: C_28  and  C_29
REMARK                            x       y       z     vdW  Elec       q    Type
REMARK                         _______ _______ _______ _____ _____    ______ ____
ROOT
ATOM      1  C   UNL     1       0.132  -5.794   0.285  0.00  0.00    +0.044 C 
ATOM      2  C   UNL     1       1.150  -4.790   0.763  0.00  0.00    -0.050 A 
ATOM      3  C   UNL     1       2.393  -5.215   1.195  0.00  0.00    +0.008 A 
ATOM      4  C   UNL     1       3.328  -4.301   1.635  0.00  0.00    -0.029 A 
ATOM      5  C   UNL     1       3.026  -2.941   1.648  0.00  0.00    +0.039 A 
ATOM      6  C   UNL     1       1.773  -2.525   1.209  0.00  0.00    -0.027 A 
ATOM      7  C   UNL     1       0.843  -3.441   0.772  0.00  0.00    +0.008 A 
ATOM      8  C   UNL     1       1.766  -1.029   1.344  0.00  0.00    +0.050 C 
ATOM      9  C   UNL     1       1.519  -0.343  -0.005  0.00  0.00    +0.088 C 
ATOM     10  C   UNL     1       0.002  -0.004   0.002  0.00  0.00    +0.073 C 
ATOM     11  C   UNL     1      -0.531  -0.529   1.352  0.00  0.00    -0.053 C 
ATOM     12  C   UNL     1      -0.018   1.507   0.010  0.00  0.00    +0.224 C 
ATOM     13  O   UNL     1      -1.017   2.194   0.019  0.00  0.00    -0.275 OA
ATOM     14  N   UNL     1       1.237   1.969   0.001  0.00  0.00    -0.241 N 
ATOM     15  C   UNL     1       2.179   1.018  -0.011  0.00  0.00    +0.225 C 
ATOM     16  O   UNL     1       3.374   1.217  -0.024  0.00  0.00    -0.275 OA
ATOM     17  C   UNL     1       3.121  -0.680   1.897  0.00  0.00    +0.211 C 
ATOM     18  O   UNL     1       3.532   0.430   2.162  0.00  0.00    -0.277 OA
ATOM     19  N   UNL     1       3.790  -1.841   2.042  0.00  0.00    -0.286 N 
ATOM     20  C   UNL     1       4.679  -4.775   2.104  0.00  0.00    +0.045 C 
ATOM     21  H   UNL     1       4.696  -1.904   2.381  0.00  0.00    +0.155 HD
ATOM     22  N   UNL     1       0.682  -0.579   2.200  0.00  0.00    +0.394 N 
ATOM     23  H   UNL     1       0.890   0.354   2.576  0.00  0.00    -0.083 HD
ATOM     24  H   UNL     1       0.545  -1.238   2.976  0.00  0.00    -0.083 HD
ENDROOT
BRANCH  11  25
ATOM     25  C   UNL     1      -1.585   0.425   1.915  0.00  0.00    +0.020 C 
BRANCH  25  26
ATOM     26  C   UNL     1      -2.180  -0.166   3.168  0.00  0.00    -0.049 A 
ATOM     27  C   UNL     1      -3.298  -0.974   3.087  0.00  0.00    +0.003 A 
ATOM     28  C   UNL     1      -3.841  -1.520   4.235  0.00  0.00    +0.000 A 
ATOM     29  C   UNL     1      -3.271  -1.249   5.465  0.00  0.00    +0.000 A 
ATOM     30  C   UNL     1      -2.156  -0.436   5.547  0.00  0.00    +0.000 A 
ATOM     31  C   UNL     1      -1.611   0.106   4.398  0.00  0.00    +0.003 A 
ENDBRANCH  25  26
ENDBRANCH  11  25
BRANCH  14  32
ATOM     32  C   UNL     1       1.556   3.399   0.003  0.00  0.00    +0.121 C 
BRANCH  32  33
ATOM     33  C   UNL     1       1.680   3.892   1.446  0.00  0.00    +0.054 C 
BRANCH  33  34
ATOM     34  C   UNL     1       2.007   5.363   1.448  0.00  0.00    -0.046 A 
ATOM     35  C   UNL     1       3.326   5.777   1.443  0.00  0.00    +0.004 A 
ATOM     36  C   UNL     1       3.626   7.127   1.440  0.00  0.00    +0.000 A 
ATOM     37  C   UNL     1       2.608   8.061   1.452  0.00  0.00    +0.000 A 
ATOM     38  C   UNL     1       1.289   7.647   1.462  0.00  0.00    +0.000 A 
ATOM     39  C   UNL     1       0.989   6.298   1.460  0.00  0.00    +0.004 A 
ENDBRANCH  33  34
ENDBRANCH  32  33
ENDBRANCH  14  32
TORSDOF 5
