REMARK  Name = ZINC36697823
REMARK  6 active torsions:
REMARK  status: ('A' for Active; 'I' for Inactive)
REMARK    1  A    between atoms: C_4  and  C_7
REMARK    2  A    between atoms: C_7  and  C_9
REMARK    3  A    between atoms: C_7  and  C_29
REMARK    4  A    between atoms: C_9  and  N_10
REMARK    5  A    between atoms: C_11  and  C_13
REMARK    6  A    between atoms: C_13  and  N_14
REMARK                            x       y       z     vdW  Elec       q    Type
REMARK                         _______ _______ _______ _____ _____    ______ ____
ROOT
ATOM      1  N   UNL     1       3.861  -0.748   2.403  0.00  0.00    -0.313 N 
ATOM      2  C   UNL     1       3.954  -1.314   3.623  0.00  0.00    +0.231 C 
ATOM      3  O   UNL     1       4.003  -2.521   3.730  0.00  0.00    -0.274 OA
ATOM      4  H   UNL     1       3.822   0.217   2.318  0.00  0.00    +0.149 HD
ENDROOT
BRANCH   1   5
ATOM      5  C   UNL     1       3.817  -1.592   1.206  0.00  0.00    +0.117 C 
BRANCH   5   6
ATOM      6  C   UNL     1       3.711  -0.707  -0.038  0.00  0.00    +0.068 C 
BRANCH   6   7
ATOM      7  C   UNL     1       3.790  -1.566  -1.273  0.00  0.00    -0.013 A 
ATOM      8  C   UNL     1       2.949  -2.556  -1.613  0.00  0.00    +0.088 A 
ATOM      9  N   UNL     1       3.336  -3.110  -2.802  0.00  0.00    -0.360 N 
ATOM     10  H   UNL     1       2.883  -3.842  -3.250  0.00  0.00    +0.165 HD
ATOM     11  C   UNL     1       4.465  -2.475  -3.269  0.00  0.00    +0.047 A 
ATOM     12  C   UNL     1       4.795  -1.476  -2.335  0.00  0.00    +0.003 A 
ATOM     13  C   UNL     1       5.906  -0.659  -2.552  0.00  0.00    +0.010 A 
ATOM     14  C   UNL     1       6.666  -0.831  -3.675  0.00  0.00    +0.001 A 
ATOM     15  C   UNL     1       6.342  -1.813  -4.601  0.00  0.00    +0.002 A 
ATOM     16  C   UNL     1       5.256  -2.636  -4.402  0.00  0.00    +0.026 A 
ENDBRANCH   6   7
BRANCH   6  20
ATOM     17  C   UNL     1      -0.017   1.378   0.010  0.00  0.00    +0.000 A 
ATOM     18  C   UNL     1       1.171   2.086   0.002  0.00  0.00    +0.000 A 
ATOM     19  C   UNL     1       2.377   1.411  -0.013  0.00  0.00    +0.004 A 
ATOM     20  C   UNL     1       2.396   0.029  -0.020  0.00  0.00    -0.038 A 
ATOM     21  C   UNL     1       1.208  -0.679  -0.012  0.00  0.00    +0.004 A 
ATOM     22  C   UNL     1       0.002  -0.004   0.002  0.00  0.00    +0.000 A 
ENDBRANCH   6  20
ENDBRANCH   5   6
ENDBRANCH   1   5
BRANCH   2  23
ATOM     23  C   UNL     1       3.999  -0.446   4.854  0.00  0.00    +0.213 C 
BRANCH  23  24
ATOM     24  N   UNL     1       4.101  -1.293   6.045  0.00  0.00    -0.215 N 
ATOM     25  C   UNL     1       3.039  -1.775   6.727  0.00  0.00    +0.251 C 
ATOM     26  O   UNL     1       1.865  -1.598   6.482  0.00  0.00    -0.272 OA
ATOM     27  C   UNL     1       3.626  -2.580   7.857  0.00  0.00    +0.138 C 
ATOM     28  C   UNL     1       3.181  -2.034   9.220  0.00  0.00    +0.045 C 
ATOM     29  C   UNL     1       3.115  -3.317  10.079  0.00  0.00    +0.038 C 
ATOM     30  C   UNL     1       2.877  -4.443   9.094  0.00  0.00    -0.042 A 
ATOM     31  C   UNL     1       3.175  -4.015   7.811  0.00  0.00    -0.012 A 
ATOM     32  C   UNL     1       3.031  -4.887   6.746  0.00  0.00    +0.006 A 
ATOM     33  C   UNL     1       2.591  -6.179   6.957  0.00  0.00    +0.000 A 
ATOM     34  C   UNL     1       2.293  -6.606   8.238  0.00  0.00    +0.000 A 
ATOM     35  C   UNL     1       2.437  -5.738   9.303  0.00  0.00    +0.004 A 
ATOM     36  N   UNL     1       5.074  -2.460   7.683  0.00  0.00    -0.281 N 
ATOM     37  C   UNL     1       5.258  -1.691   6.590  0.00  0.00    +0.310 C 
ATOM     38  O   UNL     1       6.351  -1.389   6.152  0.00  0.00    -0.252 OA
ATOM     39  H   UNL     1       5.763  -2.857   8.238  0.00  0.00    +0.152 HD
ENDBRANCH  23  24
ENDBRANCH   2  23
TORSDOF 6
