REMARK  Name = ZINC63697965
REMARK  10 active torsions:
REMARK  status: ('A' for Active; 'I' for Inactive)
REMARK    1  A    between atoms: C_1  and  C_2
REMARK    2  A    between atoms: C_8  and  C_11
REMARK    3  A    between atoms: C_11  and  C_12
REMARK    4  A    between atoms: C_12  and  N_13
REMARK    5  A    between atoms: C_14  and  C_16
REMARK    6  A    between atoms: C_16  and  S_17
REMARK    7  A    between atoms: S_17  and  C_19
REMARK    8  A    between atoms: C_19  and  C_20
REMARK    9  A    between atoms: N_24  and  C_32
REMARK   10  A    between atoms: C_25  and  N_27
REMARK                            x       y       z     vdW  Elec       q    Type
REMARK                         _______ _______ _______ _____ _____    ______ ____
ROOT
ATOM      1  S   UNL     1      -4.235  -2.403   8.412  0.00  0.00    +0.031 S 
ATOM      2  O   UNL     1      -5.001  -1.368   7.811  0.00  0.00    -0.257 OA
ENDROOT
BRANCH   1   3
ATOM      3  C   UNL     1      -2.534  -2.338   7.783  0.00  0.00    +0.199 C 
BRANCH   3   5
ATOM      4  N   UNL     1      -1.377  -2.600   5.613  0.00  0.00    -0.314 N 
ATOM      5  C   UNL     1      -2.537  -2.599   6.299  0.00  0.00    +0.225 C 
ATOM      6  O   UNL     1      -3.583  -2.808   5.722  0.00  0.00    -0.275 OA
ATOM      7  H   UNL     1      -0.540  -2.433   6.075  0.00  0.00    +0.149 HD
BRANCH   4   8
ATOM      8  C   UNL     1      -1.379  -2.854   4.170  0.00  0.00    +0.108 C 
BRANCH   8   9
ATOM      9  C   UNL     1       0.055  -2.799   3.641  0.00  0.00    +0.052 C 
BRANCH   9  17
ATOM     10  C   UNL     1      -0.018   1.503   0.010  0.00  0.00    +0.044 C 
ATOM     11  C   UNL     1       0.002  -0.004   0.002  0.00  0.00    -0.050 A 
ATOM     12  C   UNL     1       0.005  -0.680  -1.226  0.00  0.00    +0.005 A 
ATOM     13  C   UNL     1       0.023  -2.026  -1.317  0.00  0.00    +0.026 A 
ATOM     14  C   UNL     1       0.039  -2.826  -0.141  0.00  0.00    +0.043 A 
ATOM     15  N   UNL     1       0.057  -4.126   0.030  0.00  0.00    -0.380 N 
ATOM     16  C   UNL     1       0.067  -4.408   1.470  0.00  0.00    +0.144 C 
ATOM     17  C   UNL     1       0.052  -3.060   2.156  0.00  0.00    -0.040 C 
ATOM     18  C   UNL     1       0.036  -2.137   1.168  0.00  0.00    -0.001 A 
ATOM     19  C   UNL     1       0.022  -0.669   1.180  0.00  0.00    +0.013 A 
ATOM     20  H   UNL     1       0.062  -4.790  -0.677  0.00  0.00    +0.160 HD
ENDBRANCH   9  17
ENDBRANCH   8   9
ENDBRANCH   4   8
ENDBRANCH   3   5
ENDBRANCH   1   3
BRANCH   1  21
ATOM     21  C   UNL     1      -4.060  -2.073  10.187  0.00  0.00    +0.112 C 
BRANCH  21  22
ATOM     22  C   UNL     1      -5.439  -2.099  10.849  0.00  0.00    +0.059 C 
ATOM     23  C   UNL     1      -6.290  -0.875  10.414  0.00  0.00    +0.110 C 
ATOM     24  N   UNL     1      -7.182  -0.693  11.587  0.00  0.00    -0.238 NA
ATOM     25  N   UNL     1      -6.431  -0.943  12.707  0.00  0.00    -0.244 N 
ATOM     26  C   UNL     1      -5.329  -1.861  12.374  0.00  0.00    +0.195 C 
ATOM     27  H   UNL     1      -7.976  -1.314  11.538  0.00  0.00    +0.144 HD
BRANCH  25  28
ATOM     28  C   UNL     1      -6.675  -0.408  13.974  0.00  0.00    +0.047 A 
ATOM     29  C   UNL     1      -5.841  -0.728  15.037  0.00  0.00    +0.024 A 
ATOM     30  C   UNL     1      -6.085  -0.196  16.288  0.00  0.00    +0.002 A 
ATOM     31  C   UNL     1      -7.159   0.653  16.483  0.00  0.00    +0.000 A 
ATOM     32  C   UNL     1      -7.991   0.974  15.427  0.00  0.00    +0.002 A 
ATOM     33  C   UNL     1      -7.750   0.451  14.171  0.00  0.00    +0.024 A 
ENDBRANCH  25  28
BRANCH  26  34
ATOM     34  N   UNL     1      -4.040  -1.245  12.700  0.00  0.00    -0.333 N 
ATOM     35  C   UNL     1      -3.738   0.079  12.573  0.00  0.00    +0.087 A 
ATOM     36  C   UNL     1      -2.462   0.259  12.970  0.00  0.00    +0.019 A 
ATOM     37  C   UNL     1      -1.958  -0.999  13.355  0.00  0.00    +0.019 A 
ATOM     38  C   UNL     1      -2.947  -1.899  13.185  0.00  0.00    +0.087 A 
ENDBRANCH  26  34
ENDBRANCH  21  22
ENDBRANCH   1  21
TORSDOF 9
