REMARK  Name = ZINC20271737
REMARK  13 active torsions:
REMARK  status: ('A' for Active; 'I' for Inactive)
REMARK    1  A    between atoms: C_1  and  C_2
REMARK    2  A    between atoms: C_2  and  C_3
REMARK    3  A    between atoms: C_2  and  N_4
REMARK    4  A    between atoms: C_6  and  N_25
REMARK    5  A    between atoms: C_9  and  C_11
REMARK    6  A    between atoms: N_13  and  C_14
REMARK    7  A    between atoms: C_14  and  C_15
REMARK    8  A    between atoms: C_15  and  C_16
REMARK    9  A    between atoms: N_25  and  C_26
REMARK   10  A    between atoms: C_26  and  C_27
REMARK   11  A    between atoms: C_31  and  O_33
REMARK   12  A    between atoms: O_33  and  C_34
REMARK   13  A    between atoms: C_34  and  C_35
REMARK                            x       y       z     vdW  Elec       q    Type
REMARK                         _______ _______ _______ _____ _____    ______ ____
ROOT
ATOM      1  N   UNL     1      -1.978   6.128   3.551  0.00  0.00    -0.291 NA
ATOM      2  C   UNL     1      -1.262   7.344   3.977  0.00  0.00    +0.070 C 
ATOM      3  C   UNL     1      -0.131   7.590   2.957  0.00  0.00    -0.055 C 
ATOM      4  C   UNL     1       0.087   6.187   2.332  0.00  0.00    +0.014 C 
ATOM      5  C   UNL     1      -1.358   5.628   2.305  0.00  0.00    +0.142 C 
ENDROOT
BRANCH   5   6
ATOM      6  C   UNL     1      -1.337   4.122   2.297  0.00  0.00    +0.230 C 
ATOM      7  O   UNL     1      -1.846   3.503   3.208  0.00  0.00    -0.274 OA
ATOM      8  N   UNL     1      -0.754   3.461   1.277  0.00  0.00    -0.314 N 
ATOM      9  H   UNL     1      -0.293   4.022   0.451  0.00  0.00    +0.149 HD
BRANCH   8  10
ATOM     10  C   UNL     1      -0.735   1.996   1.269  0.00  0.00    +0.109 C 
BRANCH  10  11
ATOM     11  C   UNL     1      -0.018   1.503   0.010  0.00  0.00    +0.054 C 
BRANCH  11  12
ATOM     12  C   UNL     1       0.002  -0.004   0.002  0.00  0.00    -0.042 A 
ATOM     13  C   UNL     1       1.058  -0.683   0.582  0.00  0.00    +0.007 A 
ATOM     14  C   UNL     1       1.079  -2.065   0.581  0.00  0.00    +0.050 A 
ATOM     15  C   UNL     1       0.046  -2.774  -0.011  0.00  0.00    +0.166 A 
ATOM     16  C   UNL     1      -1.015  -2.090  -0.600  0.00  0.00    +0.166 A 
ATOM     17  C   UNL     1      -1.032  -0.705  -0.591  0.00  0.00    +0.053 A 
ATOM     18  O   UNL     1      -1.893  -3.002  -1.109  0.00  0.00    -0.453 OA
ATOM     19  C   UNL     1      -1.566  -4.250  -0.468  0.00  0.00    +0.466 C 
ATOM     20  O   UNL     1      -0.168  -4.115  -0.150  0.00  0.00    -0.453 OA
ENDBRANCH  11  12
ENDBRANCH  10  11
ENDBRANCH   8  10
ENDBRANCH   5   6
BRANCH   1  22
ATOM     21  C   UNL     1      -4.041   6.795   4.690  0.00  0.00    +0.024 C 
ATOM     22  C   UNL     1      -3.408   6.401   3.354  0.00  0.00    +0.051 C 
ATOM     23  C   UNL     1      -3.576   7.545   2.353  0.00  0.00    +0.024 C 
ENDBRANCH   1  22
BRANCH   3  24
ATOM     24  N   UNL     1       1.089   8.054   3.630  0.00  0.00    +0.384 N 
ATOM     25  H   UNL     1       1.118   7.652   4.654  0.00  0.00    -0.085 HD
ATOM     26  H   UNL     1       1.971   7.704   3.073  0.00  0.00    -0.085 HD
BRANCH  24  27
ATOM     27  C   UNL     1       1.127   9.521   3.698  0.00  0.00    -0.046 C 
BRANCH  27  28
ATOM     28  C   UNL     1       2.391   9.959   4.394  0.00  0.00    -0.061 A 
ATOM     29  C   UNL     1       2.400  10.130   5.766  0.00  0.00    +0.002 A 
ATOM     30  C   UNL     1       3.558  10.527   6.408  0.00  0.00    +0.004 A 
ATOM     31  C   UNL     1       4.707  10.763   5.678  0.00  0.00    +0.045 A 
ATOM     32  C   UNL     1       4.699  10.596   4.301  0.00  0.00    +0.121 A 
ATOM     33  C   UNL     1       3.537  10.193   3.660  0.00  0.00    +0.047 A 
BRANCH  32  34
ATOM     34  O   UNL     1       5.829  10.827   3.581  0.00  0.00    -0.487 OA
BRANCH  34  35
ATOM     35  C   UNL     1       6.988  11.240   4.307  0.00  0.00    +0.264 C 
BRANCH  35  36
ATOM     36  C   UNL     1       8.133  11.447   3.350  0.00  0.00    -0.010 A 
ATOM     37  C   UNL     1       8.984  10.399   3.052  0.00  0.00    +0.007 A 
ATOM     38  C   UNL     1      10.031  10.587   2.171  0.00  0.00    +0.000 A 
ATOM     39  C   UNL     1      10.235  11.827   1.594  0.00  0.00    +0.000 A 
ATOM     40  C   UNL     1       9.387  12.877   1.895  0.00  0.00    +0.000 A 
ATOM     41  C   UNL     1       8.337  12.687   2.774  0.00  0.00    +0.007 A 
ENDBRANCH  35  36
ENDBRANCH  34  35
ENDBRANCH  32  34
ENDBRANCH  27  28
ENDBRANCH  24  27
ENDBRANCH   3  24
TORSDOF 11
