REMARK  Name = ZINC16362927
REMARK  6 active torsions:
REMARK  status: ('A' for Active; 'I' for Inactive)
REMARK    1  A    between atoms: C_1  and  C_2
REMARK    2  A    between atoms: C_7  and  N_8
REMARK    3  A    between atoms: C_9  and  C_11
REMARK    4  A    between atoms: C_12  and  C_35
REMARK    5  A    between atoms: C_16  and  C_18
REMARK    6  A    between atoms: C_23  and  N_24
REMARK                            x       y       z     vdW  Elec       q    Type
REMARK                         _______ _______ _______ _____ _____    ______ ____
ROOT
ATOM      1  C   UNL     1       0.914   7.431  -0.527  0.00  0.00    +0.043 C 
ATOM      2  C   UNL     1      -0.244   6.758  -0.544  0.00  0.00    +0.014 C 
ATOM      3  N   UNL     1      -0.314   5.394  -0.416  0.00  0.00    -0.317 N 
ATOM      4  C   UNL     1       0.852   4.673  -0.540  0.00  0.00    +0.047 C 
ATOM      5  C   UNL     1       2.082   5.273  -0.521  0.00  0.00    +0.034 C 
ATOM      6  C   UNL     1       2.252   6.763  -0.357  0.00  0.00    +0.093 C 
ATOM      7  C   UNL     1       3.084   4.296  -0.674  0.00  0.00    +0.193 C 
ATOM      8  O   UNL     1       4.283   4.496  -0.702  0.00  0.00    -0.287 OA
ATOM      9  C   UNL     1       2.409   2.972  -0.796  0.00  0.00    +0.031 A 
ATOM     10  C   UNL     1       1.025   3.215  -0.710  0.00  0.00    +0.007 A 
ATOM     11  C   UNL     1       0.139   2.155  -0.792  0.00  0.00    +0.010 A 
ATOM     12  C   UNL     1       0.619   0.861  -0.965  0.00  0.00    +0.001 A 
ATOM     13  C   UNL     1       1.974   0.625  -1.044  0.00  0.00    +0.001 A 
ATOM     14  C   UNL     1       2.875   1.683  -0.962  0.00  0.00    +0.012 A 
ATOM     15  C   UNL     1      -1.526   7.533  -0.710  0.00  0.00    +0.061 C 
ATOM     16  H   UNL     1      -1.282   4.909  -0.220  0.00  0.00    +0.152 HD
ENDROOT
BRANCH   6  17
ATOM     17  C   UNL     1       2.793   7.061   1.018  0.00  0.00    -0.005 A 
ATOM     18  C   UNL     1       1.924   7.225   2.082  0.00  0.00    +0.007 A 
ATOM     19  C   UNL     1       2.420   7.497   3.343  0.00  0.00    +0.000 A 
ATOM     20  C   UNL     1       3.784   7.605   3.541  0.00  0.00    +0.002 A 
ATOM     21  C   UNL     1       4.652   7.440   2.478  0.00  0.00    +0.033 A 
ATOM     22  C   UNL     1       4.157   7.163   1.218  0.00  0.00    +0.130 A 
BRANCH  22  23
ATOM     23  N   UNL     1       5.086   6.981   0.080  0.00  0.00    +0.057 N 
ATOM     24  O   UNL     1       6.287   6.926   0.278  0.00  0.00    -0.126 OA
ATOM     25  O   UNL     1       4.651   6.886  -1.053  0.00  0.00    -0.126 OA
ENDBRANCH  22  23
ENDBRANCH   6  17
BRANCH   1  27
ATOM     26  N   UNL     1       2.023   9.548  -0.667  0.00  0.00    -0.281 N 
ATOM     27  C   UNL     1       0.877   8.839  -0.678  0.00  0.00    +0.247 C 
ATOM     28  O   UNL     1      -0.190   9.409  -0.819  0.00  0.00    -0.270 OA
ATOM     29  H   UNL     1       2.988   9.032  -0.557  0.00  0.00    +0.155 HD
BRANCH  26  36
ATOM     30  C   UNL     1       3.987  11.077   0.712  0.00  0.00    +0.045 C 
ATOM     31  C   UNL     1       2.925  11.725  -0.138  0.00  0.00    -0.029 A 
ATOM     32  C   UNL     1       2.887  13.099  -0.270  0.00  0.00    +0.005 A 
ATOM     33  C   UNL     1       1.909  13.695  -1.045  0.00  0.00    +0.000 A 
ATOM     34  C   UNL     1       0.970  12.916  -1.696  0.00  0.00    +0.002 A 
ATOM     35  C   UNL     1       1.004  11.542  -1.573  0.00  0.00    +0.023 A 
ATOM     36  C   UNL     1       1.985  10.940  -0.794  0.00  0.00    +0.037 A 
ENDBRANCH  26  36
ENDBRANCH   1  27
TORSDOF 4
