REMARK  Name = ZINC21053533
REMARK  2 active torsions:
REMARK  status: ('A' for Active; 'I' for Inactive)
REMARK    1  A    between atoms: C_6  and  N_7
REMARK    2  A    between atoms: N_7  and  C_8
REMARK                            x       y       z     vdW  Elec       q    Type
REMARK                         _______ _______ _______ _____ _____    ______ ____
ROOT
ATOM      1  C   UNL     1      -2.478  -0.005   0.026  0.00  0.00    +0.190 C 
ATOM      2  C   UNL     1      -3.582  -0.880  -0.524  0.00  0.00    +0.004 A 
ATOM      3  C   UNL     1      -3.784  -1.471  -1.751  0.00  0.00    +0.027 A 
ATOM      4  C   UNL     1      -4.917  -2.238  -1.969  0.00  0.00    +0.041 A 
ATOM      5  C   UNL     1      -5.840  -2.406  -0.952  0.00  0.00    +0.022 A 
ATOM      6  C   UNL     1      -5.639  -1.814   0.277  0.00  0.00    +0.025 A 
ATOM      7  C   UNL     1      -4.501  -1.042   0.504  0.00  0.00    +0.039 A 
ATOM      8  N   UNL     1      -4.079  -0.352   1.642  0.00  0.00    -0.283 N 
ATOM      9  C   UNL     1      -2.907   0.283   1.449  0.00  0.00    +0.242 C 
ATOM     10  O   UNL     1      -2.308   0.957   2.260  0.00  0.00    -0.273 OA
ATOM     11 CL   UNL     1      -5.177  -2.985  -3.514  0.00  0.00    -0.084 Cl
ATOM     12  H   UNL     1      -4.574  -0.331   2.476  0.00  0.00    +0.155 HD
ENDROOT
BRANCH   1  13
ATOM     13  N   UNL     1      -1.200  -0.720   0.010  0.00  0.00    -0.329 N 
ATOM     14  H   UNL     1      -1.187  -1.690   0.004  0.00  0.00    +0.147 HD
BRANCH  13  20
ATOM     15  C   UNL     1      -0.017   1.384   0.010  0.00  0.00    +0.027 A 
ATOM     16  C   UNL     1       1.170   2.093   0.002  0.00  0.00    +0.051 A 
ATOM     17  C   UNL     1       2.381   1.421  -0.013  0.00  0.00    +0.166 A 
ATOM     18  C   UNL     1       2.403   0.028  -0.021  0.00  0.00    +0.168 A 
ATOM     19  C   UNL     1       1.214  -0.682  -0.013  0.00  0.00    +0.072 A 
ATOM     20  C   UNL     1       0.002  -0.004   0.002  0.00  0.00    +0.032 A 
ATOM     21  O   UNL     1       3.703  -0.388  -0.036  0.00  0.00    -0.453 OA
ATOM     22  C   UNL     1       4.469   0.759  -0.450  0.00  0.00    +0.466 C 
ATOM     23  O   UNL     1       3.669   1.877  -0.023  0.00  0.00    -0.453 OA
ENDBRANCH  13  20
ENDBRANCH   1  13
TORSDOF 2
