REMARK  Name = ZINC00925164
REMARK  7 active torsions:
REMARK  status: ('A' for Active; 'I' for Inactive)
REMARK    1  A    between atoms: C_1  and  C_2
REMARK    2  A    between atoms: C_2  and  O_3
REMARK    3  A    between atoms: O_3  and  C_4
REMARK    4  A    between atoms: C_11  and  C_15
REMARK    5  A    between atoms: C_18  and  C_29
REMARK    6  A    between atoms: C_24  and  N_28
REMARK    7  A    between atoms: C_25  and  C_26
REMARK                            x       y       z     vdW  Elec       q    Type
REMARK                         _______ _______ _______ _____ _____    ______ ____
ROOT
ATOM      1  C   UNL     1      -0.028  -0.422  -2.581  0.00  0.00    +0.104 C 
ATOM      2  C   UNL     1      -0.003  -0.813  -1.126  0.00  0.00    +0.049 A 
ATOM      3  C   UNL     1       0.002  -0.004   0.002  0.00  0.00    +0.068 A 
ATOM      4  N   UNL     1       0.022  -0.780   1.060  0.00  0.00    -0.176 NA
ATOM      5  N   UNL     1       0.037  -2.116   0.629  0.00  0.00    -0.246 N 
ATOM      6  H   UNL     1       0.054  -2.924   1.218  0.00  0.00    +0.192 HD
ATOM      7  C   UNL     1       0.024  -2.116  -0.713  0.00  0.00    +0.222 A 
ATOM      8  O   UNL     1       0.027  -3.159  -1.580  0.00  0.00    -0.423 OA
ATOM      9  C   UNL     1      -0.282  -2.900  -2.869  0.00  0.00    +0.200 C 
ATOM     10  C   UNL     1      -0.323  -1.656  -3.396  0.00  0.00    +0.098 C 
ATOM     11  C   UNL     1      -0.018   1.503   0.010  0.00  0.00    +0.068 C 
ENDROOT
BRANCH   1  19
ATOM     12  C   UNL     1       6.039  -0.206  -3.543  0.00  0.00    +0.121 A 
ATOM     13  C   UNL     1       6.063   1.108  -4.019  0.00  0.00    +0.048 A 
ATOM     14  C   UNL     1       4.921   1.840  -4.115  0.00  0.00    +0.032 A 
ATOM     15  C   UNL     1       3.692   1.272  -3.732  0.00  0.00    +0.073 A 
ATOM     16  C   UNL     1       3.668  -0.060  -3.250  0.00  0.00    +0.004 A 
ATOM     17  C   UNL     1       4.864  -0.789  -3.161  0.00  0.00    +0.055 A 
ATOM     18  C   UNL     1       2.436  -0.625  -2.867  0.00  0.00    +0.017 A 
ATOM     19  C   UNL     1       1.312   0.141  -2.979  0.00  0.00    +0.003 A 
ATOM     20  C   UNL     1       1.405   1.444  -3.467  0.00  0.00    +0.134 A 
ATOM     21  N   UNL     1       2.555   1.970  -3.817  0.00  0.00    -0.235 NA
ATOM     22 CL   UNL     1      -0.038   2.399  -3.608  0.00  0.00    -0.062 Cl
BRANCH  12  23
ATOM     23  O   UNL     1       7.197  -0.911  -3.458  0.00  0.00    -0.492 OA
BRANCH  23  25
ATOM     24  C   UNL     1       9.585  -1.192  -3.706  0.00  0.00    +0.048 C 
ATOM     25  C   UNL     1       8.393  -0.247  -3.872  0.00  0.00    +0.225 C 
ENDBRANCH  23  25
ENDBRANCH  12  23
ENDBRANCH   1  19
BRANCH   9  26
ATOM     26  N   UNL     1      -0.563  -3.961  -3.693  0.00  0.00    -0.328 N 
ATOM     27  H   UNL     1      -0.783  -3.806  -4.625  0.00  0.00    +0.145 HD
ATOM     28  H   UNL     1      -0.542  -4.865  -3.343  0.00  0.00    +0.145 HD
ENDBRANCH   9  26
BRANCH  10  29
ATOM     29  C   UNL     1      -0.660  -1.505  -4.779  0.00  0.00    +0.101 C 
ATOM     30  N   UNL     1      -0.927  -1.385  -5.877  0.00  0.00    -0.191 NA
ENDBRANCH  10  29
TORSDOF 5
