REMARK  Name = ZINC04847808
REMARK  6 active torsions:
REMARK  status: ('A' for Active; 'I' for Inactive)
REMARK    1  A    between atoms: C_10  and  C_12
REMARK    2  A    between atoms: C_10  and  C_19
REMARK    3  A    between atoms: C_10  and  N_53
REMARK    4  A    between atoms: C_15  and  O_18
REMARK    5  A    between atoms: N_23  and  C_24
REMARK    6  A    between atoms: C_24  and  C_25
REMARK                            x       y       z     vdW  Elec       q    Type
REMARK                         _______ _______ _______ _____ _____    ______ ____
ROOT
ATOM      1  C   UNL     1      -0.081   1.114   0.272  0.00  0.00    +0.034 C 
ENDROOT
BRANCH   1  11
ATOM      2  C   UNL     1      -0.255   3.240  -5.792  0.00  0.00    +0.000 A 
ATOM      3  C   UNL     1       0.852   2.425  -5.637  0.00  0.00    +0.000 A 
ATOM      4  C   UNL     1       1.077   1.795  -4.430  0.00  0.00    +0.002 A 
ATOM      5  C   UNL     1       0.200   1.973  -3.370  0.00  0.00    -0.061 A 
ATOM      6  C   UNL     1      -0.901   2.788  -3.524  0.00  0.00    -0.048 A 
ATOM      7  C   UNL     1      -1.128   3.420  -4.737  0.00  0.00    +0.004 A 
ATOM      8  C   UNL     1      -1.879   3.017  -2.401  0.00  0.00    +0.017 C 
ATOM      9  C   UNL     1      -1.702   1.942  -1.327  0.00  0.00    -0.072 C 
ATOM     10  C   UNL     1       0.484   1.257  -2.076  0.00  0.00    -0.041 C 
ATOM     11  N   UNL     1      -0.268   1.885  -0.977  0.00  0.00    +0.392 N 
ATOM     12  H   UNL     1       0.081   2.840  -0.834  0.00  0.00    -0.080 HD
ENDBRANCH   1  11
BRANCH   1  13
ATOM     13  C   UNL     1       1.394   0.947   0.533  0.00  0.00    -0.053 A 
ATOM     14  C   UNL     1       2.239   2.037   0.438  0.00  0.00    +0.006 A 
ATOM     15  C   UNL     1       3.591   1.888   0.682  0.00  0.00    +0.045 A 
ATOM     16  C   UNL     1       4.101   0.641   1.013  0.00  0.00    +0.117 A 
ATOM     17  C   UNL     1       3.252  -0.452   1.103  0.00  0.00    +0.045 A 
ATOM     18  C   UNL     1       1.901  -0.296   0.863  0.00  0.00    +0.006 A 
BRANCH  16  19
ATOM     19  O   UNL     1       5.432   0.491   1.248  0.00  0.00    -0.507 OA
ATOM     20  H   UNL     1       5.948   0.275   0.460  0.00  0.00    +0.292 HD
ENDBRANCH  16  19
ENDBRANCH   1  13
BRANCH   1  21
ATOM     21  C   UNL     1      -0.711   1.869   1.413  0.00  0.00    +0.143 A 
ATOM     22  N   UNL     1      -0.445   3.099   1.779  0.00  0.00    -0.115 NA
ATOM     23  N   UNL     1      -1.190   3.383   2.792  0.00  0.00    -0.023 NA
ATOM     24  N   UNL     1      -1.919   2.363   3.086  0.00  0.00    -0.044 NA
ATOM     25  N   UNL     1      -1.652   1.409   2.259  0.00  0.00    -0.226 N 
BRANCH  25  26
ATOM     26  C   UNL     1      -2.259   0.076   2.243  0.00  0.00    +0.182 C 
BRANCH  26  27
ATOM     27  C   UNL     1      -1.543  -0.814   3.225  0.00  0.00    -0.026 A 
ATOM     28  C   UNL     1      -0.543  -1.663   2.787  0.00  0.00    +0.008 A 
ATOM     29  C   UNL     1       0.118  -2.476   3.688  0.00  0.00    +0.038 A 
ATOM     30  C   UNL     1      -0.228  -2.448   5.028  0.00  0.00    +0.123 A 
ATOM     31  C   UNL     1      -1.233  -1.602   5.465  0.00  0.00    +0.038 A 
ATOM     32  C   UNL     1      -1.889  -0.786   4.564  0.00  0.00    +0.008 A 
ATOM     33  F   UNL     1       0.415  -3.246   5.909  0.00  0.00    -0.205 F 
ENDBRANCH  26  27
ENDBRANCH  25  26
ENDBRANCH   1  21
TORSDOF 6
