REMARK  Name = ZINC15771859
REMARK  14 active torsions:
REMARK  status: ('A' for Active; 'I' for Inactive)
REMARK    1  A    between atoms: C_1  and  N_2
REMARK    2  A    between atoms: N_2  and  C_3
REMARK    3  A    between atoms: N_2  and  C_4
REMARK    4  A    between atoms: C_7  and  C_10
REMARK    5  A    between atoms: C_10  and  C_12
REMARK    6  A    between atoms: C_10  and  C_18
REMARK    7  A    between atoms: C_20  and  C_26
REMARK    8  A    between atoms: C_21  and  O_25
REMARK    9  A    between atoms: C_23  and  O_24
REMARK   10  A    between atoms: C_26  and  C_28
REMARK   11  A    between atoms: C_26  and  C_37
REMARK   12  A    between atoms: C_31  and  N_34
REMARK   13  A    between atoms: N_34  and  C_35
REMARK   14  A    between atoms: N_34  and  C_36
REMARK                            x       y       z     vdW  Elec       q    Type
REMARK                         _______ _______ _______ _____ _____    ______ ____
ROOT
ATOM      1  C   UNL     1      -0.364  -0.004  -0.694  0.00  0.00    +0.008 A 
ATOM      2  C   UNL     1      -0.751   1.297  -0.953  0.00  0.00    +0.016 A 
ATOM      3  C   UNL     1      -1.846   1.547  -1.758  0.00  0.00    +0.008 A 
ATOM      4  C   UNL     1      -2.560   0.491  -2.307  0.00  0.00    +0.124 A 
ATOM      5  C   UNL     1      -2.174  -0.815  -2.048  0.00  0.00    +0.091 A 
ATOM      6  C   UNL     1      -1.071  -1.063  -1.245  0.00  0.00    +0.124 A 
ENDROOT
BRANCH   6   7
ATOM      7  O   UNL     1      -0.687  -2.342  -0.994  0.00  0.00    -0.506 OA
ATOM      8  H   UNL     1      -1.101  -2.730  -0.211  0.00  0.00    +0.292 HD
ENDBRANCH   6   7
BRANCH   4   9
ATOM      9  O   UNL     1      -3.637   0.738  -3.099  0.00  0.00    -0.506 OA
ATOM     10  H   UNL     1      -3.424   0.823  -4.038  0.00  0.00    +0.292 HD
ENDBRANCH   4   9
BRANCH   1  11
ATOM     11  C   UNL     1       0.831  -0.273   0.184  0.00  0.00    +0.101 C 
BRANCH  11  15
ATOM     12  C   UNL     1       0.056   1.178   4.129  0.00  0.00    +0.029 A 
ATOM     13  C   UNL     1      -0.997   0.945   3.254  0.00  0.00    +0.023 A 
ATOM     14  C   UNL     1      -0.743   0.476   1.980  0.00  0.00    +0.006 A 
ATOM     15  C   UNL     1       0.558   0.239   1.575  0.00  0.00    -0.034 A 
ATOM     16  C   UNL     1       1.608   0.464   2.446  0.00  0.00    +0.006 A 
ATOM     17  C   UNL     1       1.362   0.938   3.720  0.00  0.00    +0.023 A 
BRANCH  12  19
ATOM     18  C   UNL     1      -1.575   1.903   5.849  0.00  0.00    +0.129 C 
ATOM     19  N   UNL     1      -0.197   1.651   5.419  0.00  0.00    -0.336 N 
ATOM     20  C   UNL     1       0.915   1.897   6.341  0.00  0.00    +0.129 C 
ENDBRANCH  12  19
ENDBRANCH  11  15
BRANCH  11  21
ATOM     21  C   UNL     1       2.038   0.430  -0.381  0.00  0.00    +0.053 A 
ATOM     22  C   UNL     1       2.260   1.760  -0.076  0.00  0.00    +0.024 A 
ATOM     23  C   UNL     1       3.373   2.397  -0.601  0.00  0.00    +0.003 A 
ATOM     24  C   UNL     1       4.226   1.670  -1.417  0.00  0.00    +0.020 A 
ATOM     25  C   UNL     1       3.940   0.343  -1.679  0.00  0.00    +0.111 A 
ATOM     26  N   UNL     1       2.873  -0.232  -1.157  0.00  0.00    -0.259 NA
ENDBRANCH  11  21
ENDBRANCH   1  11
BRANCH   3  27
ATOM     27  C   UNL     1      -2.266   2.967  -2.039  0.00  0.00    +0.101 C 
BRANCH  27  28
ATOM     28  C   UNL     1      -1.166   3.677  -2.785  0.00  0.00    -0.034 A 
ATOM     29  C   UNL     1      -1.105   5.059  -2.772  0.00  0.00    +0.006 A 
ATOM     30  C   UNL     1      -0.095   5.713  -3.450  0.00  0.00    +0.023 A 
ATOM     31  C   UNL     1       0.854   4.982  -4.154  0.00  0.00    +0.029 A 
ATOM     32  C   UNL     1       0.786   3.595  -4.170  0.00  0.00    +0.023 A 
ATOM     33  C   UNL     1      -0.224   2.947  -3.485  0.00  0.00    +0.006 A 
BRANCH  31  34
ATOM     34  N   UNL     1       1.873   5.641  -4.846  0.00  0.00    -0.336 N 
ATOM     35  C   UNL     1       2.872   4.868  -5.589  0.00  0.00    +0.129 C 
ATOM     36  C   UNL     1       1.943   7.104  -4.829  0.00  0.00    +0.129 C 
ENDBRANCH  31  34
ENDBRANCH  27  28
BRANCH  27  37
ATOM     37  C   UNL     1      -2.532   3.679  -0.738  0.00  0.00    +0.053 A 
ATOM     38  C   UNL     1      -1.480   4.246  -0.042  0.00  0.00    +0.024 A 
ATOM     39  C   UNL     1      -1.736   4.899   1.154  0.00  0.00    +0.003 A 
ATOM     40  C   UNL     1      -3.045   4.958   1.607  0.00  0.00    +0.020 A 
ATOM     41  C   UNL     1      -4.044   4.367   0.858  0.00  0.00    +0.111 A 
ATOM     42  N   UNL     1      -3.765   3.758  -0.278  0.00  0.00    -0.259 NA
ENDBRANCH  27  37
ENDBRANCH   3  27
TORSDOF 10
