REMARK  Name = ZINC14877829
REMARK  4 active torsions:
REMARK  status: ('A' for Active; 'I' for Inactive)
REMARK    1  A    between atoms: C_1  and  C_2
REMARK    2  A    between atoms: C_3  and  C_16
REMARK    3  A    between atoms: C_4  and  C_10
REMARK    4  A    between atoms: N_18  and  C_19
REMARK                            x       y       z     vdW  Elec       q    Type
REMARK                         _______ _______ _______ _____ _____    ______ ____
ROOT
ATOM      1  C   UNL     1      -3.935   7.859   0.202  0.00  0.00    +0.061 C 
ATOM      2  C   UNL     1      -2.694   8.712   0.150  0.00  0.00    +0.017 C 
ATOM      3  C   UNL     1      -1.483   8.120   0.088  0.00  0.00    +0.056 C 
ATOM      4  C   UNL     1      -0.262   9.015   0.031  0.00  0.00    +0.146 C 
ATOM      5  N   UNL     1      -0.498  10.468   0.054  0.00  0.00    -0.315 N 
ATOM      6  C   UNL     1      -1.769  10.910   0.123  0.00  0.00    +0.135 C 
ATOM      7  S   UNL     1      -2.059  12.597   0.151  0.00  0.00    -0.019 S 
ATOM      8  N   UNL     1      -2.813  10.073   0.171  0.00  0.00    -0.300 N 
ATOM      9  H   UNL     1       0.243  11.092   0.020  0.00  0.00    +0.149 HD
ATOM     10  H   UNL     1      -3.704  10.454   0.220  0.00  0.00    +0.154 HD
ENDROOT
BRANCH   4  11
ATOM     11  C   UNL     1       0.496   8.687  -1.229  0.00  0.00    +0.016 A 
ATOM     12  C   UNL     1       1.652   7.994  -1.375  0.00  0.00    +0.028 A 
ATOM     13  C   UNL     1       2.169   7.810  -2.644  0.00  0.00    +0.025 A 
ATOM     14  C   UNL     1       1.509   8.338  -3.704  0.00  0.00    +0.060 A 
ATOM     15  S   UNL     1       0.109   9.117  -2.918  0.00  0.00    -0.098 S 
ATOM     16 BR   UNL     1       3.774   6.843  -2.896  0.00  0.00    -0.050 Br
ENDBRANCH   4  11
BRANCH   3  17
ATOM     17  C   UNL     1      -1.358   6.709   0.071  0.00  0.00    +0.248 C 
ATOM     18  O   UNL     1      -1.143   6.104   1.106  0.00  0.00    -0.270 OA
ATOM     19  N   UNL     1      -1.478   6.036  -1.091  0.00  0.00    -0.282 N 
ATOM     20  H   UNL     1      -1.589   6.521  -1.923  0.00  0.00    +0.155 HD
BRANCH  19  21
ATOM     21  C   UNL     1      -1.441   4.638  -1.096  0.00  0.00    +0.034 A 
ATOM     22  C   UNL     1      -2.226   3.924  -1.992  0.00  0.00    +0.024 A 
ATOM     23  C   UNL     1      -2.187   2.544  -1.995  0.00  0.00    +0.017 A 
ATOM     24  C   UNL     1      -1.367   1.871  -1.106  0.00  0.00    +0.018 A 
ATOM     25  C   UNL     1      -0.588   2.579  -0.208  0.00  0.00    +0.017 A 
ATOM     26  C   UNL     1      -0.618   3.960  -0.205  0.00  0.00    +0.024 A 
ATOM     27 BR   UNL     1      -1.317  -0.019  -1.113  0.00  0.00    -0.050 Br
ENDBRANCH  19  21
ENDBRANCH   3  17
TORSDOF 3
