REMARK  Name = ZINC00815787
REMARK  7 active torsions:
REMARK  status: ('A' for Active; 'I' for Inactive)
REMARK    1  A    between atoms: C_1  and  C_2
REMARK    2  A    between atoms: C_5  and  C_8
REMARK    3  A    between atoms: C_13  and  C_23
REMARK    4  A    between atoms: C_27  and  O_31
REMARK    5  A    between atoms: C_28  and  O_29
REMARK    6  A    between atoms: O_29  and  C_30
REMARK    7  A    between atoms: O_31  and  C_32
REMARK                            x       y       z     vdW  Elec       q    Type
REMARK                         _______ _______ _______ _____ _____    ______ ____
ROOT
ATOM      1  C   UNL     1      -5.386   0.198   2.517  0.00  0.00    +0.032 C 
ATOM      2  C   UNL     1      -5.842   1.656   2.515  0.00  0.00    +0.059 C 
ATOM      3  C   UNL     1      -5.098   2.428   1.438  0.00  0.00    +0.017 C 
ATOM      4  C   UNL     1      -3.833   2.112   1.126  0.00  0.00    +0.037 C 
ATOM      5  C   UNL     1      -2.964   2.813   0.108  0.00  0.00    +0.140 C 
ATOM      6  N   UNL     1      -3.676   3.740  -0.746  0.00  0.00    -0.331 N 
ATOM      7  C   UNL     1      -4.281   4.882  -0.223  0.00  0.00    +0.049 A 
ATOM      8  C   UNL     1      -3.844   6.152  -0.561  0.00  0.00    +0.025 A 
ATOM      9  C   UNL     1      -4.446   7.256   0.018  0.00  0.00    +0.002 A 
ATOM     10  C   UNL     1      -5.472   7.095   0.930  0.00  0.00    +0.002 A 
ATOM     11  C   UNL     1      -5.923   5.827   1.258  0.00  0.00    +0.025 A 
ATOM     12  C   UNL     1      -5.336   4.724   0.663  0.00  0.00    +0.052 A 
ATOM     13  N   UNL     1      -5.810   3.432   0.866  0.00  0.00    -0.316 N 
ATOM     14  C   UNL     1      -3.190   1.024   1.769  0.00  0.00    +0.163 C 
ATOM     15  O   UNL     1      -2.039   0.766   1.476  0.00  0.00    -0.292 OA
ATOM     16  C   UNL     1      -3.879   0.180   2.799  0.00  0.00    +0.088 C 
ATOM     17  H   UNL     1      -3.734   3.564  -1.698  0.00  0.00    +0.147 HD
ATOM     18  H   UNL     1      -6.715   3.235   0.578  0.00  0.00    +0.152 HD
ENDROOT
BRANCH   1  23
ATOM     19  C   UNL     1      -8.188  -2.722   6.642  0.00  0.00    +0.044 C 
ATOM     20  C   UNL     1      -7.457  -1.961   5.567  0.00  0.00    -0.050 A 
ATOM     21  C   UNL     1      -7.578  -2.346   4.244  0.00  0.00    +0.003 A 
ATOM     22  C   UNL     1      -6.907  -1.647   3.258  0.00  0.00    +0.004 A 
ATOM     23  C   UNL     1      -6.117  -0.564   3.593  0.00  0.00    -0.043 A 
ATOM     24  C   UNL     1      -5.992  -0.183   4.916  0.00  0.00    +0.004 A 
ATOM     25  C   UNL     1      -6.666  -0.878   5.902  0.00  0.00    +0.003 A 
ENDBRANCH   1  23
BRANCH   5  26
ATOM     26  C   UNL     1      -1.885   3.569   0.840  0.00  0.00    +0.023 A 
ATOM     27  C   UNL     1      -2.074   3.939   2.159  0.00  0.00    +0.009 A 
ATOM     28  C   UNL     1      -1.086   4.633   2.833  0.00  0.00    +0.004 A 
ATOM     29  C   UNL     1       0.095   4.959   2.191  0.00  0.00    +0.049 A 
ATOM     30  C   UNL     1       0.292   4.585   0.872  0.00  0.00    +0.162 A 
ATOM     31  C   UNL     1      -0.705   3.892   0.191  0.00  0.00    +0.167 A 
BRANCH  31  32
ATOM     32  O   UNL     1      -0.518   3.529  -1.106  0.00  0.00    -0.491 OA
ATOM     33  C   UNL     1      -0.941   4.457  -2.107  0.00  0.00    +0.277 C 
ENDBRANCH  31  32
BRANCH  30  34
ATOM     34  O   UNL     1       1.455   4.900   0.241  0.00  0.00    -0.491 OA
ATOM     35  C   UNL     1       2.433   5.612   1.002  0.00  0.00    +0.277 C 
ENDBRANCH  30  34
ENDBRANCH   5  26
TORSDOF 4
