REMARK  Name = ZINC15946988
REMARK  12 active torsions:
REMARK  status: ('A' for Active; 'I' for Inactive)
REMARK    1  A    between atoms: C_1  and  C_2
REMARK    2  A    between atoms: C_2  and  C_3
REMARK    3  A    between atoms: C_3  and  C_4
REMARK    4  A    between atoms: C_3  and  C_5
REMARK    5  A    between atoms: C_3  and  C_6
REMARK    6  A    between atoms: C_15  and  O_37
REMARK    7  A    between atoms: C_17  and  C_20
REMARK    8  A    between atoms: C_23  and  O_26
REMARK    9  A    between atoms: O_26  and  C_27
REMARK   10  A    between atoms: C_27  and  C_29
REMARK   11  A    between atoms: C_32  and  O_35
REMARK   12  A    between atoms: O_35  and  C_36
REMARK                            x       y       z     vdW  Elec       q    Type
REMARK                         _______ _______ _______ _____ _____    ______ ____
ROOT
ATOM      1  C   UNL     1       0.795  -2.020   0.594  0.00  0.00    -0.000 C 
ATOM      2  C   UNL     1       1.506  -2.436   1.885  0.00  0.00    +0.009 C 
ATOM      3  C   UNL     1       1.309  -3.933   2.129  0.00  0.00    +0.037 C 
ATOM      4  C   UNL     1       1.717  -4.691   0.873  0.00  0.00    -0.023 A 
ATOM      5  C   UNL     1       1.813  -4.064  -0.322  0.00  0.00    -0.004 A 
ATOM      6  S   UNL     1       2.309  -5.329  -1.458  0.00  0.00    -0.078 S 
ATOM      7  C   UNL     1       2.391  -6.616  -0.416  0.00  0.00    +0.080 A 
ATOM      8  C   UNL     1       2.031  -6.107   0.837  0.00  0.00    +0.068 A 
ATOM      9  C   UNL     1       2.003  -7.056   1.980  0.00  0.00    +0.220 C 
ATOM     10  N   UNL     1       2.548  -8.230   1.806  0.00  0.00    -0.223 NA
ATOM     11  C   UNL     1       3.237  -8.650   0.592  0.00  0.00    +0.224 C 
ATOM     12  N   UNL     1       2.727  -7.939  -0.595  0.00  0.00    -0.313 N 
ATOM     13  C   UNL     1       1.549  -2.617  -0.604  0.00  0.00    +0.046 C 
ATOM     14  H   UNL     1       2.634  -8.380  -1.454  0.00  0.00    +0.149 HD
ENDROOT
BRANCH  11  15
ATOM     15  C   UNL     1       4.709  -8.366   0.739  0.00  0.00    -0.005 A 
ATOM     16  C   UNL     1       5.470  -8.068  -0.377  0.00  0.00    +0.011 A 
ATOM     17  C   UNL     1       6.820  -7.808  -0.245  0.00  0.00    +0.047 A 
ATOM     18  C   UNL     1       7.413  -7.844   1.009  0.00  0.00    +0.132 A 
ATOM     19  C   UNL     1       6.647  -8.142   2.127  0.00  0.00    +0.047 A 
ATOM     20  C   UNL     1       5.297  -8.397   1.990  0.00  0.00    +0.011 A 
BRANCH  18  21
ATOM     21  O   UNL     1       8.741  -7.588   1.142  0.00  0.00    -0.422 OA
BRANCH  21  22
ATOM     22  C   UNL     1       9.167  -6.328   0.924  0.00  0.00    +0.344 C 
ATOM     23  O   UNL     1       8.362  -5.441   0.723  0.00  0.00    -0.245 OA
BRANCH  22  24
ATOM     24  C   UNL     1      10.611  -6.027   0.931  0.00  0.00    +0.060 A 
ATOM     25  C   UNL     1      11.539  -7.048   1.157  0.00  0.00    +0.018 A 
ATOM     26  C   UNL     1      12.886  -6.763   1.162  0.00  0.00    +0.046 A 
ATOM     27  C   UNL     1      13.323  -5.461   0.943  0.00  0.00    +0.120 A 
ATOM     28  C   UNL     1      12.404  -4.443   0.718  0.00  0.00    +0.046 A 
ATOM     29  C   UNL     1      11.055  -4.721   0.706  0.00  0.00    +0.018 A 
BRANCH  27  30
ATOM     30  O   UNL     1      14.652  -5.184   0.949  0.00  0.00    -0.495 OA
ATOM     31  C   UNL     1      15.032  -3.827   0.717  0.00  0.00    +0.277 C 
ENDBRANCH  27  30
ENDBRANCH  22  24
ENDBRANCH  21  22
ENDBRANCH  18  21
ENDBRANCH  11  15
BRANCH   1  32
ATOM     32  C   UNL     1       0.783  -0.494   0.483  0.00  0.00    -0.032 C 
ATOM     33  C   UNL     1       2.222   0.027   0.469  0.00  0.00    +0.011 C 
ATOM     34  C   UNL     1       0.038   0.098   1.681  0.00  0.00    +0.011 C 
BRANCH  32  36
ATOM     35  C   UNL     1       0.067   1.444  -0.921  0.00  0.00    +0.004 C 
ATOM     36  C   UNL     1       0.079  -0.082  -0.811  0.00  0.00    +0.003 C 
ENDBRANCH  32  36
ENDBRANCH   1  32
BRANCH   9  37
ATOM     37  O   UNL     1       1.433  -6.716   3.159  0.00  0.00    -0.492 OA
ATOM     38  H   UNL     1       1.473  -7.411   3.830  0.00  0.00    +0.294 HD
ENDBRANCH   9  37
TORSDOF 8
