REMARK  Name = ZINC09135596
REMARK  7 active torsions:
REMARK  status: ('A' for Active; 'I' for Inactive)
REMARK    1  A    between atoms: C_1  and  N_2
REMARK    2  A    between atoms: C_10  and  C_12
REMARK    3  A    between atoms: C_12  and  C_14
REMARK    4  A    between atoms: C_12  and  N_60
REMARK    5  A    between atoms: C_14  and  N_15
REMARK    6  A    between atoms: C_16  and  C_18
REMARK    7  A    between atoms: N_20  and  C_21
REMARK                            x       y       z     vdW  Elec       q    Type
REMARK                         _______ _______ _______ _____ _____    ______ ____
ROOT
ATOM      1  C   UNL     1       3.756  -2.315   4.121  0.00  0.00    -0.020 C 
ENDROOT
BRANCH   1  11
ATOM      2  C   UNL     1      -1.208  -1.361   0.332  0.00  0.00    +0.129 C 
ATOM      3  N   UNL     1       0.118  -0.801   0.036  0.00  0.00    -0.333 N 
ATOM      4  C   UNL     1       0.035   0.638  -0.222  0.00  0.00    +0.105 C 
ATOM      5  C   UNL     1       1.446   1.170  -0.496  0.00  0.00    +0.024 C 
ATOM      6  C   UNL     1       2.244   1.084   0.807  0.00  0.00    +0.038 C 
ATOM      7  C   UNL     1       2.053  -0.277   1.429  0.00  0.00    -0.026 A 
ATOM      8  C   UNL     1       1.032  -1.125   1.038  0.00  0.00    +0.033 A 
ATOM      9  C   UNL     1       0.896  -2.367   1.662  0.00  0.00    +0.023 A 
ATOM     10  C   UNL     1       1.773  -2.748   2.655  0.00  0.00    +0.004 A 
ATOM     11  C   UNL     1       2.795  -1.899   3.038  0.00  0.00    -0.059 A 
ATOM     12  C   UNL     1       2.932  -0.669   2.426  0.00  0.00    +0.007 A 
ENDBRANCH   1  11
BRANCH   1  17
ATOM     13  C   UNL     1       4.719  -3.992   2.642  0.00  0.00    -0.078 C 
ATOM     14  C   UNL     1       5.452  -5.341   2.854  0.00  0.00    -0.020 C 
ATOM     15  C   UNL     1       5.975  -5.226   4.304  0.00  0.00    -0.020 C 
ATOM     16  C   UNL     1       5.078  -4.168   4.972  0.00  0.00    -0.078 C 
ATOM     17  N   UNL     1       4.105  -3.759   3.958  0.00  0.00    +0.385 N 
ATOM     18  H   UNL     1       3.252  -4.324   4.048  0.00  0.00    -0.081 HD
ENDBRANCH   1  17
BRANCH   1  19
ATOM     19  C   UNL     1       3.110  -2.092   5.490  0.00  0.00    +0.094 C 
BRANCH  19  20
ATOM     20  N   UNL     1       2.887  -0.659   5.697  0.00  0.00    -0.309 N 
ATOM     21  C   UNL     1       2.229  -0.231   6.793  0.00  0.00    +0.299 C 
ATOM     22  O   UNL     1       1.822  -1.033   7.608  0.00  0.00    -0.265 OA
ATOM     23  H   UNL     1       3.212  -0.019   5.045  0.00  0.00    +0.149 HD
BRANCH  21  24
ATOM     24  C   UNL     1       2.002   1.230   7.004  0.00  0.00    +0.303 C 
ATOM     25  O   UNL     1       2.409   2.031   6.189  0.00  0.00    -0.265 OA
ATOM     26  N   UNL     1       1.344   1.658   8.100  0.00  0.00    -0.278 N 
ATOM     27  H   UNL     1       1.083   1.025   8.787  0.00  0.00    +0.155 HD
BRANCH  26  28
ATOM     28  C   UNL     1       1.039   3.014   8.246  0.00  0.00    +0.037 A 
ATOM     29  C   UNL     1       1.017   3.590   9.510  0.00  0.00    +0.023 A 
ATOM     30  C   UNL     1       0.720   4.931   9.652  0.00  0.00    +0.005 A 
ATOM     31  C   UNL     1       0.433   5.699   8.539  0.00  0.00    +0.038 A 
ATOM     32  C   UNL     1       0.448   5.128   7.277  0.00  0.00    +0.125 A 
ATOM     33  C   UNL     1       0.750   3.786   7.128  0.00  0.00    +0.061 A 
ATOM     34  F   UNL     1       0.167   5.881   6.191  0.00  0.00    -0.205 F 
ENDBRANCH  26  28
ENDBRANCH  21  24
ENDBRANCH  19  20
ENDBRANCH   1  19
TORSDOF 6
