REMARK  Name = ZINC14737505
REMARK  5 active torsions:
REMARK  status: ('A' for Active; 'I' for Inactive)
REMARK    1  A    between atoms: N_13  and  C_14
REMARK    2  A    between atoms: C_14  and  C_15
REMARK    3  A    between atoms: N_17  and  C_18
REMARK    4  A    between atoms: C_22  and  S_24
REMARK    5  A    between atoms: S_24  and  N_27
REMARK                            x       y       z     vdW  Elec       q    Type
REMARK                         _______ _______ _______ _____ _____    ______ ____
ROOT
ATOM      1  C   UNL     1      -2.415  -0.302  -0.090  0.00  0.00    +0.235 C 
ATOM      2  O   UNL     1      -1.359  -0.900  -0.098  0.00  0.00    -0.274 OA
ATOM      3  N   UNL     1      -2.428   1.041   0.019  0.00  0.00    -0.284 N 
ATOM      4  H   UNL     1      -3.271   1.512   0.103  0.00  0.00    +0.155 HD
ENDROOT
BRANCH   3   5
ATOM      5  C   UNL     1      -1.225   1.755   0.012  0.00  0.00    +0.035 A 
ATOM      6  C   UNL     1      -0.152   1.303  -0.746  0.00  0.00    +0.023 A 
ATOM      7  C   UNL     1       1.032   2.013  -0.756  0.00  0.00    +0.004 A 
ATOM      8  C   UNL     1       1.152   3.171  -0.009  0.00  0.00    +0.028 A 
ATOM      9  C   UNL     1       0.088   3.621   0.750  0.00  0.00    +0.107 A 
ATOM     10  C   UNL     1      -1.099   2.915   0.764  0.00  0.00    +0.051 A 
BRANCH   9  11
ATOM     11  S   UNL     1       0.246   5.097   1.700  0.00  0.00    +0.061 S 
ATOM     12  O   UNL     1      -0.708   5.009   2.749  0.00  0.00    -0.153 OA
ATOM     13  O   UNL     1       1.634   5.276   1.945  0.00  0.00    -0.153 OA
BRANCH  11  14
ATOM     14  N   UNL     1      -0.230   6.354   0.733  0.00  0.00    -0.177 NA
ATOM     15  C   UNL     1       0.649   7.137  -0.149  0.00  0.00    +0.109 C 
ATOM     16  C   UNL     1      -0.225   8.211  -0.830  0.00  0.00    +0.018 C 
ATOM     17  C   UNL     1      -1.430   8.341   0.138  0.00  0.00    +0.018 C 
ATOM     18  C   UNL     1      -1.603   6.878   0.618  0.00  0.00    +0.109 C 
ENDBRANCH  11  14
ENDBRANCH   9  11
ENDBRANCH   3   5
BRANCH   1  19
ATOM     19  C   UNL     1      -3.712  -1.062  -0.201  0.00  0.00    +0.210 C 
BRANCH  19  32
ATOM     20  C   UNL     1      -2.539  -6.934  -1.070  0.00  0.00    +0.001 A 
ATOM     21  C   UNL     1      -2.604  -6.973   0.298  0.00  0.00    +0.008 A 
ATOM     22  C   UNL     1      -2.868  -5.786   1.000  0.00  0.00    -0.015 A 
ATOM     23  C   UNL     1      -2.966  -5.662   2.397  0.00  0.00    +0.008 A 
ATOM     24  C   UNL     1      -3.231  -4.428   2.926  0.00  0.00    +0.002 A 
ATOM     25  C   UNL     1      -3.410  -3.285   2.147  0.00  0.00    +0.024 A 
ATOM     26  C   UNL     1      -3.321  -3.365   0.770  0.00  0.00    +0.046 A 
ATOM     27  C   UNL     1      -3.051  -4.626   0.247  0.00  0.00    +0.016 A 
ATOM     28  C   UNL     1      -2.986  -4.575  -1.153  0.00  0.00    +0.047 A 
ATOM     29  C   UNL     1      -2.723  -5.766  -1.808  0.00  0.00    +0.014 A 
ATOM     30  C   UNL     1      -3.244  -3.166  -1.475  0.00  0.00    +0.252 C 
ATOM     31  O   UNL     1      -3.282  -2.683  -2.591  0.00  0.00    -0.270 OA
ATOM     32  N   UNL     1      -3.430  -2.496  -0.308  0.00  0.00    -0.258 N 
ENDBRANCH  19  32
ENDBRANCH   1  19
TORSDOF 5
