REMARK  Name = ZINC61954447
REMARK  7 active torsions:
REMARK  status: ('A' for Active; 'I' for Inactive)
REMARK    1  A    between atoms: C_1  and  C_2
REMARK    2  A    between atoms: C_2  and  O_3
REMARK    3  A    between atoms: O_3  and  C_4
REMARK    4  A    between atoms: C_9  and  C_10
REMARK    5  A    between atoms: C_10  and  C_12
REMARK    6  A    between atoms: C_34  and  C_41
REMARK    7  A    between atoms: C_35  and  C_40
REMARK                            x       y       z     vdW  Elec       q    Type
REMARK                         _______ _______ _______ _____ _____    ______ ____
ROOT
ATOM      1  C   UNL     1      -5.344  -2.135   0.042  0.00  0.00    +0.099 C 
ATOM      2  C   UNL     1      -5.867  -2.330  -1.388  0.00  0.00    +0.070 C 
ATOM      3  C   UNL     1      -6.055  -3.826  -1.687  0.00  0.00    +0.021 C 
ATOM      4  C   UNL     1      -7.506  -3.933  -2.215  0.00  0.00    +0.017 C 
ATOM      5  C   UNL     1      -8.210  -2.756  -1.490  0.00  0.00    +0.086 C 
ATOM      6  N   UNL     1      -7.193  -1.685  -1.482  0.00  0.00    -0.281 NA
ATOM      7  C   UNL     1      -7.339  -0.779  -0.339  0.00  0.00    +0.145 C 
ATOM      8  C   UNL     1      -6.377  -1.254   0.748  0.00  0.00    +0.116 C 
ATOM      9  C   UNL     1      -7.077  -2.067   1.810  0.00  0.00    -0.008 A 
ATOM     10  C   UNL     1      -7.716  -3.285   1.805  0.00  0.00    +0.006 A 
ATOM     11  C   UNL     1      -8.287  -3.778   2.965  0.00  0.00    +0.000 A 
ATOM     12  C   UNL     1      -8.199  -3.049   4.139  0.00  0.00    +0.002 A 
ATOM     13  C   UNL     1      -7.531  -1.843   4.157  0.00  0.00    +0.023 A 
ATOM     14  C   UNL     1      -6.948  -1.346   2.993  0.00  0.00    +0.038 A 
ATOM     15  N   UNL     1      -6.180  -0.203   2.776  0.00  0.00    -0.284 N 
ATOM     16  C   UNL     1      -5.784  -0.092   1.490  0.00  0.00    +0.231 C 
ATOM     17  O   UNL     1      -5.103   0.817   1.060  0.00  0.00    -0.274 OA
ATOM     18  C   UNL     1      -7.015   0.630  -0.779  0.00  0.00    +0.004 A 
ATOM     19  C   UNL     1      -5.922   1.193  -1.399  0.00  0.00    +0.008 A 
ATOM     20  C   UNL     1      -5.905   2.549  -1.680  0.00  0.00    +0.004 A 
ATOM     21  C   UNL     1      -6.994   3.333  -1.343  0.00  0.00    -0.046 A 
ATOM     22  C   UNL     1      -8.098   2.769  -0.737  0.00  0.00    -0.026 A 
ATOM     23  C   UNL     1      -8.123   1.404  -0.456  0.00  0.00    +0.042 A 
ATOM     24  N   UNL     1      -9.118   0.603   0.102  0.00  0.00    -0.283 N 
ATOM     25  C   UNL     1      -8.750  -0.694   0.170  0.00  0.00    +0.244 C 
ATOM     26  O   UNL     1      -9.452  -1.595   0.580  0.00  0.00    -0.273 OA
ATOM     27  C   UNL     1      -9.277   3.636  -0.378  0.00  0.00    +0.046 C 
ATOM     28  C   UNL     1      -6.975   4.810  -1.640  0.00  0.00    +0.044 C 
ATOM     29  H   UNL     1      -5.956   0.441   3.466  0.00  0.00    +0.155 HD
ATOM     30  H   UNL     1      -9.978   0.930   0.410  0.00  0.00    +0.155 HD
ENDROOT
BRANCH   1  31
ATOM     31  C   UNL     1      -3.969  -1.533   0.032  0.00  0.00    +0.173 C 
ATOM     32  O   UNL     1      -3.609  -0.857  -0.908  0.00  0.00    -0.292 OA
BRANCH  31  38
ATOM     33  C   UNL     1      -1.771  -1.202   1.157  0.00  0.00    +0.131 A 
ATOM     34  C   UNL     1      -0.923  -1.421   2.232  0.00  0.00    +0.046 A 
ATOM     35  C   UNL     1      -1.342  -2.192   3.298  0.00  0.00    +0.004 A 
ATOM     36  C   UNL     1      -2.610  -2.753   3.304  0.00  0.00    +0.001 A 
ATOM     37  C   UNL     1      -3.466  -2.548   2.247  0.00  0.00    +0.015 A 
ATOM     38  C   UNL     1      -3.059  -1.763   1.161  0.00  0.00    +0.059 A 
BRANCH  33  39
ATOM     39  O   UNL     1      -1.361  -0.445   0.109  0.00  0.00    -0.492 OA
BRANCH  39  41
ATOM     40  C   UNL     1       0.243   0.911  -1.087  0.00  0.00    +0.048 C 
ATOM     41  C   UNL     1      -0.039   0.092   0.175  0.00  0.00    +0.226 C 
ENDBRANCH  39  41
ENDBRANCH  33  39
ENDBRANCH  31  38
ENDBRANCH   1  31
TORSDOF 4
