REMARK  Name = ZINC16021668
REMARK  4 active torsions:
REMARK  status: ('A' for Active; 'I' for Inactive)
REMARK    1  A    between atoms: C_1  and  C_2
REMARK    2  A    between atoms: C_16  and  C_19
REMARK    3  A    between atoms: C_19  and  C_20
REMARK    4  A    between atoms: N_32  and  C_35
REMARK                            x       y       z     vdW  Elec       q    Type
REMARK                         _______ _______ _______ _____ _____    ______ ____
ROOT
ATOM      1  C   UNL     1      -0.018   1.503   0.010  0.00  0.00    +0.046 C 
ATOM      2  C   UNL     1       0.002  -0.004   0.002  0.00  0.00    -0.028 A 
ATOM      3  C   UNL     1       0.006  -0.685  -1.198  0.00  0.00    +0.025 A 
ATOM      4  C   UNL     1       0.025  -2.068  -1.216  0.00  0.00    +0.042 A 
ATOM      5  C   UNL     1       0.041  -2.772  -0.023  0.00  0.00    +0.027 A 
ATOM      6  C   UNL     1       0.037  -2.096   1.176  0.00  0.00    +0.005 A 
ATOM      7  C   UNL     1       0.023  -0.705   1.205  0.00  0.00    +0.042 A 
ATOM      8  N   UNL     1       0.029  -0.250   2.526  0.00  0.00    -0.283 N 
ATOM      9  C   UNL     1       0.051  -1.264   3.413  0.00  0.00    +0.243 C 
ATOM     10  O   UNL     1       0.061  -1.169   4.622  0.00  0.00    -0.273 OA
ATOM     11  C   UNL     1       0.051  -2.538   2.612  0.00  0.00    +0.136 C 
ATOM     12  C   UNL     1       1.287  -3.386   2.930  0.00  0.00    +0.122 C 
ATOM     13  C   UNL     1       0.783  -4.855   2.861  0.00  0.00    +0.107 C 
ATOM     14  C   UNL     1      -0.713  -4.743   2.497  0.00  0.00    +0.072 C 
ATOM     15  N   UNL     1      -1.115  -3.384   2.928  0.00  0.00    -0.295 NA
ATOM     16  C   UNL     1       1.551  -5.431   1.692  0.00  0.00    +0.227 C 
ATOM     17  O   UNL     1       1.460  -6.571   1.288  0.00  0.00    -0.275 OA
ATOM     18  N   UNL     1       2.344  -4.488   1.172  0.00  0.00    -0.238 N 
ATOM     19  C   UNL     1       2.281  -3.289   1.795  0.00  0.00    +0.228 C 
ATOM     20  O   UNL     1       2.910  -2.296   1.498  0.00  0.00    -0.275 OA
ATOM     21 CL   UNL     1       0.030  -2.919  -2.729  0.00  0.00    -0.084 Cl
ATOM     22  H   UNL     1       0.018   0.687   2.776  0.00  0.00    +0.155 HD
ATOM     23  H   UNL     1      -1.312  -3.373   3.917  0.00  0.00    +0.124 HD
ENDROOT
BRANCH  18  24
ATOM     24  C   UNL     1       3.219  -4.733   0.022  0.00  0.00    +0.084 C 
ATOM     25  C   UNL     1       2.373  -5.153  -1.181  0.00  0.00    +0.023 C 
ATOM     26  C   UNL     1       3.286  -5.409  -2.382  0.00  0.00    +0.002 C 
ATOM     27  C   UNL     1       4.277  -6.524  -2.040  0.00  0.00    +0.000 C 
ATOM     28  C   UNL     1       5.123  -6.104  -0.837  0.00  0.00    +0.002 C 
ATOM     29  C   UNL     1       4.209  -5.848   0.364  0.00  0.00    +0.023 C 
ENDBRANCH  18  24
BRANCH  14  30
ATOM     30  C   UNL     1      -1.521  -5.815   3.231  0.00  0.00    +0.056 C 
BRANCH  30  31
ATOM     31  C   UNL     1      -2.955  -5.767   2.770  0.00  0.00    -0.021 A 
ATOM     32  C   UNL     1      -3.961  -5.103   3.360  0.00  0.00    +0.087 A 
ATOM     33  N   UNL     1      -5.120  -5.292   2.657  0.00  0.00    -0.360 N 
ATOM     34  H   UNL     1      -5.981  -4.911   2.890  0.00  0.00    +0.165 HD
ATOM     35  C   UNL     1      -4.881  -6.102   1.570  0.00  0.00    +0.047 A 
ATOM     36  C   UNL     1      -3.513  -6.430   1.589  0.00  0.00    +0.003 A 
ATOM     37  C   UNL     1      -2.978  -7.247   0.591  0.00  0.00    +0.010 A 
ATOM     38  C   UNL     1      -3.787  -7.721  -0.403  0.00  0.00    +0.001 A 
ATOM     39  C   UNL     1      -5.136  -7.397  -0.429  0.00  0.00    +0.002 A 
ATOM     40  C   UNL     1      -5.687  -6.600   0.551  0.00  0.00    +0.026 A 
ENDBRANCH  30  31
ENDBRANCH  14  30
TORSDOF 3
