REMARK  Name = ZINC00678762
REMARK  14 active torsions:
REMARK  status: ('A' for Active; 'I' for Inactive)
REMARK    1  A    between atoms: C_1  and  C_2
REMARK    2  A    between atoms: C_3  and  C_35
REMARK    3  A    between atoms: C_4  and  C_25
REMARK    4  A    between atoms: C_10  and  C_15
REMARK    5  A    between atoms: C_18  and  O_23
REMARK    6  A    between atoms: C_19  and  O_21
REMARK    7  A    between atoms: O_21  and  C_22
REMARK    8  A    between atoms: O_23  and  C_24
REMARK    9  A    between atoms: C_29  and  O_33
REMARK   10  A    between atoms: C_30  and  O_31
REMARK   11  A    between atoms: O_31  and  C_32
REMARK   12  A    between atoms: O_33  and  C_34
REMARK   13  A    between atoms: C_35  and  O_37
REMARK   14  A    between atoms: O_37  and  C_38
REMARK                            x       y       z     vdW  Elec       q    Type
REMARK                         _______ _______ _______ _____ _____    ______ ____
ROOT
ATOM      1  C   UNL     1      -1.069   1.311  -0.788  0.00  0.00    +0.061 C 
ATOM      2  C   UNL     1      -0.524  -0.037  -0.392  0.00  0.00    +0.016 C 
ATOM      3  C   UNL     1      -1.320  -1.120  -0.442  0.00  0.00    +0.065 C 
ATOM      4  C   UNL     1      -0.816  -2.476  -0.047  0.00  0.00    +0.096 C 
ATOM      5  C   UNL     1       0.692  -2.511  -0.034  0.00  0.00    +0.024 C 
ATOM      6  C   UNL     1       1.408  -1.367  -0.004  0.00  0.00    +0.016 C 
ATOM      7  N   UNL     1       0.777  -0.153   0.009  0.00  0.00    -0.321 N 
ATOM      8  C   UNL     1       2.916  -1.393   0.003  0.00  0.00    +0.059 C 
ATOM      9  C   UNL     1       3.405  -2.659   0.710  0.00  0.00    +0.032 C 
ATOM     10  C   UNL     1       2.828  -3.877  -0.020  0.00  0.00    +0.088 C 
ATOM     11  C   UNL     1       1.328  -3.764  -0.050  0.00  0.00    +0.162 C 
ATOM     12  O   UNL     1       0.655  -4.775  -0.090  0.00  0.00    -0.292 OA
ATOM     13  H   UNL     1       1.258   0.633   0.312  0.00  0.00    +0.152 HD
ENDROOT
BRANCH   9  14
ATOM     14  C   UNL     1       4.910  -2.709   0.677  0.00  0.00    -0.040 A 
ATOM     15  C   UNL     1       5.573  -2.724  -0.537  0.00  0.00    +0.008 A 
ATOM     16  C   UNL     1       6.954  -2.769  -0.573  0.00  0.00    +0.049 A 
ATOM     17  C   UNL     1       7.678  -2.800   0.609  0.00  0.00    +0.161 A 
ATOM     18  C   UNL     1       7.011  -2.784   1.830  0.00  0.00    +0.162 A 
ATOM     19  C   UNL     1       5.626  -2.733   1.859  0.00  0.00    +0.053 A 
BRANCH  18  20
ATOM     20  O   UNL     1       7.716  -2.814   2.992  0.00  0.00    -0.491 OA
ATOM     21  C   UNL     1       6.965  -2.796   4.207  0.00  0.00    +0.277 C 
ENDBRANCH  18  20
BRANCH  17  22
ATOM     22  O   UNL     1       9.036  -2.845   0.575  0.00  0.00    -0.491 OA
ATOM     23  C   UNL     1       9.653  -2.859  -0.714  0.00  0.00    +0.277 C 
ENDBRANCH  17  22
ENDBRANCH   9  14
BRANCH   4  24
ATOM     24  C   UNL     1      -1.329  -2.813   1.329  0.00  0.00    +0.010 A 
ATOM     25  C   UNL     1      -2.332  -3.753   1.482  0.00  0.00    +0.008 A 
ATOM     26  C   UNL     1      -2.806  -4.064   2.743  0.00  0.00    +0.004 A 
ATOM     27  C   UNL     1      -2.278  -3.438   3.857  0.00  0.00    +0.049 A 
ATOM     28  C   UNL     1      -1.273  -2.495   3.711  0.00  0.00    +0.162 A 
ATOM     29  C   UNL     1      -0.792  -2.186   2.442  0.00  0.00    +0.166 A 
BRANCH  29  30
ATOM     30  O   UNL     1       0.198  -1.266   2.294  0.00  0.00    -0.491 OA
ATOM     31  C   UNL     1      -0.164   0.107   2.448  0.00  0.00    +0.277 C 
ENDBRANCH  29  30
BRANCH  28  32
ATOM     32  O   UNL     1      -0.753  -1.878   4.806  0.00  0.00    -0.491 OA
ATOM     33  C   UNL     1      -1.291  -2.250   6.076  0.00  0.00    +0.277 C 
ENDBRANCH  28  32
ENDBRANCH   4  24
BRANCH   3  34
ATOM     34  C   UNL     1      -2.659  -0.977  -0.875  0.00  0.00    +0.338 C 
ATOM     35  O   UNL     1      -3.081   0.118  -1.198  0.00  0.00    -0.245 OA
BRANCH  34  36
ATOM     36  O   UNL     1      -3.469  -2.054  -0.930  0.00  0.00    -0.458 OA
BRANCH  36  37
ATOM     37  C   UNL     1      -4.809  -1.837  -1.376  0.00  0.00    +0.177 C 
ATOM     38  C   UNL     1      -5.734  -1.583  -0.168  0.00  0.00    +0.044 C 
ATOM     39  C   UNL     1      -7.060  -2.287  -0.550  0.00  0.00    +0.004 C 
ATOM     40  C   UNL     1      -6.571  -3.566  -1.275  0.00  0.00    +0.004 C 
ATOM     41  C   UNL     1      -5.342  -3.097  -2.080  0.00  0.00    +0.044 C 
ENDBRANCH  36  37
ENDBRANCH  34  36
ENDBRANCH   3  34
TORSDOF 9
