REMARK  Name = ZINC14472891
REMARK  5 active torsions:
REMARK  status: ('A' for Active; 'I' for Inactive)
REMARK    1  A    between atoms: C_1  and  N_2
REMARK    2  A    between atoms: N_5  and  S_8
REMARK    3  A    between atoms: S_8  and  C_11
REMARK    4  A    between atoms: C_24  and  C_27
REMARK    5  A    between atoms: C_29  and  N_34
REMARK                            x       y       z     vdW  Elec       q    Type
REMARK                         _______ _______ _______ _____ _____    ______ ____
ROOT
ATOM      1  C   UNL     1       3.839  -3.268  -0.492  0.00  0.00    +0.106 A 
ATOM      2  C   UNL     1       4.514  -3.029  -1.675  0.00  0.00    +0.030 A 
ATOM      3  C   UNL     1       5.761  -2.439  -1.645  0.00  0.00    +0.025 A 
ATOM      4  C   UNL     1       6.337  -2.084  -0.429  0.00  0.00    +0.031 A 
ATOM      5  C   UNL     1       5.656  -2.311   0.757  0.00  0.00    -0.018 A 
ATOM      6  C   UNL     1       4.404  -2.907   0.715  0.00  0.00    +0.034 A 
ATOM      7  C   UNL     1       6.223  -1.908   2.076  0.00  0.00    +0.049 C 
ATOM      8  C   UNL     1       6.761  -3.086   2.847  0.00  0.00    -0.023 C 
ATOM      9  C   UNL     1       7.833  -2.740   3.514  0.00  0.00    -0.030 C 
ATOM     10  C   UNL     1       8.168  -1.284   3.279  0.00  0.00    +0.033 C 
ATOM     11  C   UNL     1       7.391  -0.928   1.991  0.00  0.00    +0.029 C 
ATOM     12  C   UNL     1       8.304  -1.168   0.806  0.00  0.00    +0.106 C 
ATOM     13  N   UNL     1       7.602  -1.508  -0.413  0.00  0.00    -0.336 N 
ATOM     14  H   UNL     1       8.045  -1.347  -1.261  0.00  0.00    +0.147 HD
ENDROOT
BRANCH  12  15
ATOM     15  C   UNL     1       9.091   0.090   0.545  0.00  0.00    -0.007 A 
ATOM     16  C   UNL     1      10.432   0.148   0.876  0.00  0.00    +0.039 A 
ATOM     17  C   UNL     1      11.154   1.303   0.637  0.00  0.00    +0.127 A 
ATOM     18  C   UNL     1      10.535   2.400   0.067  0.00  0.00    +0.034 A 
ATOM     19  C   UNL     1       9.195   2.342  -0.266  0.00  0.00    +0.022 A 
ATOM     20  C   UNL     1       8.473   1.185  -0.032  0.00  0.00    +0.046 A 
ATOM     21 CL   UNL     1       6.791   1.110  -0.455  0.00  0.00    -0.083 Cl
BRANCH  17  22
ATOM     22  N   UNL     1      12.589   1.365   0.993  0.00  0.00    +0.056 N 
ATOM     23  O   UNL     1      13.130   0.406   1.492  0.00  0.00    -0.126 OA
ATOM     24  O   UNL     1      13.220   2.374   0.784  0.00  0.00    -0.126 OA
ENDBRANCH  17  22
ENDBRANCH  12  15
BRANCH   1  25
ATOM     25  S   UNL     1       2.250  -4.029  -0.525  0.00  0.00    +0.061 S 
ATOM     26  O   UNL     1       2.063  -4.634   0.747  0.00  0.00    -0.153 OA
ATOM     27  O   UNL     1       2.179  -4.766  -1.738  0.00  0.00    -0.153 OA
BRANCH  25  32
ATOM     28  C   UNL     1       0.050   1.231  -0.909  0.00  0.00    +0.105 C 
ATOM     29  N   UNL     1       0.095  -0.235  -0.828  0.00  0.00    -0.303 NA
ATOM     30  C   UNL     1       0.807  -0.804  -1.980  0.00  0.00    +0.101 C 
ATOM     31  C   UNL     1       0.676  -2.330  -1.955  0.00  0.00    +0.125 C 
ATOM     32  N   UNL     1       1.129  -2.816  -0.642  0.00  0.00    -0.174 NA
ATOM     33  C   UNL     1       0.559  -2.196   0.564  0.00  0.00    +0.125 C 
ATOM     34  C   UNL     1       0.695  -0.674   0.439  0.00  0.00    +0.101 C 
ENDBRANCH  25  32
ENDBRANCH   1  25
TORSDOF 4
