REMARK  Name = ZINC31809262
REMARK  6 active torsions:
REMARK  status: ('A' for Active; 'I' for Inactive)
REMARK    1  A    between atoms: C_1  and  C_2
REMARK    2  A    between atoms: C_2  and  C_4
REMARK    3  A    between atoms: C_2  and  N_8
REMARK    4  A    between atoms: C_4  and  O_6
REMARK    5  A    between atoms: O_6  and  C_7
REMARK    6  A    between atoms: C_20  and  C_22
REMARK                            x       y       z     vdW  Elec       q    Type
REMARK                         _______ _______ _______ _____ _____    ______ ____
ROOT
ATOM      1  N   UNL     1      -1.211  -0.349   2.398  0.00  0.00    -0.286 N 
ATOM      2  C   UNL     1       0.105  -0.639   2.355  0.00  0.00    +0.304 C 
ATOM      3  O   UNL     1       0.704  -0.591   1.299  0.00  0.00    -0.253 OA
ATOM      4  N   UNL     1       0.756  -0.983   3.485  0.00  0.00    -0.273 N 
ATOM      5  C   UNL     1       2.211  -1.197   3.481  0.00  0.00    +0.116 C 
ATOM      6  C   UNL     1       2.878  -0.140   4.370  0.00  0.00    +0.076 C 
ATOM      7  C   UNL     1       2.102  -0.029   5.659  0.00  0.00    +0.066 A 
ATOM      8  C   UNL     1       0.839  -0.473   5.830  0.00  0.00    +0.064 A 
ATOM      9  N   UNL     1       0.482  -0.192   7.112  0.00  0.00    -0.346 N 
ATOM     10  H   UNL     1      -0.371  -0.390   7.530  0.00  0.00    +0.167 HD
ATOM     11  C   UNL     1       1.543   0.415   7.693  0.00  0.00    +0.197 A 
ATOM     12  N   UNL     1       2.507   0.507   6.815  0.00  0.00    -0.240 NA
ATOM     13  C   UNL     1       0.028  -1.147   4.756  0.00  0.00    +0.156 C 
ATOM     14  H   UNL     1      -1.706  -0.462   3.224  0.00  0.00    +0.151 HD
ENDROOT
BRANCH  13  15
ATOM     15  C   UNL     1      -0.120  -2.612   5.076  0.00  0.00    -0.021 A 
ATOM     16  C   UNL     1       1.001  -3.385   5.316  0.00  0.00    +0.007 A 
ATOM     17  C   UNL     1       0.865  -4.729   5.609  0.00  0.00    +0.020 A 
ATOM     18  C   UNL     1      -0.394  -5.301   5.663  0.00  0.00    +0.041 A 
ATOM     19  C   UNL     1      -1.515  -4.527   5.423  0.00  0.00    +0.020 A 
ATOM     20  C   UNL     1      -1.379  -3.182   5.136  0.00  0.00    +0.007 A 
ATOM     21 CL   UNL     1      -0.565  -6.989   6.031  0.00  0.00    -0.084 Cl
ENDBRANCH  13  15
BRANCH   1  23
ATOM     22  C   UNL     1      -2.332  -1.054   0.342  0.00  0.00    +0.040 C 
ATOM     23  C   UNL     1      -1.892   0.138   1.196  0.00  0.00    +0.180 C 
BRANCH  23  24
ATOM     24  C   UNL     1      -3.102   0.943   1.595  0.00  0.00    +0.327 C 
ATOM     25  O   UNL     1      -3.367   1.096   2.764  0.00  0.00    -0.249 OA
BRANCH  24  26
ATOM     26  O   UNL     1      -3.884   1.491   0.652  0.00  0.00    -0.467 OA
ATOM     27  C   UNL     1      -5.014   2.242   1.103  0.00  0.00    +0.280 C 
ENDBRANCH  24  26
ENDBRANCH  23  24
ENDBRANCH   1  23
TORSDOF 4
