REMARK  Name = ZINC58849627
REMARK  6 active torsions:
REMARK  status: ('A' for Active; 'I' for Inactive)
REMARK    1  A    between atoms: C_1  and  O_2
REMARK    2  A    between atoms: O_2  and  C_3
REMARK    3  A    between atoms: C_8  and  N_9
REMARK    4  A    between atoms: N_9  and  S_10
REMARK    5  A    between atoms: S_10  and  C_13
REMARK    6  A    between atoms: C_26  and  C_29
REMARK                            x       y       z     vdW  Elec       q    Type
REMARK                         _______ _______ _______ _____ _____    ______ ____
ROOT
ATOM      1  C   UNL     1       2.303  -3.989   0.998  0.00  0.00    +0.109 A 
ATOM      2  C   UNL     1       3.440  -3.910   0.215  0.00  0.00    +0.030 A 
ATOM      3  C   UNL     1       4.668  -3.702   0.809  0.00  0.00    +0.025 A 
ATOM      4  C   UNL     1       4.762  -3.571   2.191  0.00  0.00    +0.031 A 
ATOM      5  C   UNL     1       3.622  -3.637   2.976  0.00  0.00    -0.018 A 
ATOM      6  C   UNL     1       2.393  -3.849   2.368  0.00  0.00    +0.034 A 
ATOM      7  C   UNL     1       3.677  -3.461   4.456  0.00  0.00    +0.049 C 
ATOM      8  C   UNL     1       3.543  -4.771   5.189  0.00  0.00    -0.023 C 
ATOM      9  C   UNL     1       4.296  -4.770   6.260  0.00  0.00    -0.030 C 
ATOM     10  C   UNL     1       5.045  -3.462   6.393  0.00  0.00    +0.033 C 
ATOM     11  C   UNL     1       4.979  -2.853   4.973  0.00  0.00    +0.029 C 
ATOM     12  C   UNL     1       6.208  -3.301   4.209  0.00  0.00    +0.105 C 
ATOM     13  N   UNL     1       6.008  -3.381   2.777  0.00  0.00    -0.336 N 
ATOM     14  H   UNL     1       6.785  -3.322   2.199  0.00  0.00    +0.147 HD
ENDROOT
BRANCH  12  15
ATOM     15  C   UNL     1       6.636  -4.646   4.737  0.00  0.00    -0.027 A 
ATOM     16  C   UNL     1       5.989  -5.792   4.314  0.00  0.00    +0.008 A 
ATOM     17  C   UNL     1       6.381  -7.026   4.797  0.00  0.00    +0.038 A 
ATOM     18  C   UNL     1       7.423  -7.114   5.705  0.00  0.00    +0.123 A 
ATOM     19  C   UNL     1       8.070  -5.965   6.128  0.00  0.00    +0.038 A 
ATOM     20  C   UNL     1       7.680  -4.733   5.639  0.00  0.00    +0.008 A 
ATOM     21  F   UNL     1       7.806  -8.320   6.178  0.00  0.00    -0.205 F 
ENDBRANCH  12  15
BRANCH   1  22
ATOM     22  S   UNL     1       0.734  -4.263   0.243  0.00  0.00    +0.072 S 
ATOM     23  O   UNL     1      -0.101  -4.835   1.240  0.00  0.00    -0.150 OA
ATOM     24  O   UNL     1       0.988  -4.904  -0.999  0.00  0.00    -0.150 OA
BRANCH  22  25
ATOM     25  N   UNL     1       0.097  -2.776  -0.113  0.00  0.00    -0.213 N 
ATOM     26  H   UNL     1      -0.746  -2.503   0.282  0.00  0.00    +0.174 HD
BRANCH  25  32
ATOM     27  C   UNL     1       0.740  -0.539  -0.771  0.00  0.00    +0.142 A 
ATOM     28  C   UNL     1       1.416   0.309  -1.633  0.00  0.00    +0.049 A 
ATOM     29  C   UNL     1       2.118  -0.210  -2.705  0.00  0.00    +0.024 A 
ATOM     30  C   UNL     1       2.147  -1.577  -2.922  0.00  0.00    +0.043 A 
ATOM     31  C   UNL     1       1.474  -2.429  -2.066  0.00  0.00    +0.048 A 
ATOM     32  C   UNL     1       0.773  -1.915  -0.984  0.00  0.00    +0.091 A 
ATOM     33 CL   UNL     1       3.029  -2.221  -4.270  0.00  0.00    -0.083 Cl
BRANCH  27  35
ATOM     34  C   UNL     1       0.059   1.391   0.441  0.00  0.00    +0.277 C 
ATOM     35  O   UNL     1       0.049  -0.029   0.284  0.00  0.00    -0.493 OA
ENDBRANCH  27  35
ENDBRANCH  25  32
ENDBRANCH  22  25
ENDBRANCH   1  22
TORSDOF 5
