REMARK  Name = ZINC59351795
REMARK  9 active torsions:
REMARK  status: ('A' for Active; 'I' for Inactive)
REMARK    1  A    between atoms: C_1  and  C_2
REMARK    2  A    between atoms: C_7  and  N_8
REMARK    3  A    between atoms: C_9  and  C_11
REMARK    4  A    between atoms: C_11  and  C_13
REMARK    5  A    between atoms: C_11  and  O_14
REMARK    6  A    between atoms: O_14  and  C_15
REMARK    7  A    between atoms: C_15  and  C_17
REMARK    8  A    between atoms: C_19  and  C_25
REMARK    9  A    between atoms: C_22  and  O_23
REMARK                            x       y       z     vdW  Elec       q    Type
REMARK                         _______ _______ _______ _____ _____    ______ ____
ROOT
ATOM      1  C   UNL     1      -0.168   0.052   4.882  0.00  0.00    +0.259 C 
ATOM      2  C   UNL     1       1.114   0.852   5.123  0.00  0.00    +0.062 C 
ENDROOT
BRANCH   1   4
ATOM      3  N   UNL     1       0.025  -0.015   2.417  0.00  0.00    -0.282 N 
ATOM      4  C   UNL     1      -0.056  -0.694   3.578  0.00  0.00    +0.258 C 
ATOM      5  O   UNL     1      -0.040  -1.907   3.573  0.00  0.00    -0.271 OA
ATOM      6  H   UNL     1       0.078   0.954   2.425  0.00  0.00    +0.155 HD
BRANCH   3  13
ATOM      7  C   UNL     1      -1.264   1.184   0.181  0.00  0.00    +0.045 C 
ATOM      8  C   UNL     1      -0.583  -0.158   0.084  0.00  0.00    -0.029 A 
ATOM      9  C   UNL     1      -0.568  -0.840  -1.117  0.00  0.00    +0.005 A 
ATOM     10  C   UNL     1       0.056  -2.071  -1.206  0.00  0.00    +0.000 A 
ATOM     11  C   UNL     1       0.667  -2.622  -0.095  0.00  0.00    +0.002 A 
ATOM     12  C   UNL     1       0.655  -1.945   1.108  0.00  0.00    +0.023 A 
ATOM     13  C   UNL     1       0.034  -0.706   1.201  0.00  0.00    +0.036 A 
ENDBRANCH   3  13
ENDBRANCH   1   4
BRANCH   1  14
ATOM     14  O   UNL     1      -0.356  -0.879   5.950  0.00  0.00    -0.449 OA
BRANCH  14  15
ATOM     15  C   UNL     1      -1.065  -0.454   7.014  0.00  0.00    +0.343 C 
ATOM     16  O   UNL     1      -1.510   0.677   7.035  0.00  0.00    -0.245 OA
BRANCH  15  17
ATOM     17  C   UNL     1      -1.300  -1.360   8.153  0.00  0.00    +0.102 A 
ATOM     18  C   UNL     1      -0.784  -2.659   8.135  0.00  0.00    +0.022 A 
ATOM     19  C   UNL     1      -1.007  -3.501   9.202  0.00  0.00    -0.048 A 
ATOM     20  C   UNL     1      -1.740  -3.067  10.295  0.00  0.00    +0.022 A 
ATOM     21  C   UNL     1      -2.255  -1.786  10.326  0.00  0.00    +0.060 A 
ATOM     22  C   UNL     1      -2.036  -0.922   9.262  0.00  0.00    +0.145 A 
ATOM     23 BR   UNL     1      -3.254  -1.206  11.823  0.00  0.00    -0.046 Br
ATOM     24  C   UNL     1      -0.451  -4.902   9.181  0.00  0.00    +0.044 C 
BRANCH  22  25
ATOM     25  O   UNL     1      -2.537   0.339   9.293  0.00  0.00    -0.505 OA
ATOM     26  H   UNL     1      -3.426   0.418   8.921  0.00  0.00    +0.292 HD
ENDBRANCH  22  25
ENDBRANCH  15  17
ENDBRANCH  14  15
ENDBRANCH   1  14
TORSDOF 6
