REMARK  Name = ZINC04282454
REMARK  8 active torsions:
REMARK  status: ('A' for Active; 'I' for Inactive)
REMARK    1  A    between atoms: C_3  and  O_19
REMARK    2  A    between atoms: C_6  and  C_7
REMARK    3  A    between atoms: N_8  and  N_9
REMARK    4  A    between atoms: N_9  and  C_10
REMARK    5  A    between atoms: C_10  and  N_12
REMARK    6  A    between atoms: N_12  and  C_13
REMARK    7  A    between atoms: O_19  and  C_20
REMARK    8  A    between atoms: C_20  and  C_22
REMARK                            x       y       z     vdW  Elec       q    Type
REMARK                         _______ _______ _______ _____ _____    ______ ____
ROOT
ATOM      1  C   UNL     1       3.261  -6.350  -0.091  0.00  0.00    +0.013 A 
ATOM      2  C   UNL     1       3.405  -4.980  -0.052  0.00  0.00    +0.047 A 
ATOM      3  C   UNL     1       2.283  -4.161  -0.075  0.00  0.00    +0.132 A 
ATOM      4  C   UNL     1       1.012  -4.719  -0.134  0.00  0.00    +0.047 A 
ATOM      5  C   UNL     1       0.860  -6.088  -0.179  0.00  0.00    +0.013 A 
ATOM      6  C   UNL     1       1.985  -6.915  -0.155  0.00  0.00    -0.005 A 
ENDROOT
BRANCH   6   7
ATOM      7  C   UNL     1       1.827  -8.380  -0.198  0.00  0.00    +0.138 C 
ATOM      8  N   UNL     1       0.640  -8.903  -0.257  0.00  0.00    -0.188 NA
BRANCH   8   9
ATOM      9  N   UNL     1       0.490 -10.296  -0.298  0.00  0.00    -0.218 N 
ATOM     10  H   UNL     1       1.272 -10.869  -0.282  0.00  0.00    +0.176 HD
BRANCH   9  11
ATOM     11  C   UNL     1      -0.742 -10.839  -0.360  0.00  0.00    +0.150 C 
ATOM     12  S   UNL     1      -0.926 -12.540  -0.409  0.00  0.00    -0.017 S 
BRANCH  11  13
ATOM     13  N   UNL     1      -1.829 -10.043  -0.382  0.00  0.00    -0.322 N 
ATOM     14  H   UNL     1      -1.725  -9.079  -0.354  0.00  0.00    +0.148 HD
BRANCH  13  15
ATOM     15  C   UNL     1      -3.168 -10.633  -0.449  0.00  0.00    +0.072 C 
ATOM     16  C   UNL     1      -3.528 -10.917  -1.909  0.00  0.00    +0.022 C 
ATOM     17  C   UNL     1      -4.926 -11.534  -1.979  0.00  0.00    +0.002 C 
ATOM     18  C   UNL     1      -5.944 -10.559  -1.384  0.00  0.00    +0.000 C 
ATOM     19  C   UNL     1      -5.585 -10.274   0.076  0.00  0.00    +0.002 C 
ATOM     20  C   UNL     1      -4.186  -9.658   0.146  0.00  0.00    +0.022 C 
ENDBRANCH  13  15
ENDBRANCH  11  13
ENDBRANCH   9  11
ENDBRANCH   8   9
ENDBRANCH   6   7
BRANCH   3  21
ATOM     21  O   UNL     1       2.429  -2.811  -0.036  0.00  0.00    -0.422 OA
BRANCH  21  22
ATOM     22  C   UNL     1       2.807  -2.203  -1.177  0.00  0.00    +0.344 C 
ATOM     23  O   UNL     1       3.088  -2.867  -2.155  0.00  0.00    -0.245 OA
BRANCH  22  24
ATOM     24  C   UNL     1       2.881  -0.730  -1.239  0.00  0.00    +0.059 A 
ATOM     25  C   UNL     1       3.273  -0.096  -2.421  0.00  0.00    +0.016 A 
ATOM     26  C   UNL     1       3.340   1.280  -2.473  0.00  0.00    +0.016 A 
ATOM     27  C   UNL     1       3.019   2.034  -1.356  0.00  0.00    +0.018 A 
ATOM     28  C   UNL     1       2.630   1.412  -0.182  0.00  0.00    +0.016 A 
ATOM     29  C   UNL     1       2.559   0.037  -0.117  0.00  0.00    +0.016 A 
ATOM     30 BR   UNL     1       3.113   3.921  -1.436  0.00  0.00    -0.050 Br
ENDBRANCH  22  24
ENDBRANCH  21  22
ENDBRANCH   3  21
TORSDOF 8
