REMARK  Name = ZINC66737638
REMARK  5 active torsions:
REMARK  status: ('A' for Active; 'I' for Inactive)
REMARK    1  A    between atoms: C_1  and  C_2
REMARK    2  A    between atoms: C_2  and  C_3
REMARK    3  A    between atoms: N_8  and  S_9
REMARK    4  A    between atoms: S_9  and  C_12
REMARK    5  A    between atoms: C_14  and  N_19
REMARK                            x       y       z     vdW  Elec       q    Type
REMARK                         _______ _______ _______ _____ _____    ______ ____
ROOT
ATOM      1  S   UNL     1       1.269  -1.814  -5.918  0.00  0.00    +0.101 S 
ATOM      2  O   UNL     1       2.221  -0.783  -6.141  0.00  0.00    -0.146 OA
ATOM      3  O   UNL     1       1.646  -3.132  -5.545  0.00  0.00    -0.146 OA
ENDROOT
BRANCH   1   9
ATOM      4  C   UNL     1       0.707  -0.490  -1.238  0.00  0.00    +0.024 A 
ATOM      5  C   UNL     1       2.004  -0.794  -1.188  0.00  0.00    +0.069 A 
ATOM      6  S   UNL     1       2.336  -1.301  -2.868  0.00  0.00    -0.057 S 
ATOM      7  C   UNL     1       0.690  -1.065  -3.523  0.00  0.00    +0.192 A 
ATOM      8  N   UNL     1       0.015  -0.623  -2.406  0.00  0.00    -0.336 N 
ATOM      9  N   UNL     1       0.244  -1.264  -4.739  0.00  0.00    -0.103 NA
ATOM     10  H   UNL     1      -0.929  -0.407  -2.450  0.00  0.00    +0.168 HD
BRANCH   4  12
ATOM     11  C   UNL     1      -0.019   1.526   0.010  0.00  0.00    +0.010 C 
ATOM     12  C   UNL     1       0.002  -0.004   0.002  0.00  0.00    +0.050 C 
ENDBRANCH   4  12
ENDBRANCH   1   9
BRANCH   1  13
ATOM     13  C   UNL     1       0.327  -1.959  -7.400  0.00  0.00    +0.116 A 
ATOM     14  C   UNL     1      -0.323  -3.143  -7.693  0.00  0.00    +0.061 A 
ATOM     15  C   UNL     1      -1.062  -3.258  -8.855  0.00  0.00    +0.129 A 
ATOM     16  C   UNL     1      -1.150  -2.188  -9.726  0.00  0.00    +0.048 A 
ATOM     17  C   UNL     1      -0.500  -1.003  -9.434  0.00  0.00    +0.022 A 
ATOM     18  C   UNL     1       0.234  -0.887  -8.268  0.00  0.00    +0.044 A 
ATOM     19 BR   UNL     1      -0.620   0.460 -10.626  0.00  0.00    -0.050 Br
BRANCH  15  20
ATOM     20  N   UNL     1      -1.758  -4.526  -9.168  0.00  0.00    +0.057 N 
ATOM     21  O   UNL     1      -1.680  -5.462  -8.406  0.00  0.00    -0.126 OA
ATOM     22  O   UNL     1      -2.404  -4.627 -10.185  0.00  0.00    -0.126 OA
ENDBRANCH  15  20
ENDBRANCH   1  13
TORSDOF 4
