REMARK  Name = ZINC06721632
REMARK  4 active torsions:
REMARK  status: ('A' for Active; 'I' for Inactive)
REMARK    1  A    between atoms: C_4  and  O_30
REMARK    2  A    between atoms: C_5  and  C_7
REMARK    3  A    between atoms: C_20  and  C_22
REMARK    4  A    between atoms: C_25  and  O_28
REMARK                            x       y       z     vdW  Elec       q    Type
REMARK                         _______ _______ _______ _____ _____    ______ ____
ROOT
ATOM      1  C   UNL     1      -3.255  -0.608  -1.543  0.00  0.00    +0.072 C 
ATOM      2  N   UNL     1      -2.241   0.150  -1.278  0.00  0.00    -0.184 NA
ATOM      3  N   UNL     1      -1.192  -0.521  -0.679  0.00  0.00    -0.205 N 
ATOM      4  C   UNL     1      -1.458  -1.976  -0.738  0.00  0.00    +0.136 C 
ATOM      5  C   UNL     1      -2.939  -2.033  -1.135  0.00  0.00    +0.086 C 
ATOM      6  C   UNL     1      -1.226  -2.508   0.652  0.00  0.00    +0.018 A 
ATOM      7  C   UNL     1      -1.709  -3.759   0.986  0.00  0.00    +0.029 A 
ATOM      8  C   UNL     1      -1.496  -4.276   2.250  0.00  0.00    +0.042 A 
ATOM      9  C   UNL     1      -0.793  -3.534   3.184  0.00  0.00    +0.023 A 
ATOM     10  C   UNL     1      -0.316  -2.284   2.856  0.00  0.00    +0.047 A 
ATOM     11  C   UNL     1      -0.533  -1.752   1.585  0.00  0.00    +0.129 A 
ATOM     12  O   UNL     1      -0.054  -0.504   1.343  0.00  0.00    -0.465 OA
ATOM     13  C   UNL     1       0.002  -0.004   0.002  0.00  0.00    +0.310 C 
ATOM     14 CL   UNL     1      -2.106  -5.848   2.665  0.00  0.00    -0.084 Cl
ENDROOT
BRANCH   1  19
ATOM     15  C   UNL     1      -6.731  -0.641  -2.958  0.00  0.00    +0.001 A 
ATOM     16  C   UNL     1      -6.902   0.692  -3.288  0.00  0.00    +0.004 A 
ATOM     17  C   UNL     1      -5.891   1.606  -3.055  0.00  0.00    +0.046 A 
ATOM     18  C   UNL     1      -4.698   1.192  -2.486  0.00  0.00    +0.126 A 
ATOM     19  C   UNL     1      -4.521  -0.156  -2.149  0.00  0.00    +0.039 A 
ATOM     20  C   UNL     1      -5.546  -1.071  -2.395  0.00  0.00    +0.013 A 
BRANCH  18  21
ATOM     21  O   UNL     1      -3.705   2.090  -2.256  0.00  0.00    -0.506 OA
ATOM     22  H   UNL     1      -3.088   2.192  -2.993  0.00  0.00    +0.292 HD
ENDBRANCH  18  21
ENDBRANCH   1  19
BRANCH  13  23
ATOM     23  C   UNL     1      -0.018   1.503   0.010  0.00  0.00    +0.013 A 
ATOM     24  C   UNL     1      -1.226   2.177   0.020  0.00  0.00    +0.012 A 
ATOM     25  C   UNL     1      -1.247   3.558   0.033  0.00  0.00    +0.046 A 
ATOM     26  C   UNL     1      -0.056   4.269   0.026  0.00  0.00    +0.117 A 
ATOM     27  C   UNL     1       1.154   3.591   0.011  0.00  0.00    +0.046 A 
ATOM     28  C   UNL     1       1.170   2.209   0.003  0.00  0.00    +0.012 A 
BRANCH  26  29
ATOM     29  O   UNL     1      -0.074   5.628   0.033  0.00  0.00    -0.507 OA
ATOM     30  H   UNL     1      -0.088   6.026  -0.848  0.00  0.00    +0.292 HD
ENDBRANCH  26  29
ENDBRANCH  13  23
TORSDOF 4
