REMARK  Name = ZINC02654706
REMARK  10 active torsions:
REMARK  status: ('A' for Active; 'I' for Inactive)
REMARK    1  A    between atoms: C_1  and  C_2
REMARK    2  A    between atoms: C_5  and  C_32
REMARK    3  A    between atoms: C_6  and  O_8
REMARK    4  A    between atoms: O_8  and  C_9
REMARK    5  A    between atoms: C_9  and  C_10
REMARK    6  A    between atoms: C_14  and  S_16
REMARK    7  A    between atoms: S_16  and  C_17
REMARK    8  A    between atoms: C_17  and  C_18
REMARK    9  A    between atoms: N_20  and  C_21
REMARK   10  A    between atoms: C_22  and  C_29
REMARK                            x       y       z     vdW  Elec       q    Type
REMARK                         _______ _______ _______ _____ _____    ______ ____
ROOT
ATOM      1  C   UNL     1       0.053   2.495   9.062  0.00  0.00    +0.173 C 
ENDROOT
BRANCH   1   2
ATOM      2  C   UNL     1       0.065   2.610  10.564  0.00  0.00    +0.228 C 
ATOM      3  O   UNL     1       0.085   1.608  11.248  0.00  0.00    -0.275 OA
ATOM      4  N   UNL     1       0.054   3.824  11.148  0.00  0.00    -0.279 N 
ATOM      5  H   UNL     1       0.036   4.733  10.528  0.00  0.00    +0.155 HD
BRANCH   4   6
ATOM      6  C   UNL     1       0.065   3.929  12.531  0.00  0.00    +0.084 A 
ATOM      7  C   UNL     1       0.062   5.076  13.306  0.00  0.00    +0.068 A 
ATOM      8  C   UNL     1       0.072   4.910  14.759  0.00  0.00    -0.023 A 
ATOM      9  C   UNL     1       0.093   3.636  15.189  0.00  0.00    -0.004 A 
ATOM     10  S   UNL     1       0.093   2.659  13.706  0.00  0.00    -0.077 S 
ATOM     11  C   UNL     1       0.105   3.547  16.691  0.00  0.00    +0.043 C 
ATOM     12  C   UNL     1      -0.348   4.945  17.167  0.00  0.00    +0.010 C 
ATOM     13  C   UNL     1       0.072   5.833  15.979  0.00  0.00    +0.037 C 
BRANCH   7  14
ATOM     14  C   UNL     1       0.046   6.408  12.694  0.00  0.00    +0.244 C 
ATOM     15  O   UNL     1      -1.015   6.952  12.449  0.00  0.00    -0.270 OA
ATOM     16  N   UNL     1       1.205   7.029  12.401  0.00  0.00    -0.325 N 
ATOM     17  H   UNL     1       1.193   8.029  11.941  0.00  0.00    +0.145 HD
ATOM     18  H   UNL     1       2.164   6.538  12.623  0.00  0.00    +0.145 HD
ENDBRANCH   7  14
ENDBRANCH   4   6
ENDBRANCH   1   2
BRANCH   1  19
ATOM     19  S   UNL     1       0.072   0.745   8.588  0.00  0.00    -0.077 S 
BRANCH  19  24
ATOM     20  C   UNL     1       0.046   0.090   4.775  0.00  0.00    +0.189 A 
ATOM     21  N   UNL     1       0.038   1.433   4.746  0.00  0.00    -0.153 NA
ATOM     22  H   UNL     1       0.031   2.936   6.317  0.00  0.00    +0.191 HD
ATOM     23  N   UNL     1       0.041   1.861   6.083  0.00  0.00    -0.253 N 
ATOM     24  C   UNL     1       0.056   0.779   6.827  0.00  0.00    +0.185 A 
ATOM     25  N   UNL     1       0.057  -0.292   6.027  0.00  0.00    -0.202 NA
BRANCH  20  26
ATOM     26  C   UNL     1       0.043  -0.820   3.574  0.00  0.00    +0.306 C 
BRANCH  26  27
ATOM     27  O   UNL     1       0.016  -0.033   2.381  0.00  0.00    -0.484 OA
BRANCH  27  33
ATOM     28  C   UNL     1       0.040  -4.279  -0.027  0.00  0.00    +0.044 C 
ATOM     29  C   UNL     1       0.021  -2.772  -0.014  0.00  0.00    -0.047 A 
ATOM     30  C   UNL     1      -0.004  -2.071  -1.206  0.00  0.00    +0.004 A 
ATOM     31  C   UNL     1      -0.028  -0.689  -1.198  0.00  0.00    +0.007 A 
ATOM     32  C   UNL     1      -0.015  -0.004   0.002  0.00  0.00    -0.009 A 
ATOM     33  C   UNL     1       0.010  -0.705   1.199  0.00  0.00    +0.124 A 
ATOM     34  C   UNL     1       0.028  -2.092   1.188  0.00  0.00    +0.049 A 
ATOM     35  C   UNL     1      -0.036   1.503   0.011  0.00  0.00    +0.047 C 
ENDBRANCH  27  33
ENDBRANCH  26  27
ENDBRANCH  20  26
ENDBRANCH  19  24
ENDBRANCH   1  19
TORSDOF 8
