REMARK  Name = ZINC01588573
REMARK  6 active torsions:
REMARK  status: ('A' for Active; 'I' for Inactive)
REMARK    1  A    between atoms: C_1  and  C_2
REMARK    2  A    between atoms: C_7  and  C_8
REMARK    3  A    between atoms: C_15  and  C_18
REMARK    4  A    between atoms: C_25  and  C_28
REMARK    5  A    between atoms: C_28  and  O_29
REMARK    6  A    between atoms: O_29  and  C_30
REMARK                            x       y       z     vdW  Elec       q    Type
REMARK                         _______ _______ _______ _____ _____    ______ ____
ROOT
ATOM      1  C   UNL     1       9.767  -4.923  -5.449  0.00  0.00    +0.044 C 
ATOM      2  C   UNL     1       9.139  -4.472  -4.155  0.00  0.00    -0.046 A 
ATOM      3  C   UNL     1       8.444  -3.275  -4.105  0.00  0.00    +0.028 A 
ATOM      4  C   UNL     1       7.867  -2.860  -2.916  0.00  0.00    +0.053 A 
ATOM      5  C   UNL     1       7.985  -3.646  -1.771  0.00  0.00    +0.055 A 
ATOM      6  C   UNL     1       8.683  -4.843  -1.831  0.00  0.00    +0.028 A 
ATOM      7  C   UNL     1       9.257  -5.252  -3.021  0.00  0.00    -0.046 A 
ATOM      8  C   UNL     1      10.014  -6.554  -3.082  0.00  0.00    +0.044 C 
ATOM      9  N   UNL     1       7.409  -3.247  -0.550  0.00  0.00    -0.283 N 
ATOM     10  C   UNL     1       6.527  -2.186  -0.570  0.00  0.00    +0.211 C 
ATOM     11  C   UNL     1       6.396  -1.391  -1.701  0.00  0.00    +0.137 C 
ATOM     12  N   UNL     1       7.159  -1.643  -2.876  0.00  0.00    -0.306 N 
ATOM     13  C   UNL     1       5.456  -0.402  -1.469  0.00  0.00    +0.227 C 
ATOM     14  O   UNL     1       5.092   0.468  -2.240  0.00  0.00    -0.286 OA
ATOM     15  C   UNL     1       4.978  -0.633  -0.049  0.00  0.00    +0.279 C 
ATOM     16  O   UNL     1       5.715  -1.774   0.412  0.00  0.00    -0.461 OA
ATOM     17  H   UNL     1       7.666  -3.776   0.379  0.00  0.00    +0.155 HD
ATOM     18  H   UNL     1       7.216  -0.946  -3.725  0.00  0.00    +0.152 HD
ENDROOT
BRANCH  15  19
ATOM     19  C   UNL     1       3.499  -0.926  -0.036  0.00  0.00    +0.025 A 
ATOM     20  C   UNL     1       2.926  -2.139  -0.037  0.00  0.00    +0.091 A 
ATOM     21  N   UNL     1       1.563  -2.011  -0.024  0.00  0.00    -0.360 N 
ATOM     22  H   UNL     1       0.927  -2.908  -0.022  0.00  0.00    +0.165 HD
ATOM     23  C   UNL     1       1.218  -0.678  -0.013  0.00  0.00    +0.047 A 
ATOM     24  C   UNL     1       2.416   0.060  -0.021  0.00  0.00    +0.007 A 
ATOM     25  C   UNL     1       2.374   1.456  -0.012  0.00  0.00    +0.017 A 
ATOM     26  C   UNL     1       1.167   2.098   0.002  0.00  0.00    -0.010 A 
ATOM     27  C   UNL     1      -0.017   1.374   0.010  0.00  0.00    +0.009 A 
ATOM     28  C   UNL     1       0.002  -0.004   0.002  0.00  0.00    +0.026 A 
BRANCH  26  29
ATOM     29  C   UNL     1       1.123   3.604   0.011  0.00  0.00    +0.264 C 
BRANCH  29  30
ATOM     30  O   UNL     1       1.121   4.073   1.361  0.00  0.00    -0.487 OA
BRANCH  30  31
ATOM     31  C   UNL     1       1.083   5.419   1.546  0.00  0.00    +0.121 A 
ATOM     32  C   UNL     1       1.053   6.270   0.452  0.00  0.00    +0.045 A 
ATOM     33  C   UNL     1       1.008   7.638   0.643  0.00  0.00    +0.004 A 
ATOM     34  C   UNL     1       1.005   8.158   1.924  0.00  0.00    +0.000 A 
ATOM     35  C   UNL     1       1.040   7.311   3.017  0.00  0.00    +0.004 A 
ATOM     36  C   UNL     1       1.079   5.943   2.831  0.00  0.00    +0.045 A 
ENDBRANCH  30  31
ENDBRANCH  29  30
ENDBRANCH  26  29
ENDBRANCH  15  19
TORSDOF 4
