REMARK  Name = ZINC39957687
REMARK  6 active torsions:
REMARK  status: ('A' for Active; 'I' for Inactive)
REMARK    1  A    between atoms: C_7  and  C_10
REMARK    2  A    between atoms: C_13  and  S_19
REMARK    3  A    between atoms: N_15  and  C_16
REMARK    4  A    between atoms: S_19  and  C_20
REMARK    5  A    between atoms: C_20  and  C_21
REMARK    6  A    between atoms: C_29  and  C_31
REMARK                            x       y       z     vdW  Elec       q    Type
REMARK                         _______ _______ _______ _____ _____    ______ ____
ROOT
ATOM      1  C   UNL     1       3.357  -3.551   1.087  0.00  0.00    +0.147 C 
ATOM      2  N   UNL     1       2.130  -3.269   0.735  0.00  0.00    -0.169 NA
ATOM      3  N   UNL     1       1.466  -4.404   0.256  0.00  0.00    -0.237 N 
ATOM      4  C   UNL     1       2.427  -5.516   0.333  0.00  0.00    +0.237 C 
ATOM      5  N   UNL     1       3.649  -4.902   0.877  0.00  0.00    -0.282 N 
ATOM      6  H   UNL     1       0.551  -4.449  -0.064  0.00  0.00    +0.171 HD
ENDROOT
BRANCH   1  13
ATOM      7  C   UNL     1       3.103   0.946   1.631  0.00  0.00    +0.001 A 
ATOM      8  C   UNL     1       4.252   1.506   2.194  0.00  0.00    +0.002 A 
ATOM      9  C   UNL     1       5.324   0.749   2.535  0.00  0.00    +0.026 A 
ATOM     10  C   UNL     1       5.295  -0.653   2.320  0.00  0.00    +0.043 A 
ATOM     11  N   UNL     1       6.190  -1.591   2.560  0.00  0.00    -0.380 N 
ATOM     12  C   UNL     1       5.652  -2.890   2.147  0.00  0.00    +0.152 C 
ATOM     13  C   UNL     1       4.266  -2.616   1.605  0.00  0.00    +0.022 C 
ATOM     14  C   UNL     1       4.082  -1.238   1.726  0.00  0.00    +0.006 A 
ATOM     15  C   UNL     1       3.005  -0.388   1.397  0.00  0.00    +0.010 A 
ATOM     16  H   UNL     1       7.066  -1.444   2.949  0.00  0.00    +0.160 HD
ENDBRANCH   1  13
BRANCH   5  17
ATOM     17  C   UNL     1       4.922  -5.575   1.149  0.00  0.00    +0.078 C 
ATOM     18  C   UNL     1       5.033  -7.053   0.773  0.00  0.00    +0.024 C 
ATOM     19  C   UNL     1       4.936  -6.644   2.244  0.00  0.00    +0.024 C 
ENDBRANCH   5  17
BRANCH   4  20
ATOM     20  S   UNL     1       1.810  -6.814   1.440  0.00  0.00    -0.109 S 
BRANCH  20  21
ATOM     21  C   UNL     1       1.583  -5.965   3.027  0.00  0.00    +0.168 C 
BRANCH  21  22
ATOM     22  C   UNL     1       1.066  -6.943   4.051  0.00  0.00    +0.226 C 
ATOM     23  O   UNL     1       0.871  -8.099   3.740  0.00  0.00    -0.275 OA
ATOM     24  N   UNL     1       0.822  -6.533   5.311  0.00  0.00    -0.298 N 
ATOM     25  C   UNL     1       1.048  -5.134   5.700  0.00  0.00    +0.127 C 
ATOM     26  C   UNL     1      -0.250  -4.574   6.295  0.00  0.00    +0.127 C 
ATOM     27  N   UNL     1      -0.749  -5.518   7.305  0.00  0.00    -0.294 N 
ATOM     28  C   UNL     1      -0.975  -6.917   6.916  0.00  0.00    +0.127 C 
ATOM     29  C   UNL     1       0.318  -7.475   6.319  0.00  0.00    +0.127 C 
ATOM     30  C   UNL     1      -0.993  -5.108   8.565  0.00  0.00    +0.253 C 
ATOM     31  O   UNL     1      -1.247  -5.924   9.432  0.00  0.00    -0.269 OA
BRANCH  30  32
ATOM     32  C   UNL     1      -0.954  -3.680   8.892  0.00  0.00    +0.074 A 
ATOM     33  C   UNL     1      -0.949  -3.068  10.136  0.00  0.00    +0.021 A 
ATOM     34  C   UNL     1      -0.908  -1.694  10.126  0.00  0.00    +0.008 A 
ATOM     35  C   UNL     1      -0.876  -1.045   8.935  0.00  0.00    +0.046 A 
ATOM     36  S   UNL     1      -0.893  -2.277   7.794  0.00  0.00    -0.092 S 
ENDBRANCH  30  32
ENDBRANCH  21  22
ENDBRANCH  20  21
ENDBRANCH   4  20
TORSDOF 6
