REMARK  Name = ZINC39243255
REMARK  7 active torsions:
REMARK  status: ('A' for Active; 'I' for Inactive)
REMARK    1  A    between atoms: C_1  and  C_2
REMARK    2  A    between atoms: C_4  and  C_16
REMARK    3  A    between atoms: C_6  and  C_14
REMARK    4  A    between atoms: C_7  and  N_13
REMARK    5  A    between atoms: C_20  and  O_22
REMARK    6  A    between atoms: O_22  and  C_23
REMARK    7  A    between atoms: C_23  and  C_24
REMARK                            x       y       z     vdW  Elec       q    Type
REMARK                         _______ _______ _______ _____ _____    ______ ____
ROOT
ATOM      1  C   UNL     1      -0.018   1.503   0.010  0.00  0.00    +0.067 C 
ATOM      2  C   UNL     1       0.002  -0.004   0.002  0.00  0.00    +0.066 C 
ATOM      3  C   UNL     1      -1.064  -0.768   0.003  0.00  0.00    +0.030 C 
ATOM      4  C   UNL     1      -2.536  -0.493   0.145  0.00  0.00    +0.098 C 
ATOM      5  C   UNL     1      -3.065  -1.577   1.066  0.00  0.00    +0.097 C 
ATOM      6  C   UNL     1      -2.303  -2.628   1.436  0.00  0.00    +0.195 C 
ATOM      7  O   UNL     1      -1.023  -2.853   1.091  0.00  0.00    -0.448 OA
ATOM      8  C   UNL     1      -0.529  -2.198  -0.081  0.00  0.00    +0.343 C 
ATOM      9  N   UNL     1       0.921  -1.985  -0.028  0.00  0.00    -0.138 NA
ATOM     10  N   UNL     1       1.127  -0.765  -0.013  0.00  0.00    -0.155 NA
ENDROOT
BRANCH   4  11
ATOM     11  C   UNL     1      -2.755   0.867   0.756  0.00  0.00    -0.031 A 
ATOM     12  C   UNL     1      -2.246   1.151   2.010  0.00  0.00    +0.005 A 
ATOM     13  C   UNL     1      -2.446   2.397   2.574  0.00  0.00    +0.004 A 
ATOM     14  C   UNL     1      -3.155   3.362   1.885  0.00  0.00    +0.045 A 
ATOM     15  C   UNL     1      -3.667   3.080   0.627  0.00  0.00    +0.121 A 
ATOM     16  C   UNL     1      -3.460   1.830   0.061  0.00  0.00    +0.050 A 
BRANCH  15  17
ATOM     17  O   UNL     1      -4.365   4.027  -0.052  0.00  0.00    -0.487 OA
BRANCH  17  18
ATOM     18  C   UNL     1      -4.534   5.293   0.589  0.00  0.00    +0.264 C 
BRANCH  18  19
ATOM     19  C   UNL     1      -5.327   6.209  -0.307  0.00  0.00    -0.010 A 
ATOM     20  C   UNL     1      -4.676   7.014  -1.223  0.00  0.00    +0.008 A 
ATOM     21  C   UNL     1      -5.402   7.854  -2.046  0.00  0.00    +0.020 A 
ATOM     22  C   UNL     1      -6.782   7.889  -1.953  0.00  0.00    +0.041 A 
ATOM     23  C   UNL     1      -7.434   7.083  -1.036  0.00  0.00    +0.020 A 
ATOM     24  C   UNL     1      -6.707   6.239  -0.218  0.00  0.00    +0.008 A 
ATOM     25 CL   UNL     1      -7.696   8.944  -2.985  0.00  0.00    -0.084 Cl
ENDBRANCH  18  19
ENDBRANCH  17  18
ENDBRANCH  15  17
ENDBRANCH   4  11
BRANCH   6  26
ATOM     26  N   UNL     1      -2.896  -3.562   2.247  0.00  0.00    -0.329 N 
ATOM     27  H   UNL     1      -3.818  -3.448   2.526  0.00  0.00    +0.145 HD
ATOM     28  H   UNL     1      -2.393  -4.337   2.542  0.00  0.00    +0.145 HD
ENDBRANCH   6  26
BRANCH   5  29
ATOM     29  C   UNL     1      -4.407  -1.482   1.556  0.00  0.00    +0.101 C 
ATOM     30  N   UNL     1      -5.472  -1.407   1.944  0.00  0.00    -0.191 NA
ENDBRANCH   5  29
TORSDOF 6
