REMARK  Name = ZINC12881082
REMARK  9 active torsions:
REMARK  status: ('A' for Active; 'I' for Inactive)
REMARK    1  A    between atoms: C_1  and  C_2
REMARK    2  A    between atoms: N_4  and  C_5
REMARK    3  A    between atoms: C_7  and  O_42
REMARK    4  A    between atoms: C_9  and  O_41
REMARK    5  A    between atoms: C_11  and  C_39
REMARK    6  A    between atoms: C_14  and  O_16
REMARK    7  A    between atoms: O_16  and  C_17
REMARK    8  A    between atoms: C_31  and  C_38
REMARK    9  A    between atoms: C_39  and  O_40
REMARK                            x       y       z     vdW  Elec       q    Type
REMARK                         _______ _______ _______ _____ _____    ______ ____
ROOT
ATOM      1  O   UNL     1      -1.810  -0.117   1.998  0.00  0.00    -0.462 OA
ENDROOT
BRANCH   1   2
ATOM      2  C   UNL     1      -1.931  -0.462   3.307  0.00  0.00    +0.124 A 
ATOM      3  C   UNL     1      -2.997   0.012   4.057  0.00  0.00    +0.046 A 
ATOM      4  C   UNL     1      -3.112  -0.346   5.383  0.00  0.00    +0.008 A 
ATOM      5  C   UNL     1      -2.169  -1.177   5.977  0.00  0.00    -0.041 A 
ATOM      6  C   UNL     1      -1.108  -1.646   5.234  0.00  0.00    -0.040 A 
ATOM      7  C   UNL     1      -0.994  -1.294   3.897  0.00  0.00    +0.049 A 
ATOM      8  C   UNL     1      -0.045  -2.542   5.815  0.00  0.00    +0.036 C 
ATOM      9  C   UNL     1      -0.525  -3.170   7.122  0.00  0.00    +0.009 C 
ATOM     10  C   UNL     1      -1.052  -2.052   8.030  0.00  0.00    +0.001 C 
ATOM     11  C   UNL     1      -2.362  -1.531   7.427  0.00  0.00    +0.023 C 
ATOM     12  C   UNL     1      -2.890  -0.311   8.177  0.00  0.00    +0.009 C 
ATOM     13  C   UNL     1      -1.830   0.793   8.320  0.00  0.00    +0.015 C 
ATOM     14  C   UNL     1      -0.630   0.175   9.012  0.00  0.00    +0.029 C 
ATOM     15  C   UNL     1      -0.054  -0.908   8.062  0.00  0.00    +0.006 C 
ATOM     16  C   UNL     1       1.287  -1.217   8.739  0.00  0.00    +0.012 C 
ATOM     17  C   UNL     1       1.780   0.193   9.164  0.00  0.00    +0.075 C 
ATOM     18  C   UNL     1       0.541   1.076   9.269  0.00  0.00    +0.139 C 
ATOM     19  O   UNL     1       0.509   2.259   9.510  0.00  0.00    -0.297 OA
ATOM     20  C   UNL     1      -1.077  -0.475  10.323  0.00  0.00    +0.019 C 
ENDBRANCH   1   2
BRANCH   1  26
ATOM     21  C   UNL     1      -2.449   1.117   0.020  0.00  0.00    +0.173 C 
ATOM     22  C   UNL     1      -3.563   1.985  -0.573  0.00  0.00    +0.172 C 
ATOM     23  C   UNL     1      -4.888   1.221  -0.494  0.00  0.00    +0.176 C 
ATOM     24  C   UNL     1      -5.162   0.839   0.963  0.00  0.00    +0.179 C 
ATOM     25  O   UNL     1      -4.074   0.059   1.462  0.00  0.00    -0.332 OA
ATOM     26  C   UNL     1      -2.818   0.739   1.457  0.00  0.00    +0.331 C 
BRANCH  21  30
ATOM     27  C   UNL     1       1.280   1.980   0.001  0.00  0.00    +0.109 C 
ATOM     28  C   UNL     1      -0.014   1.209   0.009  0.00  0.00    +0.210 C 
ATOM     29  O   UNL     1       0.002  -0.004   0.002  0.00  0.00    -0.276 OA
ATOM     30  N   UNL     1      -1.191   1.867   0.018  0.00  0.00    -0.304 N 
ATOM     31  H   UNL     1      -1.204   2.837   0.023  0.00  0.00    +0.149 HD
ENDBRANCH  21  30
BRANCH  23  32
ATOM     32  O   UNL     1      -5.947   2.049  -0.979  0.00  0.00    -0.387 OA
ATOM     33  H   UNL     1      -6.818   1.629  -0.953  0.00  0.00    +0.210 HD
ENDBRANCH  23  32
BRANCH  22  34
ATOM     34  O   UNL     1      -3.263   2.282  -1.938  0.00  0.00    -0.387 OA
ATOM     35  H   UNL     1      -3.928   2.830  -2.377  0.00  0.00    +0.210 HD
ENDBRANCH  22  34
BRANCH  24  36
ATOM     36  C   UNL     1      -6.454   0.023   1.042  0.00  0.00    +0.190 C 
BRANCH  36  37
ATOM     37  O   UNL     1      -6.771  -0.235   2.411  0.00  0.00    -0.392 OA
ATOM     38  H   UNL     1      -7.580  -0.749   2.538  0.00  0.00    +0.210 HD
ENDBRANCH  36  37
ENDBRANCH  24  36
ENDBRANCH   1  26
TORSDOF 7
