REMARK  Name = ZINC38740467
REMARK  4 active torsions:
REMARK  status: ('A' for Active; 'I' for Inactive)
REMARK    1  A    between atoms: C_13  and  C_15
REMARK    2  A    between atoms: C_21  and  C_23
REMARK    3  A    between atoms: N_25  and  N_26
REMARK    4  A    between atoms: N_26  and  C_27
REMARK                            x       y       z     vdW  Elec       q    Type
REMARK                         _______ _______ _______ _____ _____    ______ ____
ROOT
ATOM      1  C   UNL     1      -0.032  -6.653   1.157  0.00  0.00    +0.091 C 
ATOM      2  C   UNL     1      -0.790  -6.402  -0.149  0.00  0.00    +0.040 C 
ATOM      3  C   UNL     1      -1.930  -7.369  -0.279  0.00  0.00    -0.030 C 
ATOM      4  C   UNL     1      -2.036  -8.461   0.407  0.00  0.00    -0.030 C 
ATOM      5  C   UNL     1      -1.039  -8.909   1.435  0.00  0.00    +0.040 C 
ATOM      6  C   UNL     1       0.278  -8.152   1.262  0.00  0.00    +0.092 C 
ENDROOT
BRANCH   1  19
ATOM      7  C   UNL     1       0.427   0.649   4.650  0.00  0.00    +0.005 A 
ATOM      8  C   UNL     1       1.643   1.321   4.662  0.00  0.00    +0.018 A 
ATOM      9  C   UNL     1       2.785   0.660   4.258  0.00  0.00    +0.084 A 
ATOM     10  N   UNL     1       2.735  -0.598   3.862  0.00  0.00    -0.350 N 
ATOM     11  C   UNL     1       1.596  -1.272   3.837  0.00  0.00    +0.099 A 
ATOM     12  C   UNL     1       0.406  -0.668   4.231  0.00  0.00    +0.042 A 
ATOM     13  N   UNL     1       1.589  -2.596   3.413  0.00  0.00    -0.314 N 
ATOM     14  C   UNL     1       0.364  -3.404   3.504  0.00  0.00    +0.125 C 
ATOM     15  C   UNL     1       0.045  -3.968   2.114  0.00  0.00    +0.126 C 
ATOM     16  N   UNL     1       1.261  -4.585   1.566  0.00  0.00    -0.298 N 
ATOM     17  C   UNL     1       2.485  -3.776   1.475  0.00  0.00    +0.126 C 
ATOM     18  C   UNL     1       2.804  -3.211   2.860  0.00  0.00    +0.125 C 
ATOM     19  C   UNL     1       1.254  -5.868   1.155  0.00  0.00    +0.220 C 
ATOM     20  O   UNL     1       2.283  -6.391   0.784  0.00  0.00    -0.275 OA
ATOM     21  H   UNL     1       3.552  -1.039   3.584  0.00  0.00    +0.166 HD
ENDBRANCH   1  19
BRANCH   6  22
ATOM     22  C   UNL     1       1.171  -8.402   2.450  0.00  0.00    +0.233 C 
ATOM     23  O   UNL     1       1.527  -7.475   3.147  0.00  0.00    -0.274 OA
ATOM     24  N   UNL     1       1.574  -9.655   2.738  0.00  0.00    -0.236 N 
ATOM     25  H   UNL     1       1.290 -10.396   2.180  0.00  0.00    +0.173 HD
BRANCH  24  26
ATOM     26  N   UNL     1       2.404  -9.888   3.842  0.00  0.00    -0.264 N 
ATOM     27  H   UNL     1       2.689  -9.147   4.400  0.00  0.00    +0.170 HD
BRANCH  26  28
ATOM     28  C   UNL     1       2.822 -11.187   4.140  0.00  0.00    +0.045 A 
ATOM     29  C   UNL     1       2.420 -12.249   3.340  0.00  0.00    +0.024 A 
ATOM     30  C   UNL     1       2.835 -13.532   3.636  0.00  0.00    +0.003 A 
ATOM     31  C   UNL     1       3.650 -13.761   4.730  0.00  0.00    +0.015 A 
ATOM     32  C   UNL     1       4.052 -12.707   5.530  0.00  0.00    +0.020 A 
ATOM     33  C   UNL     1       3.645 -11.419   5.235  0.00  0.00    +0.039 A 
ATOM     34 BR   UNL     1       5.166 -13.026   7.025  0.00  0.00    -0.050 Br
ENDBRANCH  26  28
ENDBRANCH  24  26
ENDBRANCH   6  22
TORSDOF 4
