REMARK  Name = ZINC15675613
REMARK  7 active torsions:
REMARK  status: ('A' for Active; 'I' for Inactive)
REMARK    1  A    between atoms: C_1  and  C_2
REMARK    2  A    between atoms: C_2  and  N_71
REMARK    3  A    between atoms: C_6  and  C_8
REMARK    4  A    between atoms: C_8  and  N_9
REMARK    5  A    between atoms: C_18  and  C_19
REMARK    6  A    between atoms: C_18  and  C_20
REMARK    7  A    between atoms: N_22  and  C_23
REMARK                            x       y       z     vdW  Elec       q    Type
REMARK                         _______ _______ _______ _____ _____    ______ ____
ROOT
ATOM      1  N   UNL     1      -0.968   1.076   2.131  0.00  0.00    -0.282 N 
ATOM      2  C   UNL     1      -1.578   0.736   3.291  0.00  0.00    +0.264 C 
ATOM      3  O   UNL     1      -0.969   0.684   4.344  0.00  0.00    -0.268 OA
ATOM      4  C   UNL     1      -3.012   0.432   3.212  0.00  0.00    +0.109 A 
ATOM      5  C   UNL     1      -3.935   0.233   4.195  0.00  0.00    +0.079 A 
ATOM      6  C   UNL     1      -5.167  -0.017   3.572  0.00  0.00    +0.153 A 
ATOM      7  C   UNL     1      -4.959   0.021   2.194  0.00  0.00    +0.088 A 
ATOM      8  N   UNL     1      -3.639   0.281   1.977  0.00  0.00    -0.331 N 
ATOM      9  C   UNL     1      -2.895   0.393   0.719  0.00  0.00    +0.157 C 
ATOM     10  C   UNL     1      -1.723   1.355   0.915  0.00  0.00    +0.128 C 
ATOM     11  C   UNL     1      -0.784   1.242  -0.287  0.00  0.00    +0.043 C 
ATOM     12  C   UNL     1      -6.219  -0.230   1.599  0.00  0.00    +0.067 A 
ATOM     13  C   UNL     1      -7.102  -0.407   2.596  0.00  0.00    +0.198 A 
ATOM     14  O   UNL     1      -6.475  -0.282   3.778  0.00  0.00    -0.461 OA
ENDROOT
BRANCH  10  15
ATOM     15  C   UNL     1      -2.258   2.762   0.985  0.00  0.00    +0.238 C 
ATOM     16  O   UNL     1      -2.340   3.430  -0.024  0.00  0.00    -0.273 OA
ATOM     17  N   UNL     1      -2.644   3.278   2.168  0.00  0.00    -0.311 N 
ATOM     18  H   UNL     1      -2.507   2.773   2.986  0.00  0.00    +0.149 HD
BRANCH  17  19
ATOM     19  C   UNL     1      -3.269   4.602   2.221  0.00  0.00    +0.073 C 
ATOM     20  C   UNL     1      -2.184   5.680   2.203  0.00  0.00    +0.022 C 
ATOM     21  C   UNL     1      -2.813   7.032   1.860  0.00  0.00    +0.002 C 
ATOM     22  C   UNL     1      -3.798   6.857   0.702  0.00  0.00    +0.000 C 
ATOM     23  C   UNL     1      -5.221   7.113   1.200  0.00  0.00    +0.000 C 
ATOM     24  C   UNL     1      -5.704   5.905   2.004  0.00  0.00    +0.000 C 
ATOM     25  C   UNL     1      -5.047   5.915   3.386  0.00  0.00    +0.002 C 
ATOM     26  C   UNL     1      -4.091   4.727   3.506  0.00  0.00    +0.022 C 
ENDBRANCH  17  19
ENDBRANCH  10  15
BRANCH   1  27
ATOM     27  C   UNL     1       0.493   1.168   2.097  0.00  0.00    +0.094 C 
BRANCH  27  31
ATOM     28  C   UNL     1       1.731  -2.134   3.062  0.00  0.00    -0.078 C 
ATOM     29  C   UNL     1       2.939  -1.676   2.217  0.00  0.00    -0.020 C 
ATOM     30  C   UNL     1       2.625  -0.182   1.937  0.00  0.00    -0.016 C 
ATOM     31  C   UNL     1       1.083  -0.209   1.787  0.00  0.00    -0.051 C 
ATOM     32  N   UNL     1       0.633  -1.191   2.793  0.00  0.00    +0.382 N 
ATOM     33  H   UNL     1       0.387  -0.700   3.661  0.00  0.00    -0.081 HD
BRANCH  32  35
ATOM     34  C   UNL     1      -1.129  -2.788   3.423  0.00  0.00    -0.017 C 
ATOM     35  C   UNL     1      -0.561  -1.924   2.296  0.00  0.00    -0.082 C 
ENDBRANCH  32  35
ENDBRANCH  27  31
ENDBRANCH   1  27
TORSDOF 5
