REMARK  Name = ZINC08299181
REMARK  10 active torsions:
REMARK  status: ('A' for Active; 'I' for Inactive)
REMARK    1  A    between atoms: C_1  and  C_2
REMARK    2  A    between atoms: C_2  and  C_3
REMARK    3  A    between atoms: C_2  and  C_4
REMARK    4  A    between atoms: C_2  and  C_5
REMARK    5  A    between atoms: C_8  and  C_11
REMARK    6  A    between atoms: N_13  and  C_16
REMARK    7  A    between atoms: C_16  and  C_17
REMARK    8  A    between atoms: C_25  and  C_27
REMARK    9  A    between atoms: N_29  and  C_30
REMARK   10  A    between atoms: C_30  and  C_31
REMARK                            x       y       z     vdW  Elec       q    Type
REMARK                         _______ _______ _______ _____ _____    ______ ____
ROOT
ATOM      1  C   UNL     1      -1.025   9.751  -3.028  0.00  0.00    -0.046 C 
ATOM      2  C   UNL     1       0.282  10.072  -2.296  0.00  0.00    -0.010 C 
ATOM      3  C   UNL     1       1.438   9.366  -3.016  0.00  0.00    -0.004 C 
ATOM      4  C   UNL     1       1.484   9.857  -4.468  0.00  0.00    -0.015 C 
ATOM      5  C   UNL     1       0.143   9.542  -5.139  0.00  0.00    -0.078 C 
ATOM      6  C   UNL     1      -0.165   7.594  -3.729  0.00  0.00    -0.065 C 
ATOM      7  C   UNL     1       1.165   7.857  -3.018  0.00  0.00    +0.061 C 
ATOM      8  N   UNL     1      -0.765   8.869  -4.186  0.00  0.00    +0.383 N 
ATOM      9  H   UNL     1      -1.654   8.668  -4.658  0.00  0.00    -0.081 HD
ENDROOT
BRANCH   7  10
ATOM     10  C   UNL     1       1.086   7.356  -1.599  0.00  0.00    +0.215 C 
ATOM     11  O   UNL     1       1.238   8.126  -0.674  0.00  0.00    -0.276 OA
ATOM     12  N   UNL     1       0.847   6.052  -1.357  0.00  0.00    -0.311 N 
ATOM     13  H   UNL     1       0.725   5.436  -2.096  0.00  0.00    +0.149 HD
BRANCH  12  14
ATOM     14  C   UNL     1       0.770   5.565   0.023  0.00  0.00    +0.139 C 
BRANCH  14  15
ATOM     15  C   UNL     1       0.495   4.083   0.018  0.00  0.00    -0.027 A 
ATOM     16  C   UNL     1      -0.808   3.623   0.028  0.00  0.00    +0.009 A 
ATOM     17  C   UNL     1      -1.066   2.265   0.019  0.00  0.00    +0.050 A 
ATOM     18  C   UNL     1      -0.016   1.361   0.009  0.00  0.00    +0.166 A 
ATOM     19  C   UNL     1       1.297   1.824  -0.001  0.00  0.00    +0.167 A 
ATOM     20  C   UNL     1       1.547   3.187   0.004  0.00  0.00    +0.054 A 
ATOM     21  O   UNL     1       2.138   0.749  -0.014  0.00  0.00    -0.453 OA
ATOM     22  C   UNL     1       1.336  -0.373   0.399  0.00  0.00    +0.466 C 
ATOM     23  O   UNL     1       0.002  -0.004   0.002  0.00  0.00    -0.453 OA
ENDBRANCH  14  15
ENDBRANCH  12  14
ENDBRANCH   7  10
BRANCH   1  24
ATOM     24  C   UNL     1      -1.985   9.043  -2.070  0.00  0.00    +0.130 C 
BRANCH  24  27
ATOM     25  C   UNL     1      -5.068   7.930  -3.550  0.00  0.00    +0.113 A 
ATOM     26  C   UNL     1      -3.910   7.656  -2.883  0.00  0.00    +0.138 A 
ATOM     27  N   UNL     1      -3.276   8.841  -2.733  0.00  0.00    -0.253 N 
ATOM     28  N   UNL     1      -3.994   9.759  -3.277  0.00  0.00    -0.065 NA
ATOM     29  N   UNL     1      -5.068   9.256  -3.774  0.00  0.00    -0.130 NA
BRANCH  25  33
ATOM     30  C   UNL     1      -8.069   5.146  -4.706  0.00  0.00    -0.042 A 
ATOM     31  C   UNL     1      -8.218   6.487  -5.012  0.00  0.00    +0.005 A 
ATOM     32  C   UNL     1      -7.247   7.394  -4.639  0.00  0.00    +0.010 A 
ATOM     33  C   UNL     1      -6.116   6.958  -3.954  0.00  0.00    +0.004 A 
ATOM     34  C   UNL     1      -5.968   5.606  -3.653  0.00  0.00    +0.010 A 
ATOM     35  C   UNL     1      -6.947   4.707  -4.025  0.00  0.00    +0.005 A 
BRANCH  30  37
ATOM     36  C   UNL     1      -9.287   4.178  -6.637  0.00  0.00    +0.015 C 
ATOM     37  C   UNL     1      -9.132   4.160  -5.114  0.00  0.00    -0.013 C 
ATOM     38  C   UNL     1      -8.728   2.756  -4.660  0.00  0.00    +0.015 C 
ATOM     39  C   UNL     1     -10.462   4.544  -4.463  0.00  0.00    +0.015 C 
ENDBRANCH  30  37
ENDBRANCH  25  33
ENDBRANCH  24  27
ENDBRANCH   1  24
TORSDOF 7
