REMARK  Name = ZINC06751318
REMARK  11 active torsions:
REMARK  status: ('A' for Active; 'I' for Inactive)
REMARK    1  A    between atoms: C_1  and  C_2
REMARK    2  A    between atoms: C_2  and  N_64
REMARK    3  A    between atoms: C_3  and  C_4
REMARK    4  A    between atoms: C_3  and  N_64
REMARK    5  A    between atoms: C_5  and  C_6
REMARK    6  A    between atoms: C_5  and  N_64
REMARK    7  A    between atoms: C_6  and  C_7
REMARK    8  A    between atoms: C_7  and  N_8
REMARK    9  A    between atoms: C_9  and  C_11
REMARK   10  A    between atoms: C_12  and  C_30
REMARK   11  A    between atoms: C_20  and  O_29
REMARK                            x       y       z     vdW  Elec       q    Type
REMARK                         _______ _______ _______ _____ _____    ______ ____
ROOT
ATOM      1  C   UNL     1       5.677   3.405  -2.023  0.00  0.00    +0.193 A 
ATOM      2  C   UNL     1       4.424   3.591  -1.534  0.00  0.00    +0.008 A 
ATOM      3  C   UNL     1       3.559   2.678  -2.279  0.00  0.00    +0.033 A 
ATOM      4  C   UNL     1       4.401   2.001  -3.178  0.00  0.00    +0.137 A 
ATOM      5  O   UNL     1       5.653   2.466  -2.992  0.00  0.00    -0.450 OA
ATOM      6  C   UNL     1       3.859   1.052  -4.036  0.00  0.00    +0.050 A 
ATOM      7  C   UNL     1       2.509   0.785  -3.996  0.00  0.00    +0.049 A 
ATOM      8  C   UNL     1       1.672   1.457  -3.105  0.00  0.00    +0.128 A 
ATOM      9  C   UNL     1       2.183   2.403  -2.245  0.00  0.00    +0.034 A 
ATOM     10  C   UNL     1       1.319   3.156  -1.274  0.00  0.00    +0.152 C 
ATOM     11  C   UNL     1      -0.158   2.833  -1.441  0.00  0.00    +0.084 C 
ATOM     12  C   UNL     1      -0.348   1.384  -1.873  0.00  0.00    +0.113 C 
ATOM     13  O   UNL     1       0.343   1.159  -3.101  0.00  0.00    -0.485 OA
ATOM     14  C   UNL     1      -1.846   1.080  -2.053  0.00  0.00    +0.048 C 
ATOM     15  C   UNL     1      -1.999  -0.377  -1.546  0.00  0.00    +0.004 C 
ATOM     16  C   UNL     1      -1.028  -0.424  -0.340  0.00  0.00    +0.004 C 
ATOM     17  C   UNL     1       0.176   0.432  -0.789  0.00  0.00    +0.048 C 
ATOM     18  C   UNL     1       4.009   4.546  -0.444  0.00  0.00    +0.048 C 
ENDROOT
BRANCH   1  20
ATOM     19  N   UNL     1       8.075   3.850  -2.126  0.00  0.00    -0.309 N 
ATOM     20  C   UNL     1       6.878   4.117  -1.565  0.00  0.00    +0.280 C 
ATOM     21  O   UNL     1       6.793   4.949  -0.681  0.00  0.00    -0.267 OA
ATOM     22  H   UNL     1       8.143   3.188  -2.831  0.00  0.00    +0.149 HD
BRANCH  19  23
ATOM     23  C   UNL     1       9.272   4.561  -1.669  0.00  0.00    +0.103 C 
BRANCH  23  24
ATOM     24  C   UNL     1      10.487   4.074  -2.462  0.00  0.00    +0.000 C 
BRANCH  24  25
ATOM     25  C   UNL     1      11.738   4.816  -1.986  0.00  0.00    -0.077 C 
BRANCH  25  26
ATOM     26  N   UNL     1      12.898   4.350  -2.775  0.00  0.00    +0.379 N 
ATOM     27  H   UNL     1      12.671   4.420  -3.774  0.00  0.00    -0.082 HD
BRANCH  26  29
ATOM     28  C   UNL     1      13.933   6.510  -3.261  0.00  0.00    -0.017 C 
ATOM     29  C   UNL     1      14.075   5.197  -2.489  0.00  0.00    -0.082 C 
ENDBRANCH  26  29
BRANCH  26  30
ATOM     30  C   UNL     1      13.198   2.940  -2.448  0.00  0.00    -0.082 C 
ATOM     31  C   UNL     1      14.144   2.380  -3.511  0.00  0.00    -0.017 C 
ENDBRANCH  26  30
ENDBRANCH  25  26
ENDBRANCH  24  25
ENDBRANCH  23  24
ENDBRANCH  19  23
ENDBRANCH   1  20
BRANCH  10  32
ATOM     32  O   UNL     1       1.513   4.557  -1.473  0.00  0.00    -0.387 OA
ATOM     33  H   UNL     1       1.177   4.884  -2.319  0.00  0.00    +0.210 HD
ENDBRANCH  10  32
TORSDOF 8
