REMARK  Name = ZINC05734759
REMARK  5 active torsions:
REMARK  status: ('A' for Active; 'I' for Inactive)
REMARK    1  A    between atoms: C_10  and  N_11
REMARK    2  A    between atoms: C_12  and  O_14
REMARK    3  A    between atoms: O_14  and  N_15
REMARK    4  A    between atoms: C_20  and  C_21
REMARK    5  A    between atoms: C_20  and  C_23
REMARK                            x       y       z     vdW  Elec       q    Type
REMARK                         _______ _______ _______ _____ _____    ______ ____
ROOT
ATOM      1  N   UNL     1       1.266   3.398   0.026  0.00  0.00    -0.073 NA
ATOM      2  C   UNL     1       1.254   2.082   0.029  0.00  0.00    +0.103 C 
ATOM      3  C   UNL     1      -0.017   1.346   0.041  0.00  0.00    +0.031 C 
ATOM      4  C   UNL     1       0.001  -0.003   0.043  0.00  0.00    +0.011 C 
ATOM      5  C   UNL     1       1.228  -0.708   0.034  0.00  0.00    -0.007 C 
ATOM      6  C   UNL     1       1.214  -2.109   0.036  0.00  0.00    +0.066 C 
ATOM      7  C   UNL     1       2.467  -0.026   0.022  0.00  0.00    +0.011 C 
ATOM      8  C   UNL     1       2.511   1.322   0.019  0.00  0.00    +0.031 C 
ENDROOT
BRANCH   6   9
ATOM      9  C   UNL     1       2.484  -2.858   0.026  0.00  0.00    -0.007 A 
ATOM     10  C   UNL     1       3.337  -2.781  -1.080  0.00  0.00    +0.010 A 
ATOM     11  C   UNL     1       4.525  -3.480  -1.080  0.00  0.00    +0.020 A 
ATOM     12  C   UNL     1       4.870  -4.266   0.007  0.00  0.00    +0.041 A 
ATOM     13  C   UNL     1       4.028  -4.351   1.104  0.00  0.00    +0.020 A 
ATOM     14  C   UNL     1       2.839  -3.654   1.121  0.00  0.00    +0.010 A 
ATOM     15 CL   UNL     1       6.365  -5.148  -0.005  0.00  0.00    -0.084 Cl
ENDBRANCH   6   9
BRANCH   6  16
ATOM     16  C   UNL     1      -0.032  -2.813   0.049  0.00  0.00    +0.100 C 
ATOM     17  N   UNL     1      -1.021  -3.372   0.059  0.00  0.00    -0.191 NA
ENDBRANCH   6  16
BRANCH   1  18
ATOM     18  O   UNL     1       2.327   3.997   0.015  0.00  0.00    -0.298 OA
BRANCH  18  20
ATOM     19  N   UNL     1       3.406   6.066   0.001  0.00  0.00    -0.249 N 
ATOM     20  C   UNL     1       2.269   5.342   0.013  0.00  0.00    +0.430 C 
ATOM     21  O   UNL     1       1.191   5.904   0.021  0.00  0.00    -0.224 OA
ATOM     22  H   UNL     1       4.265   5.620   0.061  0.00  0.00    +0.158 HD
BRANCH  19  32
ATOM     23  C   UNL     1       6.267   9.596  -2.196  0.00  0.00    +0.001 A 
ATOM     24  C   UNL     1       6.345   8.207  -2.111  0.00  0.00    +0.001 A 
ATOM     25  C   UNL     1       5.404   7.494  -1.432  0.00  0.00    +0.010 A 
ATOM     26  C   UNL     1       4.343   8.164  -0.804  0.00  0.00    +0.003 A 
ATOM     27  C   UNL     1       4.261   9.575  -0.894  0.00  0.00    -0.016 A 
ATOM     28  C   UNL     1       5.250  10.279  -1.603  0.00  0.00    +0.008 A 
ATOM     29  C   UNL     1       3.196  10.247  -0.270  0.00  0.00    +0.008 A 
ATOM     30  C   UNL     1       2.251   9.540   0.410  0.00  0.00    +0.002 A 
ATOM     31  C   UNL     1       2.319   8.154   0.501  0.00  0.00    +0.024 A 
ATOM     32  C   UNL     1       3.347   7.457  -0.097  0.00  0.00    +0.044 A 
ENDBRANCH  19  32
ENDBRANCH  18  20
ENDBRANCH   1  18
TORSDOF 5
