REMARK  Name = ZINC10131071
REMARK  3 active torsions:
REMARK  status: ('A' for Active; 'I' for Inactive)
REMARK    1  A    between atoms: C_9  and  N_11
REMARK    2  A    between atoms: C_12  and  C_14
REMARK    3  A    between atoms: C_15  and  C_16
REMARK                            x       y       z     vdW  Elec       q    Type
REMARK                         _______ _______ _______ _____ _____    ______ ____
ROOT
ATOM      1  N   UNL     1       1.203   4.632   0.859  0.00  0.00    -0.309 N 
ATOM      2  C   UNL     1       0.893   3.321   0.822  0.00  0.00    +0.237 C 
ATOM      3  O   UNL     1       1.726   2.491   1.129  0.00  0.00    -0.271 OA
ATOM      4  H   UNL     1       0.539   5.295   0.613  0.00  0.00    +0.149 HD
ENDROOT
BRANCH   1  11
ATOM      5  C   UNL     1       3.392   5.915  -1.378  0.00  0.00    +0.004 C 
ATOM      6  C   UNL     1       2.315   6.678  -0.574  0.00  0.00    +0.005 C 
ATOM      7  C   UNL     1       2.773   6.557   0.912  0.00  0.00    +0.010 C 
ATOM      8  C   UNL     1       4.333   6.578   0.738  0.00  0.00    +0.009 C 
ATOM      9  C   UNL     1       4.400   5.405  -0.303  0.00  0.00    -0.009 C 
ATOM     10  C   UNL     1       3.621   4.294   0.466  0.00  0.00    +0.026 C 
ATOM     11  C   UNL     1       2.544   5.056   1.270  0.00  0.00    +0.077 C 
ENDBRANCH   1  11
BRANCH   2  12
ATOM     12  C   UNL     1      -0.456   2.893   0.401  0.00  0.00    +0.074 C 
ATOM     13  C   UNL     1      -0.599   2.018  -0.607  0.00  0.00    +0.101 C 
BRANCH  13  14
ATOM     14  C   UNL     1       0.593   1.470  -1.283  0.00  0.00    +0.380 C 
ATOM     15  O   UNL     1       1.646   2.073  -1.241  0.00  0.00    -0.241 OA
ATOM     16  O   UNL     1       0.512   0.300  -1.946  0.00  0.00    -0.241 OA
ENDBRANCH  13  14
ENDBRANCH   2  12
TORSDOF 3
