REMARK  Name = ZINC15534542
REMARK  7 active torsions:
REMARK  status: ('A' for Active; 'I' for Inactive)
REMARK    1  A    between atoms: C_1  and  C_2
REMARK    2  A    between atoms: C_2  and  C_3
REMARK    3  A    between atoms: C_8  and  N_9
REMARK    4  A    between atoms: C_10  and  C_12
REMARK    5  A    between atoms: C_12  and  N_13
REMARK    6  A    between atoms: C_14  and  C_16
REMARK    7  A    between atoms: C_16  and  N_17
REMARK                            x       y       z     vdW  Elec       q    Type
REMARK                         _______ _______ _______ _____ _____    ______ ____
ROOT
ATOM      1  N   UNL     1      -0.825  -5.854  -1.682  0.00  0.00    -0.305 N 
ATOM      2  C   UNL     1      -0.503  -4.569  -1.432  0.00  0.00    +0.233 C 
ATOM      3  O   UNL     1      -0.229  -3.823  -2.348  0.00  0.00    -0.274 OA
ATOM      4  H   UNL     1      -1.044  -6.450  -0.950  0.00  0.00    +0.149 HD
ENDROOT
BRANCH   1   5
ATOM      5  C   UNL     1      -0.845  -6.349  -3.061  0.00  0.00    +0.200 C 
BRANCH   5   7
ATOM      6  N   UNL     1      -1.317  -8.476  -4.232  0.00  0.00    -0.284 N 
ATOM      7  C   UNL     1      -1.233  -7.805  -3.067  0.00  0.00    +0.234 C 
ATOM      8  O   UNL     1      -1.470  -8.373  -2.022  0.00  0.00    -0.274 OA
ATOM      9  H   UNL     1      -1.206  -8.004  -5.073  0.00  0.00    +0.155 HD
BRANCH   6  15
ATOM     10  C   UNL     1      -2.145 -10.457  -5.338  0.00  0.00    -0.026 A 
ATOM     11  C   UNL     1      -2.387 -11.817  -5.333  0.00  0.00    +0.005 A 
ATOM     12  C   UNL     1      -2.050 -12.577  -4.228  0.00  0.00    +0.000 A 
ATOM     13  C   UNL     1      -1.471 -11.978  -3.124  0.00  0.00    +0.002 A 
ATOM     14  C   UNL     1      -1.222 -10.620  -3.125  0.00  0.00    +0.023 A 
ATOM     15  C   UNL     1      -1.563  -9.853  -4.231  0.00  0.00    +0.037 A 
BRANCH  10  17
ATOM     16  C   UNL     1      -1.288  -9.481  -7.450  0.00  0.00    +0.009 C 
ATOM     17  C   UNL     1      -2.511  -9.630  -6.543  0.00  0.00    +0.033 C 
ENDBRANCH  10  17
ENDBRANCH   6  15
ENDBRANCH   5   7
ENDBRANCH   1   5
BRANCH   2  18
ATOM     18  C   UNL     1      -0.482  -4.060  -0.014  0.00  0.00    +0.227 C 
BRANCH  18  19
ATOM     19  N   UNL     1      -0.105  -2.644  -0.009  0.00  0.00    -0.194 N 
ATOM     20  C   UNL     1       1.194  -2.111  -0.016  0.00  0.00    +0.061 A 
ATOM     21  C   UNL     1       2.403  -2.805  -0.028  0.00  0.00    +0.025 A 
ATOM     22  C   UNL     1       3.614  -2.124  -0.034  0.00  0.00    +0.002 A 
ATOM     23  C   UNL     1       3.688  -0.762  -0.027  0.00  0.00    +0.009 A 
ATOM     24  C   UNL     1       2.495  -0.019  -0.014  0.00  0.00    -0.014 A 
ATOM     25  C   UNL     1       1.271  -0.719  -0.009  0.00  0.00    +0.031 A 
ATOM     26  C   UNL     1       0.062  -0.015   0.004  0.00  0.00    +0.118 A 
ATOM     27  C   UNL     1       0.054   1.331   0.011  0.00  0.00    +0.029 A 
ATOM     28  C   UNL     1       1.265   2.036   0.005  0.00  0.00    +0.003 A 
ATOM     29  C   UNL     1       2.464   1.385  -0.006  0.00  0.00    +0.009 A 
ATOM     30  S   UNL     1      -1.133  -1.320   0.006  0.00  0.00    +0.076 S 
ATOM     31  O   UNL     1      -1.796  -1.299   1.263  0.00  0.00    -0.150 OA
ATOM     32  O   UNL     1      -1.815  -1.286  -1.241  0.00  0.00    -0.150 OA
ENDBRANCH  18  19
ENDBRANCH   2  18
TORSDOF 6
