REMARK  Name = ZINC14866607
REMARK  11 active torsions:
REMARK  status: ('A' for Active; 'I' for Inactive)
REMARK    1  A    between atoms: C_1  and  C_2
REMARK    2  A    between atoms: C_2  and  C_3
REMARK    3  A    between atoms: C_3  and  C_4
REMARK    4  A    between atoms: C_4  and  O_5
REMARK    5  A    between atoms: O_5  and  C_6
REMARK    6  A    between atoms: C_9  and  C_14
REMARK    7  A    between atoms: C_11  and  O_12
REMARK    8  A    between atoms: O_12  and  C_13
REMARK    9  A    between atoms: N_16  and  C_17
REMARK   10  A    between atoms: C_20  and  S_23
REMARK   11  A    between atoms: S_23  and  N_26
REMARK                            x       y       z     vdW  Elec       q    Type
REMARK                         _______ _______ _______ _____ _____    ______ ____
ROOT
ATOM      1  C   UNL     1       1.428 -10.269   2.299  0.00  0.00    +0.034 A 
ATOM      2  C   UNL     1       2.002 -10.748   3.470  0.00  0.00    +0.025 A 
ATOM      3  C   UNL     1       2.058 -12.108   3.703  0.00  0.00    +0.031 A 
ATOM      4  C   UNL     1       1.543 -12.992   2.773  0.00  0.00    +0.113 A 
ATOM      5  C   UNL     1       0.971 -12.519   1.607  0.00  0.00    +0.031 A 
ATOM      6  C   UNL     1       0.907 -11.160   1.370  0.00  0.00    +0.025 A 
ENDROOT
BRANCH   1   9
ATOM      7  C   UNL     1       0.309  -8.364   1.418  0.00  0.00    +0.248 C 
ATOM      8  O   UNL     1      -0.557  -9.093   0.974  0.00  0.00    -0.270 OA
ATOM      9  N   UNL     1       1.370  -8.892   2.060  0.00  0.00    -0.282 N 
ATOM     10  H   UNL     1       2.093  -8.318   2.355  0.00  0.00    +0.155 HD
BRANCH   7  14
ATOM     11  C   UNL     1      -0.005  -4.152   0.952  0.00  0.00    +0.162 A 
ATOM     12  C   UNL     1       1.087  -4.698   1.613  0.00  0.00    +0.050 A 
ATOM     13  C   UNL     1       1.192  -6.063   1.766  0.00  0.00    +0.017 A 
ATOM     14  C   UNL     1       0.198  -6.902   1.256  0.00  0.00    +0.041 A 
ATOM     15  C   UNL     1      -0.902  -6.353   0.591  0.00  0.00    +0.062 A 
ATOM     16  C   UNL     1      -1.003  -4.982   0.445  0.00  0.00    +0.162 A 
BRANCH  16  17
ATOM     17  O   UNL     1      -2.075  -4.444  -0.197  0.00  0.00    -0.491 OA
ATOM     18  C   UNL     1      -3.059  -5.355  -0.691  0.00  0.00    +0.277 C 
ENDBRANCH  16  17
BRANCH  11  19
ATOM     19  O   UNL     1      -0.104  -2.806   0.803  0.00  0.00    -0.488 OA
BRANCH  19  20
ATOM     20  C   UNL     1       0.955  -2.014   1.346  0.00  0.00    +0.229 C 
BRANCH  20  21
ATOM     21  C   UNL     1       0.670  -0.533   1.083  0.00  0.00    +0.041 C 
BRANCH  21  23
ATOM     22  C   UNL     1       1.519   1.795   1.402  0.00  0.00    +0.004 C 
ATOM     23  C   UNL     1       1.804   0.314   1.665  0.00  0.00    -0.000 C 
ENDBRANCH  21  23
ENDBRANCH  20  21
ENDBRANCH  19  20
ENDBRANCH  11  19
ENDBRANCH   7  14
ENDBRANCH   1   9
BRANCH   4  24
ATOM     24  S   UNL     1       1.616 -14.727   3.075  0.00  0.00    +0.100 S 
ATOM     25  O   UNL     1       1.558 -15.363   1.806  0.00  0.00    -0.146 OA
ATOM     26  O   UNL     1       2.688 -14.936   3.984  0.00  0.00    -0.146 OA
BRANCH  24  27
ATOM     27  N   UNL     1       0.228 -15.143   3.877  0.00  0.00    -0.118 NA
ATOM     28  C   UNL     1       0.025 -16.372   4.223  0.00  0.00    +0.117 C 
ATOM     29  N   UNL     1       0.967 -17.372   3.937  0.00  0.00    -0.331 N 
ATOM     30  C   UNL     1       1.662 -17.955   5.048  0.00  0.00    +0.102 C 
ATOM     31  C   UNL     1       0.982 -19.169   5.701  0.00  0.00    +0.019 C 
ATOM     32  C   UNL     1      -0.545 -18.936   5.819  0.00  0.00    +0.002 C 
ATOM     33  C   UNL     1      -0.895 -17.530   6.220  0.00  0.00    +0.008 C 
ATOM     34  C   UNL     1      -1.180 -16.764   4.925  0.00  0.00    +0.073 C 
ATOM     35  H   UNL     1       1.141 -17.657   3.026  0.00  0.00    +0.147 HD
ENDBRANCH  24  27
ENDBRANCH   4  24
TORSDOF 9
