REMARK  Name = ZINC00752486
REMARK  4 active torsions:
REMARK  status: ('A' for Active; 'I' for Inactive)
REMARK    1  A    between atoms: C_4  and  C_7
REMARK    2  A    between atoms: C_12  and  C_20
REMARK    3  A    between atoms: C_14  and  C_18
REMARK    4  A    between atoms: C_15  and  N_17
REMARK                            x       y       z     vdW  Elec       q    Type
REMARK                         _______ _______ _______ _____ _____    ______ ____
ROOT
ATOM      1  C   UNL     1       4.619   4.655   3.353  0.00  0.00    +0.034 C 
ATOM      2  C   UNL     1       3.563   5.217   2.400  0.00  0.00    +0.083 C 
ATOM      3  C   UNL     1       3.488   4.359   1.159  0.00  0.00    +0.115 C 
ATOM      4  C   UNL     1       3.753   3.041   1.219  0.00  0.00    +0.046 C 
ATOM      5  C   UNL     1       3.672   2.184  -0.021  0.00  0.00    +0.101 C 
ATOM      6  C   UNL     1       3.729   3.050  -1.248  0.00  0.00    +0.098 C 
ATOM      7  C   UNL     1       3.468   4.375  -1.167  0.00  0.00    +0.198 C 
ATOM      8  O   UNL     1       3.147   4.953   0.001  0.00  0.00    -0.445 OA
ATOM      9  C   UNL     1       4.112   2.420   2.431  0.00  0.00    +0.164 C 
ATOM     10  O   UNL     1       4.324   1.224   2.449  0.00  0.00    -0.292 OA
ATOM     11  C   UNL     1       4.239   3.212   3.704  0.00  0.00    +0.088 C 
ENDROOT
BRANCH   5  12
ATOM     12  C   UNL     1       2.378   1.413  -0.013  0.00  0.00    -0.033 A 
ATOM     13  C   UNL     1       2.397   0.030  -0.021  0.00  0.00    +0.007 A 
ATOM     14  C   UNL     1       1.211  -0.679  -0.013  0.00  0.00    +0.040 A 
ATOM     15  C   UNL     1       0.002  -0.004   0.002  0.00  0.00    +0.137 A 
ATOM     16  C   UNL     1      -0.017   1.381   0.010  0.00  0.00    +0.053 A 
ATOM     17  C   UNL     1       1.172   2.088   0.002  0.00  0.00    +0.022 A 
ATOM     18 BR   UNL     1      -1.667   2.305   0.022  0.00  0.00    -0.047 Br
ATOM     19  F   UNL     1      -1.158  -0.696   0.009  0.00  0.00    -0.204 F 
ENDBRANCH   5  12
BRANCH   1  23
ATOM     20  C   UNL     1       4.743   7.014   6.912  0.00  0.00    +0.000 A 
ATOM     21  C   UNL     1       5.872   6.894   6.123  0.00  0.00    +0.000 A 
ATOM     22  C   UNL     1       5.831   6.130   4.971  0.00  0.00    +0.004 A 
ATOM     23  C   UNL     1       4.663   5.487   4.609  0.00  0.00    -0.043 A 
ATOM     24  C   UNL     1       3.533   5.611   5.395  0.00  0.00    +0.004 A 
ATOM     25  C   UNL     1       3.574   6.370   6.550  0.00  0.00    +0.000 A 
ENDBRANCH   1  23
BRANCH   7  26
ATOM     26  N   UNL     1       3.533   5.144  -2.302  0.00  0.00    -0.328 N 
ATOM     27  H   UNL     1       3.347   6.095  -2.255  0.00  0.00    +0.145 HD
ATOM     28  H   UNL     1       3.764   4.737  -3.152  0.00  0.00    +0.145 HD
ENDBRANCH   7  26
BRANCH   6  29
ATOM     29  C   UNL     1       4.061   2.470  -2.515  0.00  0.00    +0.101 C 
ATOM     30  N   UNL     1       4.325   2.010  -3.519  0.00  0.00    -0.191 NA
ENDBRANCH   6  29
TORSDOF 4
