REMARK  Name = ZINC09589081
REMARK  11 active torsions:
REMARK  status: ('A' for Active; 'I' for Inactive)
REMARK    1  A    between atoms: C_1  and  C_2
REMARK    2  A    between atoms: C_4  and  C_35
REMARK    3  A    between atoms: N_8  and  C_29
REMARK    4  A    between atoms: N_10  and  C_11
REMARK    5  A    between atoms: C_11  and  C_13
REMARK    6  A    between atoms: C_16  and  S_19
REMARK    7  A    between atoms: S_19  and  N_22
REMARK    8  A    between atoms: C_29  and  C_30
REMARK    9  A    between atoms: C_30  and  C_31
REMARK   10  A    between atoms: C_31  and  O_33
REMARK   11  A    between atoms: O_33  and  C_34
REMARK                            x       y       z     vdW  Elec       q    Type
REMARK                         _______ _______ _______ _____ _____    ______ ____
ROOT
ATOM      1  C   UNL     1      -4.146   1.876  -4.947  0.00  0.00    +0.044 C 
ATOM      2  C   UNL     1      -4.655   2.157  -3.556  0.00  0.00    -0.048 A 
ATOM      3  C   UNL     1      -5.856   2.827  -3.394  0.00  0.00    +0.008 A 
ATOM      4  C   UNL     1      -6.320   3.083  -2.116  0.00  0.00    -0.034 A 
ATOM      5  C   UNL     1      -5.584   2.669  -1.031  0.00  0.00    +0.042 A 
ATOM      6  C   UNL     1      -4.365   1.988  -1.164  0.00  0.00    +0.058 A 
ATOM      7  C   UNL     1      -3.919   1.742  -2.472  0.00  0.00    +0.030 A 
ATOM      8  N   UNL     1      -3.757   1.645   0.029  0.00  0.00    -0.321 N 
ATOM      9  C   UNL     1      -4.347   1.965   1.212  0.00  0.00    +0.167 A 
ATOM     10  N   UNL     1      -3.915   1.714   2.443  0.00  0.00    -0.152 NA
ATOM     11  S   UNL     1      -5.798   2.783   0.727  0.00  0.00    -0.052 S 
ATOM     12  C   UNL     1      -7.624   3.812  -1.915  0.00  0.00    +0.045 C 
ENDROOT
BRANCH  10  13
ATOM     13  C   UNL     1      -4.636   2.108   3.498  0.00  0.00    +0.269 C 
ATOM     14  O   UNL     1      -5.689   2.698   3.330  0.00  0.00    -0.268 OA
BRANCH  13  15
ATOM     15  C   UNL     1      -4.154   1.827   4.870  0.00  0.00    +0.039 A 
ATOM     16  C   UNL     1      -2.952   1.147   5.065  0.00  0.00    +0.015 A 
ATOM     17  C   UNL     1      -2.506   0.893   6.346  0.00  0.00    +0.029 A 
ATOM     18  C   UNL     1      -3.254   1.302   7.436  0.00  0.00    +0.106 A 
ATOM     19  C   UNL     1      -4.450   1.973   7.249  0.00  0.00    +0.029 A 
ATOM     20  C   UNL     1      -4.903   2.237   5.973  0.00  0.00    +0.015 A 
BRANCH  18  21
ATOM     21  S   UNL     1      -2.681   0.968   9.068  0.00  0.00    +0.061 S 
ATOM     22  O   UNL     1      -1.272   0.812   8.980  0.00  0.00    -0.153 OA
ATOM     23  O   UNL     1      -3.289   1.932   9.917  0.00  0.00    -0.153 OA
BRANCH  21  24
ATOM     24  N   UNL     1      -3.295  -0.505   9.510  0.00  0.00    -0.177 NA
ATOM     25  C   UNL     1      -4.593  -0.602  10.191  0.00  0.00    +0.109 C 
ATOM     26  C   UNL     1      -5.482  -1.581   9.410  0.00  0.00    +0.017 C 
ATOM     27  C   UNL     1      -4.751  -2.917   9.259  0.00  0.00    +0.003 C 
ATOM     28  C   UNL     1      -3.458  -2.706   8.469  0.00  0.00    +0.017 C 
ATOM     29  C   UNL     1      -2.548  -1.740   9.234  0.00  0.00    +0.109 C 
ENDBRANCH  21  24
ENDBRANCH  18  21
ENDBRANCH  13  15
ENDBRANCH  10  13
BRANCH   8  30
ATOM     30  C   UNL     1      -2.479   0.930   0.019  0.00  0.00    +0.135 C 
BRANCH  30  31
ATOM     31  C   UNL     1      -1.329   1.940   0.019  0.00  0.00    +0.142 C 
BRANCH  31  32
ATOM     32  C   UNL     1      -0.014   1.204   0.009  0.00  0.00    +0.309 C 
ATOM     33  O   UNL     1       0.002  -0.004   0.002  0.00  0.00    -0.251 OA
BRANCH  32  34
ATOM     34  O   UNL     1       1.139   1.891   0.001  0.00  0.00    -0.468 OA
ATOM     35  C   UNL     1       2.367   1.117  -0.015  0.00  0.00    +0.280 C 
ENDBRANCH  32  34
ENDBRANCH  31  32
ENDBRANCH  30  31
ENDBRANCH   8  30
TORSDOF 8
