REMARK  Name = ZINC38598763
REMARK  2 active torsions:
REMARK  status: ('A' for Active; 'I' for Inactive)
REMARK    1  A    between atoms: C_1  and  C_2
REMARK    2  A    between atoms: C_4  and  C_25
REMARK                            x       y       z     vdW  Elec       q    Type
REMARK                         _______ _______ _______ _____ _____    ______ ____
ROOT
ATOM      1  C   UNL     1      -0.047   1.522  -0.121  0.00  0.00    +0.062 C 
ATOM      2  C   UNL     1      -0.016   0.015  -0.134  0.00  0.00    +0.023 C 
ATOM      3  C   UNL     1      -1.088  -0.749   0.021  0.00  0.00    +0.005 C 
ATOM      4  C   UNL     1      -2.474  -0.248   0.223  0.00  0.00    +0.108 C 
ATOM      5  S   UNL     1      -3.549  -0.610  -1.177  0.00  0.00    -0.139 S 
ATOM      6  C   UNL     1      -3.753  -2.399  -1.191  0.00  0.00    +0.165 C 
ATOM      7  C   UNL     1      -2.472  -3.104  -1.463  0.00  0.00    +0.225 C 
ATOM      8  O   UNL     1      -2.600  -4.026  -2.240  0.00  0.00    -0.275 OA
ATOM      9  N   UNL     1      -1.266  -2.959  -1.064  0.00  0.00    -0.291 N 
ATOM     10  C   UNL     1      -0.622  -2.177  -0.052  0.00  0.00    +0.210 C 
ATOM     11  N   UNL     1       0.831  -2.100  -0.277  0.00  0.00    -0.213 N 
ATOM     12  N   UNL     1       1.131  -0.731  -0.314  0.00  0.00    -0.265 N 
ATOM     13  C   UNL     1       1.690  -3.129  -0.420  0.00  0.00    +0.150 C 
ATOM     14  N   UNL     1       1.275  -4.381  -0.374  0.00  0.00    -0.221 NA
ATOM     15  C   UNL     1       2.084  -5.433  -0.446  0.00  0.00    +0.225 C 
ATOM     16  N   UNL     1       3.394  -5.338  -0.250  0.00  0.00    -0.218 NA
ATOM     17  C   UNL     1       3.865  -4.112  -0.045  0.00  0.00    +0.164 C 
ATOM     18  N   UNL     1       4.849  -3.620   0.647  0.00  0.00    -0.219 NA
ATOM     19  C   UNL     1       4.704  -2.301   0.829  0.00  0.00    +0.218 C 
ATOM     20  N   UNL     1       3.718  -1.793   0.142  0.00  0.00    -0.253 NA
ATOM     21  C   UNL     1       3.160  -2.893  -0.645  0.00  0.00    +0.239 C 
ATOM     22  H   UNL     1      -0.640  -3.506  -1.564  0.00  0.00    +0.151 HD
ATOM     23  H   UNL     1       2.018  -0.361  -0.444  0.00  0.00    +0.170 HD
ENDROOT
BRANCH   4  24
ATOM     24  C   UNL     1      -2.428   1.245   0.426  0.00  0.00    -0.029 A 
ATOM     25  C   UNL     1      -2.562   2.094  -0.657  0.00  0.00    +0.006 A 
ATOM     26  C   UNL     1      -2.519   3.463  -0.472  0.00  0.00    +0.022 A 
ATOM     27  C   UNL     1      -2.343   3.984   0.797  0.00  0.00    +0.059 A 
ATOM     28  C   UNL     1      -2.209   3.134   1.882  0.00  0.00    +0.060 A 
ATOM     29  C   UNL     1      -2.257   1.764   1.696  0.00  0.00    +0.026 A 
ATOM     30 CL   UNL     1      -1.986   3.787   3.475  0.00  0.00    -0.082 Cl
ATOM     31 CL   UNL     1      -2.288   5.704   1.030  0.00  0.00    -0.082 Cl
ENDBRANCH   4  24
TORSDOF 1
