REMARK  Name = ZINC39686778
REMARK  8 active torsions:
REMARK  status: ('A' for Active; 'I' for Inactive)
REMARK    1  A    between atoms: C_1  and  C_2
REMARK    2  A    between atoms: C_2  and  C_4
REMARK    3  A    between atoms: C_2  and  N_13
REMARK    4  A    between atoms: C_4  and  C_5
REMARK    5  A    between atoms: C_10  and  O_11
REMARK    6  A    between atoms: O_11  and  C_12
REMARK    7  A    between atoms: C_14  and  C_16
REMARK    8  A    between atoms: C_27  and  C_29
REMARK                            x       y       z     vdW  Elec       q    Type
REMARK                         _______ _______ _______ _____ _____    ______ ____
ROOT
ATOM      1  C   UNL     1       0.780  -1.133   3.576  0.00  0.00    +0.100 C 
ATOM      2  C   UNL     1       1.189  -2.611   3.392  0.00  0.00    +0.121 C 
ATOM      3  N   UNL     1       1.007  -3.220   4.731  0.00  0.00    -0.296 N 
ATOM      4  C   UNL     1      -0.236  -2.602   5.251  0.00  0.00    +0.115 C 
ATOM      5  C   UNL     1      -0.156  -1.131   4.797  0.00  0.00    -0.004 C 
ATOM      6  C   UNL     1      -1.540  -0.625   4.401  0.00  0.00    -0.010 C 
ATOM      7  C   UNL     1      -2.435  -0.577   5.642  0.00  0.00    -0.082 C 
ATOM      8  N   UNL     1      -1.836   0.311   6.646  0.00  0.00    +0.379 N 
ATOM      9  C   UNL     1      -0.547  -0.233   7.089  0.00  0.00    -0.082 C 
ATOM     10  C   UNL     1       0.428  -0.266   5.909  0.00  0.00    -0.010 C 
ATOM     11  C   UNL     1       1.794  -4.129   5.338  0.00  0.00    +0.252 C 
ATOM     12  O   UNL     1       1.509  -4.536   6.448  0.00  0.00    -0.270 OA
ATOM     13  H   UNL     1      -1.694   1.224   6.242  0.00  0.00    -0.086 HD
ATOM     14  H   UNL     1      -2.457   0.389   7.437  0.00  0.00    -0.086 HD
ENDROOT
BRANCH  11  15
ATOM     15  C   UNL     1       3.003  -4.631   4.657  0.00  0.00    +0.108 A 
ATOM     16  C   UNL     1       4.230  -3.981   4.832  0.00  0.00    +0.138 A 
ATOM     17  C   UNL     1       5.358  -4.458   4.191  0.00  0.00    +0.041 A 
ATOM     18  C   UNL     1       5.276  -5.574   3.378  0.00  0.00    +0.026 A 
ATOM     19  C   UNL     1       4.067  -6.224   3.200  0.00  0.00    +0.077 A 
ATOM     20  C   UNL     1       2.930  -5.763   3.838  0.00  0.00    +0.156 A 
ATOM     21  F   UNL     1       1.752  -6.401   3.668  0.00  0.00    -0.203 F 
ATOM     22 CL   UNL     1       3.979  -7.623   2.176  0.00  0.00    -0.081 Cl
ATOM     23  F   UNL     1       4.312  -2.890   5.624  0.00  0.00    -0.205 F 
ENDBRANCH  11  15
BRANCH   1  25
ATOM     24  N   UNL     1       0.108   0.671   2.023  0.00  0.00    -0.312 N 
ATOM     25  C   UNL     1       0.051  -0.633   2.355  0.00  0.00    +0.218 C 
ATOM     26  O   UNL     1      -0.587  -1.406   1.672  0.00  0.00    -0.275 OA
ATOM     27  H   UNL     1       0.619   1.289   2.570  0.00  0.00    +0.149 HD
BRANCH  24  29
ATOM     28  C   UNL     1      -2.054   1.464   1.200  0.00  0.00    +0.028 C 
ATOM     29  C   UNL     1      -0.600   1.157   0.836  0.00  0.00    +0.074 C 
BRANCH  29  30
ATOM     30  C   UNL     1       0.077   2.429   0.323  0.00  0.00    +0.060 C 
BRANCH  30  31
ATOM     31  C   UNL     1       1.470   2.101  -0.151  0.00  0.00    -0.004 A 
ATOM     32  C   UNL     1       2.545   2.261   0.701  0.00  0.00    +0.007 A 
ATOM     33  C   UNL     1       3.823   1.961   0.268  0.00  0.00    +0.000 A 
ATOM     34  C   UNL     1       4.028   1.499  -1.020  0.00  0.00    +0.004 A 
ATOM     35  C   UNL     1       2.956   1.337  -1.875  0.00  0.00    +0.046 A 
ATOM     36  C   UNL     1       1.672   1.632  -1.440  0.00  0.00    +0.123 A 
BRANCH  36  37
ATOM     37  O   UNL     1       0.615   1.468  -2.279  0.00  0.00    -0.495 OA
ATOM     38  C   UNL     1       0.898   0.982  -3.592  0.00  0.00    +0.277 C 
ENDBRANCH  36  37
ENDBRANCH  30  31
ENDBRANCH  29  30
ENDBRANCH  24  29
ENDBRANCH   1  25
TORSDOF 6
