REMARK  Name = ZINC52941238
REMARK  8 active torsions:
REMARK  status: ('A' for Active; 'I' for Inactive)
REMARK    1  A    between atoms: C_1  and  C_2
REMARK    2  A    between atoms: C_2  and  C_4
REMARK    3  A    between atoms: C_2  and  N_12
REMARK    4  A    between atoms: C_13  and  C_15
REMARK    5  A    between atoms: C_15  and  C_17
REMARK    6  A    between atoms: C_15  and  N_18
REMARK    7  A    between atoms: C_21  and  C_24
REMARK    8  A    between atoms: C_24  and  C_25
REMARK                            x       y       z     vdW  Elec       q    Type
REMARK                         _______ _______ _______ _____ _____    ______ ____
ROOT
ATOM      1  C   UNL     1       0.600  -1.107   3.610  0.00  0.00    +0.016 C 
ATOM      2  C   UNL     1       1.287  -2.440   3.305  0.00  0.00    -0.004 C 
ENDROOT
BRANCH   1   3
ATOM      3  N   UNL     1      -0.397  -1.301   4.671  0.00  0.00    +0.387 N 
ATOM      4  C   UNL     1       0.256  -1.868   5.857  0.00  0.00    -0.078 C 
ATOM      5  C   UNL     1      -0.792  -2.148   6.936  0.00  0.00    -0.015 C 
ATOM      6  C   UNL     1      -1.490  -0.838   7.314  0.00  0.00    -0.006 C 
ATOM      7  C   UNL     1      -2.104  -0.218   6.056  0.00  0.00    -0.015 C 
ATOM      8  C   UNL     1      -1.008  -0.009   5.009  0.00  0.00    -0.078 C 
ATOM      9  H   UNL     1      -1.112  -1.935   4.347  0.00  0.00    -0.081 HD
BRANCH   6  10
ATOM     10  C   UNL     1      -2.593  -1.123   8.335  0.00  0.00    +0.099 C 
BRANCH  10  11
ATOM     11  C   UNL     1      -3.197   0.178   8.797  0.00  0.00    +0.211 C 
ATOM     12  O   UNL     1      -2.786   1.230   8.354  0.00  0.00    -0.276 OA
ATOM     13  N   UNL     1      -4.195   0.174   9.704  0.00  0.00    -0.329 N 
ATOM     14  H   UNL     1      -4.524  -0.667  10.059  0.00  0.00    +0.145 HD
ATOM     15  H   UNL     1      -4.583   1.011  10.001  0.00  0.00    +0.145 HD
ENDBRANCH  10  11
ENDBRANCH   6  10
ENDBRANCH   1   3
BRANCH   1  17
ATOM     16  N   UNL     1       0.602   0.161   1.486  0.00  0.00    -0.310 N 
ATOM     17  C   UNL     1      -0.082  -0.597   2.367  0.00  0.00    +0.200 C 
ATOM     18  O   UNL     1      -1.245  -0.868   2.159  0.00  0.00    -0.278 OA
ATOM     19  H   UNL     1       1.532   0.378   1.653  0.00  0.00    +0.149 HD
BRANCH  16  21
ATOM     20  C   UNL     1      -0.761   1.982   0.587  0.00  0.00    +0.033 C 
ATOM     21  C   UNL     1      -0.061   0.657   0.278  0.00  0.00    +0.101 C 
BRANCH  21  22
ATOM     22  C   UNL     1       0.964   0.872  -0.806  0.00  0.00    -0.009 A 
ATOM     23  C   UNL     1       2.275   1.156  -0.470  0.00  0.00    +0.008 A 
ATOM     24  C   UNL     1       3.216   1.353  -1.463  0.00  0.00    +0.020 A 
ATOM     25  C   UNL     1       2.847   1.265  -2.794  0.00  0.00    +0.042 A 
ATOM     26  C   UNL     1       1.536   0.980  -3.130  0.00  0.00    +0.040 A 
ATOM     27  C   UNL     1       0.595   0.778  -2.136  0.00  0.00    +0.047 A 
ATOM     28 CL   UNL     1      -1.049   0.415  -2.557  0.00  0.00    -0.083 Cl
ATOM     29 CL   UNL     1       4.029   1.513  -4.040  0.00  0.00    -0.083 Cl
ENDBRANCH  21  22
ENDBRANCH  16  21
ENDBRANCH   1  17
TORSDOF 6
