REMARK  Name = ZINC05808875
REMARK  8 active torsions:
REMARK  status: ('A' for Active; 'I' for Inactive)
REMARK    1  A    between atoms: C_4  and  C_7
REMARK    2  A    between atoms: C_7  and  C_9
REMARK    3  A    between atoms: C_7  and  C_23
REMARK    4  A    between atoms: C_9  and  C_17
REMARK    5  A    between atoms: N_10  and  N_11
REMARK    6  A    between atoms: C_12  and  C_14
REMARK    7  A    between atoms: C_14  and  C_15
REMARK    8  A    between atoms: C_23  and  O_35
REMARK                            x       y       z     vdW  Elec       q    Type
REMARK                         _______ _______ _______ _____ _____    ______ ____
ROOT
ATOM      1  C   UNL     1      -1.385  -0.600   0.159  0.00  0.00    +0.115 C 
ENDROOT
BRANCH   1   2
ATOM      2  C   UNL     1      -1.528  -1.096  -1.282  0.00  0.00    +0.182 C 
ATOM      3  C   UNL     1      -1.470   0.064  -2.249  0.00  0.00    +0.035 A 
ATOM      4  C   UNL     1      -2.260   1.180  -2.422  0.00  0.00    +0.049 A 
ATOM      5  C   UNL     1      -1.955   2.094  -3.417  0.00  0.00    +0.022 A 
ATOM      6  C   UNL     1      -0.860   1.882  -4.234  0.00  0.00    +0.023 A 
ATOM      7  C   UNL     1      -0.067   0.765  -4.062  0.00  0.00    +0.063 A 
ATOM      8  C   UNL     1      -0.367  -0.160  -3.062  0.00  0.00    +0.060 A 
ATOM      9  N   UNL     1       0.269  -1.347  -2.697  0.00  0.00    -0.281 N 
ATOM     10  C   UNL     1      -0.343  -1.956  -1.667  0.00  0.00    +0.255 C 
ATOM     11  O   UNL     1      -0.009  -2.998  -1.145  0.00  0.00    -0.272 OA
ATOM     12 CL   UNL     1       1.307   0.511  -5.093  0.00  0.00    -0.082 Cl
ATOM     13 CL   UNL     1      -3.634   1.441  -1.393  0.00  0.00    -0.083 Cl
ATOM     14  H   UNL     1       1.062  -1.693  -3.136  0.00  0.00    +0.155 HD
BRANCH   2  15
ATOM     15  O   UNL     1      -2.747  -1.824  -1.441  0.00  0.00    -0.374 OA
ATOM     16  H   UNL     1      -2.890  -2.162  -2.336  0.00  0.00    +0.211 HD
ENDBRANCH   2  15
ENDBRANCH   1   2
BRANCH   1  20
ATOM     17  C   UNL     1       1.929   2.082   0.419  0.00  0.00    +0.000 A 
ATOM     18  C   UNL     1       0.660   2.517   0.751  0.00  0.00    +0.000 A 
ATOM     19  C   UNL     1      -0.413   1.649   0.666  0.00  0.00    +0.004 A 
ATOM     20  C   UNL     1      -0.216   0.346   0.251  0.00  0.00    -0.035 A 
ATOM     21  C   UNL     1       1.054  -0.090  -0.080  0.00  0.00    +0.004 A 
ATOM     22  C   UNL     1       2.127   0.778   0.005  0.00  0.00    +0.000 A 
ENDBRANCH   1  20
BRANCH   1  23
ATOM     23  C   UNL     1      -1.153  -1.776   1.073  0.00  0.00    +0.077 C 
ATOM     24  N   UNL     1      -0.024  -1.897   1.701  0.00  0.00    -0.184 NA
BRANCH  23  25
ATOM     25  C   UNL     1      -2.211  -2.788   1.255  0.00  0.00    -0.002 A 
ATOM     26  C   UNL     1      -1.877  -4.140   1.357  0.00  0.00    +0.010 A 
ATOM     27  C   UNL     1      -2.870  -5.081   1.532  0.00  0.00    +0.001 A 
ATOM     28  C   UNL     1      -4.196  -4.689   1.596  0.00  0.00    +0.000 A 
ATOM     29  C   UNL     1      -4.534  -3.351   1.491  0.00  0.00    +0.001 A 
ATOM     30  C   UNL     1      -3.550  -2.399   1.321  0.00  0.00    +0.010 A 
ENDBRANCH  23  25
BRANCH  24  31
ATOM     31  N   UNL     1       0.134  -2.894   2.671  0.00  0.00    -0.206 N 
ATOM     32  C   UNL     1       1.338  -3.092   3.244  0.00  0.00    +0.246 C 
ATOM     33  O   UNL     1       2.285  -2.407   2.919  0.00  0.00    -0.273 OA
ATOM     34  H   UNL     1      -0.622  -3.443   2.932  0.00  0.00    +0.177 HD
BRANCH  32  35
ATOM     35  C   UNL     1       1.509  -4.166   4.288  0.00  0.00    +0.215 C 
BRANCH  35  36
ATOM     36  C   UNL     1       2.905  -4.180   4.753  0.00  0.00    +0.072 C 
ATOM     37  N   UNL     1       3.983  -4.191   5.112  0.00  0.00    -0.196 NA
ENDBRANCH  35  36
ENDBRANCH  32  35
ENDBRANCH  24  31
ENDBRANCH   1  23
TORSDOF 8
