REMARK  Name = ZINC39942481
REMARK  7 active torsions:
REMARK  status: ('A' for Active; 'I' for Inactive)
REMARK    1  A    between atoms: C_7  and  C_10
REMARK    2  A    between atoms: C_13  and  S_19
REMARK    3  A    between atoms: N_15  and  C_16
REMARK    4  A    between atoms: S_19  and  C_20
REMARK    5  A    between atoms: C_20  and  C_21
REMARK    6  A    between atoms: N_23  and  C_24
REMARK    7  A    between atoms: N_23  and  C_32
REMARK                            x       y       z     vdW  Elec       q    Type
REMARK                         _______ _______ _______ _____ _____    ______ ____
ROOT
ATOM      1  C   UNL     1       0.827  -3.191   0.204  0.00  0.00    +0.147 C 
ATOM      2  N   UNL     1      -0.473  -3.070   0.242  0.00  0.00    -0.169 NA
ATOM      3  N   UNL     1      -1.105  -4.285  -0.049  0.00  0.00    -0.237 N 
ATOM      4  C   UNL     1      -0.035  -5.265  -0.294  0.00  0.00    +0.237 C 
ATOM      5  N   UNL     1       1.208  -4.496  -0.121  0.00  0.00    -0.282 N 
ATOM      6  H   UNL     1      -2.061  -4.448  -0.082  0.00  0.00    +0.171 HD
ENDROOT
BRANCH   1  13
ATOM      7  C   UNL     1       0.184   1.199   1.153  0.00  0.00    +0.001 A 
ATOM      8  C   UNL     1       1.371   1.911   1.333  0.00  0.00    +0.002 A 
ATOM      9  C   UNL     1       2.585   1.317   1.228  0.00  0.00    +0.026 A 
ATOM     10  C   UNL     1       2.670  -0.067   0.927  0.00  0.00    +0.043 A 
ATOM     11  N   UNL     1       3.708  -0.865   0.774  0.00  0.00    -0.380 N 
ATOM     12  C   UNL     1       3.238  -2.219   0.467  0.00  0.00    +0.152 C 
ATOM     13  C   UNL     1       1.727  -2.143   0.453  0.00  0.00    +0.022 C 
ATOM     14  C   UNL     1       1.415  -0.813   0.738  0.00  0.00    +0.006 A 
ATOM     15  C   UNL     1       0.188  -0.128   0.862  0.00  0.00    +0.010 A 
ATOM     16  H   UNL     1       4.638  -0.597   0.851  0.00  0.00    +0.160 HD
ENDBRANCH   1  13
BRANCH   5  17
ATOM     17  C   UNL     1       2.577  -5.000  -0.261  0.00  0.00    +0.078 C 
ATOM     18  C   UNL     1       2.752  -6.460  -0.680  0.00  0.00    +0.024 C 
ATOM     19  C   UNL     1       3.055  -6.036   0.758  0.00  0.00    +0.024 C 
ENDBRANCH   5  17
BRANCH   4  20
ATOM     20  S   UNL     1      -0.146  -5.916  -1.984  0.00  0.00    -0.109 S 
BRANCH  20  21
ATOM     21  C   UNL     1      -0.008  -4.442  -3.032  0.00  0.00    +0.168 C 
BRANCH  21  22
ATOM     22  C   UNL     1      -0.086  -4.847  -4.481  0.00  0.00    +0.226 C 
ATOM     23  O   UNL     1      -0.314  -6.001  -4.777  0.00  0.00    -0.275 OA
ATOM     24  N   UNL     1       0.096  -3.927  -5.449  0.00  0.00    -0.293 N 
BRANCH  24  25
ATOM     25  C   UNL     1       0.152  -4.341  -6.853  0.00  0.00    +0.099 C 
ATOM     26  C   UNL     1       1.310  -5.335  -7.046  0.00  0.00    +0.046 C 
ATOM     27  C   UNL     1       1.156  -5.992  -8.447  0.00  0.00    +0.168 C 
ATOM     28  S   UNL     1      -0.668  -6.251  -8.499  0.00  0.00    -0.029 S 
ATOM     29  O   UNL     1      -0.964  -7.553  -8.012  0.00  0.00    -0.174 OA
ATOM     30  O   UNL     1      -1.155  -5.854  -9.773  0.00  0.00    -0.174 OA
ATOM     31  C   UNL     1      -1.187  -5.012  -7.244  0.00  0.00    +0.188 C 
ENDBRANCH  24  25
BRANCH  24  32
ATOM     32  C   UNL     1       0.239  -2.512  -5.097  0.00  0.00    +0.076 C 
ATOM     33  C   UNL     1      -0.899  -1.691  -5.737  0.00  0.00    +0.022 C 
ATOM     34  C   UNL     1      -0.223  -0.358  -6.144  0.00  0.00    +0.002 C 
ATOM     35  C   UNL     1       1.173  -0.818  -6.634  0.00  0.00    +0.002 C 
ATOM     36  C   UNL     1       1.556  -1.957  -5.667  0.00  0.00    +0.022 C 
ENDBRANCH  24  32
ENDBRANCH  21  22
ENDBRANCH  20  21
ENDBRANCH   4  20
TORSDOF 7
