REMARK  Name = ZINC32709451
REMARK  6 active torsions:
REMARK  status: ('A' for Active; 'I' for Inactive)
REMARK    1  A    between atoms: C_1  and  C_2
REMARK    2  A    between atoms: C_5  and  N_8
REMARK    3  A    between atoms: C_12  and  N_16
REMARK    4  A    between atoms: C_20  and  C_21
REMARK    5  A    between atoms: C_22  and  O_33
REMARK    6  A    between atoms: C_24  and  C_25
REMARK                            x       y       z     vdW  Elec       q    Type
REMARK                         _______ _______ _______ _____ _____    ______ ____
ROOT
ATOM      1  N   UNL     1      -0.533  -6.353   1.553  0.00  0.00    -0.303 N 
ATOM      2  C   UNL     1      -1.887  -5.836   1.298  0.00  0.00    +0.128 C 
ATOM      3  C   UNL     1      -2.801  -6.882   1.967  0.00  0.00    +0.133 C 
ATOM      4  N   UNL     1      -1.869  -7.872   2.524  0.00  0.00    -0.371 N 
ATOM      5  C   UNL     1      -0.643  -7.528   2.259  0.00  0.00    +0.102 C 
ATOM      6  H   UNL     1      -2.130  -8.667   3.014  0.00  0.00    +0.161 HD
ENDROOT
BRANCH   1  11
ATOM      7  N   UNL     1       0.863  -3.477   0.540  0.00  0.00    -0.209 N 
ATOM      8  C   UNL     1       0.854  -4.104  -0.643  0.00  0.00    +0.228 C 
ATOM      9  O   UNL     1       0.910  -3.561  -1.726  0.00  0.00    -0.275 OA
ATOM     10  C   UNL     1       0.762  -5.597  -0.414  0.00  0.00    +0.128 C 
ATOM     11  C   UNL     1       0.719  -5.725   1.122  0.00  0.00    +0.170 C 
ATOM     12  C   UNL     1       0.797  -4.291   1.600  0.00  0.00    +0.247 C 
ATOM     13  O   UNL     1       0.798  -3.937   2.759  0.00  0.00    -0.273 OA
BRANCH   7  18
ATOM     14  C   UNL     1       1.182   2.170   1.019  0.00  0.00    +0.044 C 
ATOM     15  C   UNL     1       1.097   0.671   0.891  0.00  0.00    -0.050 A 
ATOM     16  C   UNL     1       2.147  -0.119   1.325  0.00  0.00    +0.005 A 
ATOM     17  C   UNL     1       2.072  -1.493   1.210  0.00  0.00    +0.024 A 
ATOM     18  C   UNL     1       0.942  -2.082   0.659  0.00  0.00    +0.044 A 
ATOM     19  C   UNL     1      -0.110  -1.287   0.225  0.00  0.00    +0.024 A 
ATOM     20  C   UNL     1      -0.032   0.087   0.347  0.00  0.00    +0.005 A 
ENDBRANCH   7  18
ENDBRANCH   1  11
BRANCH   5  21
ATOM     21  C   UNL     1       0.479  -8.294   2.665  0.00  0.00    +0.032 C 
ATOM     22  C   UNL     1       0.838  -8.521   3.949  0.00  0.00    +0.126 C 
ATOM     23  C   UNL     1       2.038  -9.347   4.038  0.00  0.00    -0.005 C 
ATOM     24  C   UNL     1       2.645  -9.748   5.174  0.00  0.00    +0.015 C 
ATOM     25  C   UNL     1       2.478  -9.673   2.628  0.00  0.00    +0.044 C 
ATOM     26  C   UNL     1       1.442  -8.980   1.728  0.00  0.00    +0.047 C 
BRANCH  24  27
ATOM     27  C   UNL     1       1.994  -9.524   6.475  0.00  0.00    -0.025 A 
ATOM     28  C   UNL     1       0.620  -9.737   6.619  0.00  0.00    +0.008 A 
ATOM     29  C   UNL     1       0.017  -9.526   7.841  0.00  0.00    +0.001 A 
ATOM     30  C   UNL     1       0.769  -9.103   8.923  0.00  0.00    +0.000 A 
ATOM     31  C   UNL     1       2.130  -8.888   8.788  0.00  0.00    +0.001 A 
ATOM     32  C   UNL     1       2.748  -9.101   7.574  0.00  0.00    +0.008 A 
ENDBRANCH  24  27
BRANCH  22  33
ATOM     33  O   UNL     1       0.166  -8.040   5.023  0.00  0.00    -0.506 OA
ATOM     34  H   UNL     1      -0.562  -7.445   4.796  0.00  0.00    +0.292 HD
ENDBRANCH  22  33
ENDBRANCH   5  21
TORSDOF 5
