REMARK  Name = ZINC37064456
REMARK  5 active torsions:
REMARK  status: ('A' for Active; 'I' for Inactive)
REMARK    1  A    between atoms: C_1  and  C_2
REMARK    2  A    between atoms: C_5  and  S_9
REMARK    3  A    between atoms: C_6  and  N_8
REMARK    4  A    between atoms: S_9  and  N_12
REMARK    5  A    between atoms: N_12  and  C_13
REMARK                            x       y       z     vdW  Elec       q    Type
REMARK                         _______ _______ _______ _____ _____    ______ ____
ROOT
ATOM      1  S   UNL     1      -0.019  -4.432   0.109  0.00  0.00    +0.074 S 
ATOM      2  O   UNL     1      -0.931  -4.822   1.126  0.00  0.00    -0.150 OA
ATOM      3  O   UNL     1      -0.142  -4.875  -1.236  0.00  0.00    -0.150 OA
ENDROOT
BRANCH   1   8
ATOM      4  C   UNL     1      -0.093   1.604  -0.055  0.00  0.00    +0.044 C 
ATOM      5  C   UNL     1      -0.073   0.098  -0.010  0.00  0.00    -0.049 A 
ATOM      6  C   UNL     1      -0.286  -0.630  -1.166  0.00  0.00    +0.005 A 
ATOM      7  C   UNL     1      -0.269  -2.013  -1.129  0.00  0.00    +0.031 A 
ATOM      8  C   UNL     1      -0.040  -2.670   0.063  0.00  0.00    +0.129 A 
ATOM      9  C   UNL     1       0.174  -1.942   1.226  0.00  0.00    +0.052 A 
ATOM     10  C   UNL     1       0.162  -0.553   1.185  0.00  0.00    +0.028 A 
BRANCH   9  11
ATOM     11  N   UNL     1       0.406  -2.604   2.434  0.00  0.00    -0.356 N 
ATOM     12  H   UNL     1       0.497  -3.570   2.448  0.00  0.00    +0.142 HD
ATOM     13  H   UNL     1       0.477  -2.098   3.259  0.00  0.00    +0.142 HD
ENDBRANCH   9  11
ENDBRANCH   1   8
BRANCH   1  14
ATOM     14  N   UNL     1       1.487  -4.891   0.622  0.00  0.00    -0.212 N 
ATOM     15  H   UNL     1       1.584  -5.425   1.426  0.00  0.00    +0.174 HD
BRANCH  14  16
ATOM     16  C   UNL     1       2.622  -4.508  -0.105  0.00  0.00    +0.097 A 
ATOM     17  C   UNL     1       2.480  -3.828  -1.310  0.00  0.00    +0.149 A 
ATOM     18  C   UNL     1       3.602  -3.451  -2.025  0.00  0.00    +0.078 A 
ATOM     19  C   UNL     1       4.865  -3.750  -1.542  0.00  0.00    +0.127 A 
ATOM     20  C   UNL     1       5.008  -4.426  -0.343  0.00  0.00    +0.055 A 
ATOM     21  C   UNL     1       3.889  -4.800   0.379  0.00  0.00    +0.046 A 
ATOM     22 BR   UNL     1       4.087  -5.717   2.022  0.00  0.00    -0.048 Br
ATOM     23  F   UNL     1       5.959  -3.381  -2.243  0.00  0.00    -0.205 F 
ATOM     24  F   UNL     1       1.248  -3.537  -1.781  0.00  0.00    -0.203 F 
ENDBRANCH  14  16
ENDBRANCH   1  14
TORSDOF 4
