REMARK  Name = ZINC28942426
REMARK  14 active torsions:
REMARK  status: ('A' for Active; 'I' for Inactive)
REMARK    1  A    between atoms: C_1  and  C_2
REMARK    2  A    between atoms: C_2  and  C_3
REMARK    3  A    between atoms: C_2  and  C_4
REMARK    4  A    between atoms: C_4  and  N_5
REMARK    5  A    between atoms: C_6  and  N_35
REMARK    6  A    between atoms: C_7  and  N_14
REMARK    7  A    between atoms: N_14  and  C_15
REMARK    8  A    between atoms: C_15  and  C_16
REMARK    9  A    between atoms: C_16  and  C_17
REMARK   10  A    between atoms: C_16  and  C_18
REMARK   11  A    between atoms: C_19  and  C_21
REMARK   12  A    between atoms: C_21  and  O_22
REMARK   13  A    between atoms: O_22  and  C_23
REMARK   14  A    between atoms: C_28  and  C_29
REMARK                            x       y       z     vdW  Elec       q    Type
REMARK                         _______ _______ _______ _____ _____    ______ ____
ROOT
ATOM      1  N   UNL     1      -1.767  -1.952   0.114  0.00  0.00    -0.261 N 
ATOM      2  C   UNL     1      -1.692  -0.644  -0.212  0.00  0.00    +0.258 C 
ATOM      3  O   UNL     1      -0.609  -0.119  -0.367  0.00  0.00    -0.272 OA
ENDROOT
BRANCH   1   6
ATOM      4  N   UNL     1      -4.618  -4.146  -0.632  0.00  0.00    -0.280 N 
ATOM      5  C   UNL     1      -3.386  -3.543  -0.735  0.00  0.00    +0.127 A 
ATOM      6  C   UNL     1      -3.024  -2.588   0.193  0.00  0.00    +0.140 A 
ATOM      7  C   UNL     1      -3.927  -2.264   1.222  0.00  0.00    +0.277 A 
ATOM      8  O   UNL     1      -3.631  -1.427   2.058  0.00  0.00    -0.266 OA
ATOM      9  N   UNL     1      -5.124  -2.880   1.275  0.00  0.00    -0.273 N 
ATOM     10  H   UNL     1      -5.839  -2.626   2.071  0.00  0.00    +0.173 HD
ATOM     11  C   UNL     1      -5.460  -3.809   0.362  0.00  0.00    +0.331 A 
ATOM     12  O   UNL     1      -6.545  -4.353   0.436  0.00  0.00    -0.246 OA
BRANCH   5  13
ATOM     13  N   UNL     1      -2.527  -3.887  -1.751  0.00  0.00    -0.343 N 
ATOM     14  H   UNL     1      -1.543  -3.401  -1.827  0.00  0.00    +0.144 HD
ATOM     15  H   UNL     1      -2.822  -4.649  -2.487  0.00  0.00    +0.144 HD
ENDBRANCH   5  13
BRANCH   4  16
ATOM     16  C   UNL     1      -5.016  -5.162  -1.610  0.00  0.00    +0.131 C 
BRANCH  16  18
ATOM     17  C   UNL     1      -5.104  -7.616  -2.073  0.00  0.00    +0.009 C 
ATOM     18  C   UNL     1      -4.581  -6.543  -1.115  0.00  0.00    +0.003 C 
ATOM     19  C   UNL     1      -3.054  -6.609  -1.062  0.00  0.00    +0.009 C 
ENDBRANCH  16  18
ENDBRANCH   4  16
ENDBRANCH   1   6
BRANCH   1  20
ATOM     20  C   UNL     1      -0.544  -2.710   0.386  0.00  0.00    +0.117 C 
BRANCH  20  21
ATOM     21  C   UNL     1      -0.294  -2.751   1.895  0.00  0.00    +0.001 C 
ATOM     22  C   UNL     1       0.908  -3.651   2.188  0.00  0.00    +0.009 C 
ATOM     23  C   UNL     1      -0.008  -1.336   2.403  0.00  0.00    +0.009 C 
ENDBRANCH  20  21
ENDBRANCH   1  20
BRANCH   2  24
ATOM     24  C   UNL     1      -2.953   0.164  -0.382  0.00  0.00    +0.325 C 
BRANCH  24  25
ATOM     25  O   UNL     1      -2.613   1.524  -0.655  0.00  0.00    -0.482 OA
BRANCH  25  26
ATOM     26  C   UNL     1      -3.642   2.393  -0.836  0.00  0.00    +0.129 A 
ATOM     27  C   UNL     1      -4.952   1.946  -0.754  0.00  0.00    +0.046 A 
ATOM     28  C   UNL     1      -5.998   2.829  -0.938  0.00  0.00    +0.004 A 
ATOM     29  C   UNL     1      -5.745   4.164  -1.206  0.00  0.00    +0.001 A 
ATOM     30  C   UNL     1      -4.447   4.622  -1.290  0.00  0.00    +0.012 A 
ATOM     31  C   UNL     1      -3.385   3.741  -1.101  0.00  0.00    +0.024 A 
BRANCH  31  32
ATOM     32  C   UNL     1      -1.987   4.229  -1.185  0.00  0.00    -0.014 A 
ATOM     33  C   UNL     1      -1.078   3.928  -0.172  0.00  0.00    +0.008 A 
ATOM     34  C   UNL     1       0.223   4.381  -0.258  0.00  0.00    +0.001 A 
ATOM     35  C   UNL     1       0.622   5.142  -1.342  0.00  0.00    +0.000 A 
ATOM     36  C   UNL     1      -0.277   5.449  -2.348  0.00  0.00    +0.001 A 
ATOM     37  C   UNL     1      -1.578   4.996  -2.275  0.00  0.00    +0.008 A 
ENDBRANCH  31  32
ENDBRANCH  25  26
ENDBRANCH  24  25
ENDBRANCH   2  24
TORSDOF 10
