REMARK  Name = ZINC36013834
REMARK  13 active torsions:
REMARK  status: ('A' for Active; 'I' for Inactive)
REMARK    1  A    between atoms: C_1  and  C_2
REMARK    2  A    between atoms: C_2  and  N_3
REMARK    3  A    between atoms: C_4  and  C_25
REMARK    4  A    between atoms: C_5  and  C_20
REMARK    5  A    between atoms: C_6  and  C_11
REMARK    6  A    between atoms: C_14  and  C_17
REMARK    7  A    between atoms: C_17  and  C_18
REMARK    8  A    between atoms: C_17  and  C_19
REMARK    9  A    between atoms: C_20  and  O_22
REMARK   10  A    between atoms: O_22  and  C_23
REMARK   11  A    between atoms: C_23  and  C_24
REMARK   12  A    between atoms: C_25  and  N_26
REMARK   13  A    between atoms: C_33  and  C_35
REMARK                            x       y       z     vdW  Elec       q    Type
REMARK                         _______ _______ _______ _____ _____    ______ ____
ROOT
ATOM      1  N   UNL     1      -2.254  -1.309   0.557  0.00  0.00    -0.261 N 
ATOM      2  C   UNL     1      -2.333  -2.189   1.598  0.00  0.00    +0.010 C 
ATOM      3  C   UNL     1      -3.216  -3.211   1.581  0.00  0.00    +0.076 C 
ATOM      4  C   UNL     1      -4.116  -3.346   0.369  0.00  0.00    +0.143 C 
ATOM      5  N   UNL     1      -3.951  -2.345  -0.698  0.00  0.00    -0.288 N 
ATOM      6  C   UNL     1      -3.026  -1.378  -0.534  0.00  0.00    +0.307 C 
ATOM      7  O   UNL     1      -2.886  -0.545  -1.408  0.00  0.00    -0.252 OA
ATOM      8  H   UNL     1      -4.498  -2.378  -1.499  0.00  0.00    +0.151 HD
ENDROOT
BRANCH   4   9
ATOM      9  C   UNL     1      -5.545  -3.288   0.843  0.00  0.00    -0.022 A 
ATOM     10  C   UNL     1      -6.134  -2.068   1.118  0.00  0.00    +0.006 A 
ATOM     11  C   UNL     1      -7.445  -2.015   1.552  0.00  0.00    +0.004 A 
ATOM     12  C   UNL     1      -8.168  -3.183   1.711  0.00  0.00    -0.045 A 
ATOM     13  C   UNL     1      -7.580  -4.403   1.435  0.00  0.00    +0.004 A 
ATOM     14  C   UNL     1      -6.270  -4.455   0.997  0.00  0.00    +0.006 A 
BRANCH  12  15
ATOM     15  C   UNL     1      -9.597  -3.125   2.185  0.00  0.00    +0.013 C 
ATOM     16  C   UNL     1     -10.511  -3.745   1.127  0.00  0.00    +0.012 C 
ATOM     17  C   UNL     1      -9.732  -3.905   3.495  0.00  0.00    +0.012 C 
ENDBRANCH  12  15
ENDBRANCH   4   9
BRANCH   1  19
ATOM     18  C   UNL     1      -1.954   1.039   1.171  0.00  0.00    +0.025 C 
ATOM     19  C   UNL     1      -1.273  -0.225   0.642  0.00  0.00    +0.111 C 
ENDBRANCH   1  19
BRANCH   3  20
ATOM     20  C   UNL     1      -3.299  -4.124   2.658  0.00  0.00    +0.339 C 
ATOM     21  O   UNL     1      -2.647  -3.934   3.668  0.00  0.00    -0.245 OA
BRANCH  20  22
ATOM     22  O   UNL     1      -4.101  -5.205   2.566  0.00  0.00    -0.462 OA
BRANCH  22  23
ATOM     23  C   UNL     1      -4.136  -6.085   3.692  0.00  0.00    +0.229 C 
ATOM     24  C   UNL     1      -5.092  -7.244   3.404  0.00  0.00    +0.048 C 
ENDBRANCH  22  23
ENDBRANCH  20  22
ENDBRANCH   3  20
BRANCH   2  25
ATOM     25  C   UNL     1      -1.420  -2.019   2.784  0.00  0.00    -0.026 C 
BRANCH  25  26
ATOM     26  N   UNL     1      -0.286  -2.945   2.667  0.00  0.00    +0.384 N 
ATOM     27  C   UNL     1       0.430  -2.961   3.940  0.00  0.00    -0.077 C 
ATOM     28  C   UNL     1       1.080  -4.314   4.131  0.00  0.00    +0.000 C 
ATOM     29  C   UNL     1       2.526  -4.267   3.607  0.00  0.00    +0.106 C 
ATOM     30  N   UNL     1       2.614  -3.483   2.358  0.00  0.00    -0.303 N 
ATOM     31  C   UNL     1       1.622  -3.586   1.308  0.00  0.00    +0.089 C 
ATOM     32  C   UNL     1       0.491  -2.560   1.551  0.00  0.00    -0.059 C 
ATOM     33  C   UNL     1       3.653  -2.641   2.190  0.00  0.00    +0.219 C 
ATOM     34  O   UNL     1       3.695  -1.916   1.219  0.00  0.00    -0.275 OA
ATOM     35  H   UNL     1      -0.649  -3.871   2.497  0.00  0.00    -0.081 HD
BRANCH  33  36
ATOM     36  C   UNL     1       4.762  -2.601   3.209  0.00  0.00    +0.075 C 
ATOM     37  C   UNL     1       4.332  -1.757   4.427  0.00  0.00    +0.013 C 
ATOM     38  C   UNL     1       5.623  -1.013   4.849  0.00  0.00    +0.001 C 
ATOM     39  C   UNL     1       6.281  -0.673   3.488  0.00  0.00    +0.001 C 
ATOM     40  C   UNL     1       6.002  -1.912   2.613  0.00  0.00    +0.013 C 
ENDBRANCH  33  36
ENDBRANCH  25  26
ENDBRANCH   2  25
TORSDOF 9
