REMARK  Name = ZINC33945147
REMARK  1 active torsions:
REMARK  status: ('A' for Active; 'I' for Inactive)
REMARK    1  A    between atoms: C_1  and  C_2
REMARK                            x       y       z     vdW  Elec       q    Type
REMARK                         _______ _______ _______ _____ _____    ______ ____
ROOT
ATOM      1  C   UNL     1      -0.019   1.526   0.010  0.00  0.00    +0.019 C 
ATOM      2  C   UNL     1       0.002  -0.004   0.002  0.00  0.00    +0.047 C 
ATOM      3  C   UNL     1      -1.424  -0.576   0.207  0.00  0.00    +0.003 C 
ATOM      4  C   UNL     1      -2.202   0.405   1.098  0.00  0.00    +0.005 C 
ATOM      5  C   UNL     1      -1.450   0.611   2.413  0.00  0.00    +0.001 C 
ATOM      6  C   UNL     1      -1.253  -0.724   3.134  0.00  0.00    +0.014 C 
ATOM      7  C   UNL     1      -0.447  -1.665   2.221  0.00  0.00    +0.047 C 
ATOM      8  C   UNL     1      -1.332  -1.926   0.944  0.00  0.00    +0.018 C 
ATOM      9  S   UNL     1       0.907  -0.654   1.466  0.00  0.00    -0.154 S 
ENDROOT
TORSDOF 0
