REMARK  Name = ZINC20059943
REMARK  9 active torsions:
REMARK  status: ('A' for Active; 'I' for Inactive)
REMARK    1  A    between atoms: C_1  and  C_2
REMARK    2  A    between atoms: C_11  and  S_15
REMARK    3  A    between atoms: S_15  and  C_16
REMARK    4  A    between atoms: C_16  and  C_17
REMARK    5  A    between atoms: C_22  and  C_25
REMARK    6  A    between atoms: C_28  and  C_31
REMARK    7  A    between atoms: C_31  and  C_32
REMARK    8  A    between atoms: C_31  and  C_33
REMARK    9  A    between atoms: C_31  and  C_34
REMARK                            x       y       z     vdW  Elec       q    Type
REMARK                         _______ _______ _______ _____ _____    ______ ____
ROOT
ATOM      1  C   UNL     1      -1.170  -0.425   7.670  0.00  0.00    +0.230 C 
ATOM      2  O   UNL     1      -2.140  -0.352   6.947  0.00  0.00    -0.274 OA
ATOM      3  N   UNL     1      -1.321  -0.743   8.971  0.00  0.00    -0.253 N 
ATOM      4  C   UNL     1      -2.597  -0.989   9.486  0.00  0.00    +0.230 A 
ATOM      5  N   UNL     1      -2.748  -1.304  10.752  0.00  0.00    -0.205 NA
ATOM      6  C   UNL     1      -3.975  -1.527  11.210  0.00  0.00    +0.130 A 
ATOM      7  S   UNL     1      -4.930  -1.290   9.781  0.00  0.00    +0.035 S 
ATOM      8  N   UNL     1      -3.654  -0.912   8.703  0.00  0.00    -0.174 NA
ATOM      9  H   UNL     1      -0.441  -0.808   9.628  0.00  0.00    +0.158 HD
ENDROOT
BRANCH   6  10
ATOM     10  C   UNL     1      -4.411  -1.889  12.576  0.00  0.00    +0.009 A 
ATOM     11  C   UNL     1      -3.470  -2.039  13.595  0.00  0.00    +0.011 A 
ATOM     12  C   UNL     1      -3.884  -2.372  14.869  0.00  0.00    +0.005 A 
ATOM     13  C   UNL     1      -5.228  -2.566  15.134  0.00  0.00    -0.042 A 
ATOM     14  C   UNL     1      -6.165  -2.424  14.127  0.00  0.00    +0.005 A 
ATOM     15  C   UNL     1      -5.765  -2.087  12.850  0.00  0.00    +0.011 A 
BRANCH  13  16
ATOM     16  C   UNL     1      -5.672  -2.934  16.526  0.00  0.00    -0.013 C 
ATOM     17  C   UNL     1      -6.388  -4.286  16.492  0.00  0.00    +0.015 C 
ATOM     18  C   UNL     1      -4.451  -3.027  17.444  0.00  0.00    +0.015 C 
ATOM     19  C   UNL     1      -6.628  -1.864  17.056  0.00  0.00    +0.015 C 
ENDBRANCH  13  16
ENDBRANCH   6  10
BRANCH   1  20
ATOM     20  C   UNL     1       0.206  -0.159   7.115  0.00  0.00    +0.172 C 
BRANCH  20  21
ATOM     21  S   UNL     1       0.079   0.238   5.354  0.00  0.00    -0.096 S 
BRANCH  21  31
ATOM     22  C   UNL     1      -0.759   1.596  -1.226  0.00  0.00    +0.008 C 
ATOM     23  C   UNL     1      -0.013   1.086   0.008  0.00  0.00    -0.009 C 
ATOM     24  C   UNL     1      -0.710   1.583   1.278  0.00  0.00    +0.008 C 
ATOM     25  C   UNL     1      -0.125   0.880   2.502  0.00  0.00    +0.037 C 
ATOM     26  C   UNL     1       1.394   1.036   2.484  0.00  0.00    -0.025 A 
ATOM     27  C   UNL     1       2.037   1.368   1.341  0.00  0.00    -0.004 A 
ATOM     28  S   UNL     1       3.757   1.438   1.776  0.00  0.00    -0.073 S 
ATOM     29  C   UNL     1       3.614   1.025   3.484  0.00  0.00    +0.113 A 
ATOM     30  C   UNL     1       2.219   0.844   3.664  0.00  0.00    +0.043 A 
ATOM     31  C   UNL     1       1.780   0.495   4.974  0.00  0.00    +0.109 A 
ATOM     32  N   UNL     1       2.736   0.374   5.894  0.00  0.00    -0.229 NA
ATOM     33  C   UNL     1       4.018   0.558   5.652  0.00  0.00    +0.223 A 
ATOM     34  N   UNL     1       4.494   0.885   4.456  0.00  0.00    -0.228 NA
ATOM     35  C   UNL     1       1.426   1.621  -0.003  0.00  0.00    +0.046 C 
ENDBRANCH  21  31
ENDBRANCH  20  21
ENDBRANCH   1  20
TORSDOF 5
