REMARK  Name = ZINC64044193
REMARK  11 active torsions:
REMARK  status: ('A' for Active; 'I' for Inactive)
REMARK    1  A    between atoms: C_1  and  C_2
REMARK    2  A    between atoms: C_6  and  C_23
REMARK    3  A    between atoms: C_8  and  C_20
REMARK    4  A    between atoms: N_10  and  C_11
REMARK    5  A    between atoms: C_11  and  C_12
REMARK    6  A    between atoms: C_12  and  C_13
REMARK    7  A    between atoms: C_20  and  O_21
REMARK    8  A    between atoms: O_21  and  C_22
REMARK    9  A    between atoms: N_25  and  C_26
REMARK   10  A    between atoms: C_26  and  C_28
REMARK   11  A    between atoms: C_26  and  C_29
REMARK                            x       y       z     vdW  Elec       q    Type
REMARK                         _______ _______ _______ _____ _____    ______ ____
ROOT
ATOM      1  C   UNL     1      -0.018   1.503   0.010  0.00  0.00    +0.060 C 
ATOM      2  C   UNL     1       0.002  -0.004   0.002  0.00  0.00    +0.007 C 
ATOM      3  C   UNL     1       0.006  -0.678  -1.173  0.00  0.00    +0.065 C 
ATOM      4  C   UNL     1       0.043  -2.077  -1.201  0.00  0.00    +0.171 C 
ATOM      5  O   UNL     1       0.025  -2.660  -2.267  0.00  0.00    -0.292 OA
ATOM      6  C   UNL     1       0.105  -2.866   0.083  0.00  0.00    +0.168 C 
ATOM      7  C   UNL     1      -0.555  -2.051   1.202  0.00  0.00    +0.118 C 
ATOM      8  N   UNL     1       0.023  -0.696   1.180  0.00  0.00    -0.327 N 
ENDROOT
BRANCH   6   9
ATOM      9  C   UNL     1       1.543  -3.141   0.437  0.00  0.00    +0.226 C 
ATOM     10  O   UNL     1       1.998  -2.735   1.485  0.00  0.00    -0.275 OA
ATOM     11  N   UNL     1       2.325  -3.839  -0.411  0.00  0.00    -0.308 N 
ATOM     12  H   UNL     1       1.961  -4.164  -1.250  0.00  0.00    +0.149 HD
BRANCH  11  13
ATOM     13  C   UNL     1       3.723  -4.106  -0.067  0.00  0.00    +0.112 C 
ATOM     14  C   UNL     1       3.803  -5.360   0.806  0.00  0.00    +0.032 C 
BRANCH  13  15
ATOM     15  C   UNL     1       4.531  -4.324  -1.348  0.00  0.00    +0.194 C 
ATOM     16  N   UNL     1       4.038  -5.511  -2.059  0.00  0.00    -0.362 N 
ATOM     17  C   UNL     1       5.023  -6.359  -2.134  0.00  0.00    +0.060 A 
ATOM     18  C   UNL     1       5.143  -7.701  -2.719  0.00  0.00    +0.027 A 
ATOM     19  C   UNL     1       6.319  -8.357  -2.643  0.00  0.00    +0.002 A 
ATOM     20  C   UNL     1       7.454  -7.809  -2.020  0.00  0.00    +0.002 A 
ATOM     21  C   UNL     1       7.452  -6.586  -1.452  0.00  0.00    +0.027 A 
ATOM     22  C   UNL     1       6.225  -5.778  -1.475  0.00  0.00    +0.060 A 
ATOM     23  N   UNL     1       5.936  -4.593  -1.018  0.00  0.00    -0.362 N 
ATOM     24  H   UNL     1       3.143  -5.639  -2.409  0.00  0.00    +0.162 HD
ATOM     25  H   UNL     1       6.539  -3.998  -0.546  0.00  0.00    +0.162 HD
ENDBRANCH  13  15
ENDBRANCH  11  13
ENDBRANCH   6   9
BRANCH   8  26
ATOM     26  C   UNL     1       0.601  -0.104   2.388  0.00  0.00    +0.110 C 
BRANCH  26  27
ATOM     27  C   UNL     1      -0.484   0.653   3.155  0.00  0.00    +0.054 C 
BRANCH  27  28
ATOM     28  C   UNL     1       0.111   1.262   4.399  0.00  0.00    -0.045 A 
ATOM     29  C   UNL     1       0.128   0.544   5.580  0.00  0.00    +0.004 A 
ATOM     30  C   UNL     1       0.673   1.102   6.721  0.00  0.00    +0.002 A 
ATOM     31  C   UNL     1       1.202   2.378   6.681  0.00  0.00    +0.020 A 
ATOM     32  C   UNL     1       1.186   3.097   5.500  0.00  0.00    +0.041 A 
ATOM     33  C   UNL     1       0.645   2.536   4.356  0.00  0.00    +0.023 A 
ATOM     34 CL   UNL     1       1.850   4.700   5.449  0.00  0.00    -0.084 Cl
ENDBRANCH  27  28
ENDBRANCH  26  27
ENDBRANCH   8  26
BRANCH   7  35
ATOM     35  C   UNL     1      -2.065  -1.978   0.967  0.00  0.00    +0.183 C 
BRANCH  35  36
ATOM     36  O   UNL     1      -2.688  -1.319   2.071  0.00  0.00    -0.381 OA
ATOM     37  C   UNL     1      -4.106  -1.197   1.950  0.00  0.00    +0.194 C 
ENDBRANCH  35  36
ENDBRANCH   7  35
TORSDOF 8
