REMARK  Name = ZINC39932437
REMARK  8 active torsions:
REMARK  status: ('A' for Active; 'I' for Inactive)
REMARK    1  A    between atoms: C_1  and  C_2
REMARK    2  A    between atoms: C_5  and  S_8
REMARK    3  A    between atoms: S_8  and  N_11
REMARK    4  A    between atoms: N_11  and  N_12
REMARK    5  A    between atoms: N_21  and  N_22
REMARK    6  A    between atoms: N_22  and  S_23
REMARK    7  A    between atoms: S_23  and  C_26
REMARK    8  A    between atoms: C_29  and  C_32
REMARK                            x       y       z     vdW  Elec       q    Type
REMARK                         _______ _______ _______ _____ _____    ______ ____
ROOT
ATOM      1  N   UNL     1       2.500  -4.622   1.014  0.00  0.00    -0.170 NA
ATOM      2  C   UNL     1       3.746  -4.990   1.005  0.00  0.00    +0.068 C 
ATOM      3  C   UNL     1       4.288  -5.801  -0.104  0.00  0.00    +0.007 A 
ATOM      4  C   UNL     1       5.279  -5.237  -0.935  0.00  0.00    +0.007 A 
ATOM      5  C   UNL     1       5.806  -5.981  -1.986  0.00  0.00    +0.010 A 
ATOM      6  C   UNL     1       5.351  -7.268  -2.204  0.00  0.00    +0.001 A 
ATOM      7  C   UNL     1       4.378  -7.821  -1.388  0.00  0.00    +0.001 A 
ATOM      8  C   UNL     1       3.843  -7.097  -0.339  0.00  0.00    +0.010 A 
ATOM      9  C   UNL     1       5.734  -3.858  -0.664  0.00  0.00    +0.068 C 
ATOM     10  N   UNL     1       5.516  -2.905  -1.519  0.00  0.00    -0.170 NA
ATOM     11  C   UNL     1       6.456  -3.585   0.632  0.00  0.00    +0.058 C 
ATOM     12  C   UNL     1       5.476  -3.361   1.767  0.00  0.00    +0.012 C 
ATOM     13  C   UNL     1       4.678  -4.594   2.124  0.00  0.00    +0.058 C 
ENDROOT
BRANCH   1  14
ATOM     14  N   UNL     1       1.651  -4.999  -0.034  0.00  0.00    -0.136 N 
ATOM     15  H   UNL     1       1.993  -5.536  -0.767  0.00  0.00    +0.197 HD
BRANCH  14  16
ATOM     16  S   UNL     1       0.063  -4.530  -0.023  0.00  0.00    +0.086 S 
ATOM     17  O   UNL     1      -0.476  -4.950   1.223  0.00  0.00    -0.149 OA
ATOM     18  O   UNL     1      -0.490  -4.937  -1.267  0.00  0.00    -0.149 OA
BRANCH  16  23
ATOM     19  C   UNL     1      -0.018   1.503   0.010  0.00  0.00    +0.044 C 
ATOM     20  C   UNL     1       0.002  -0.004   0.002  0.00  0.00    -0.050 A 
ATOM     21  C   UNL     1       0.006  -0.689  -1.199  0.00  0.00    +0.005 A 
ATOM     22  C   UNL     1       0.025  -2.071  -1.206  0.00  0.00    +0.029 A 
ATOM     23  C   UNL     1       0.040  -2.768  -0.013  0.00  0.00    +0.110 A 
ATOM     24  C   UNL     1       0.037  -2.084   1.188  0.00  0.00    +0.029 A 
ATOM     25  C   UNL     1       0.023  -0.702   1.195  0.00  0.00    +0.005 A 
ENDBRANCH  16  23
ENDBRANCH  14  16
ENDBRANCH   1  14
BRANCH  10  26
ATOM     26  N   UNL     1       4.843  -3.179  -2.717  0.00  0.00    -0.136 N 
ATOM     27  H   UNL     1       4.539  -4.080  -2.908  0.00  0.00    +0.197 HD
BRANCH  26  28
ATOM     28  S   UNL     1       4.566  -1.964  -3.807  0.00  0.00    +0.086 S 
ATOM     29  O   UNL     1       4.004  -2.574  -4.961  0.00  0.00    -0.149 OA
ATOM     30  O   UNL     1       3.906  -0.924  -3.098  0.00  0.00    -0.149 OA
BRANCH  28  31
ATOM     31  C   UNL     1       6.137  -1.327  -4.288  0.00  0.00    +0.110 A 
ATOM     32  C   UNL     1       6.708  -0.288  -3.578  0.00  0.00    +0.029 A 
ATOM     33  C   UNL     1       7.941   0.211  -3.955  0.00  0.00    +0.005 A 
ATOM     34  C   UNL     1       8.602  -0.328  -5.043  0.00  0.00    -0.050 A 
ATOM     35  C   UNL     1       8.031  -1.368  -5.752  0.00  0.00    +0.005 A 
ATOM     36  C   UNL     1       6.800  -1.870  -5.373  0.00  0.00    +0.029 A 
ATOM     37  C   UNL     1       9.945   0.217  -5.454  0.00  0.00    +0.044 C 
ENDBRANCH  28  31
ENDBRANCH  26  28
ENDBRANCH  10  26
TORSDOF 6
