REMARK  Name = ZINC13482268
REMARK  8 active torsions:
REMARK  status: ('A' for Active; 'I' for Inactive)
REMARK    1  A    between atoms: C_1  and  O_2
REMARK    2  A    between atoms: O_2  and  C_3
REMARK    3  A    between atoms: C_6  and  C_19
REMARK    4  A    between atoms: C_8  and  C_9
REMARK    5  A    between atoms: C_9  and  O_10
REMARK    6  A    between atoms: O_10  and  C_11
REMARK    7  A    between atoms: N_20  and  N_21
REMARK    8  A    between atoms: C_22  and  C_24
REMARK                            x       y       z     vdW  Elec       q    Type
REMARK                         _______ _______ _______ _____ _____    ______ ____
ROOT
ATOM      1  C   UNL     1      -1.200  -0.637   0.010  0.00  0.00    +0.127 A 
ATOM      2  C   UNL     1      -2.374   0.106   0.019  0.00  0.00    +0.046 A 
ATOM      3  C   UNL     1      -3.595  -0.532   0.027  0.00  0.00    +0.013 A 
ATOM      4  C   UNL     1      -3.652  -1.929   0.026  0.00  0.00    -0.005 A 
ATOM      5  C   UNL     1      -2.468  -2.672   0.016  0.00  0.00    +0.020 A 
ATOM      6  C   UNL     1      -1.251  -2.025   0.003  0.00  0.00    +0.032 A 
ENDROOT
BRANCH   1   8
ATOM      7  C   UNL     1      -0.017   1.425   0.010  0.00  0.00    +0.277 C 
ATOM      8  O   UNL     1       0.002  -0.004   0.002  0.00  0.00    -0.495 OA
ENDBRANCH   1   8
BRANCH   4   9
ATOM      9  C   UNL     1      -4.956  -2.616   0.034  0.00  0.00    +0.138 C 
ATOM     10  N   UNL     1      -6.054  -1.924   0.044  0.00  0.00    -0.187 NA
BRANCH  10  11
ATOM     11  N   UNL     1      -7.293  -2.577   0.052  0.00  0.00    -0.202 N 
ATOM     12  C   UNL     1      -8.434  -1.858   0.061  0.00  0.00    +0.283 C 
ATOM     13  O   UNL     1      -8.386  -0.643   0.063  0.00  0.00    -0.267 OA
ATOM     14  H   UNL     1      -7.331  -3.546   0.051  0.00  0.00    +0.178 HD
BRANCH  12  15
ATOM     15  C   UNL     1      -9.740  -2.546   0.070  0.00  0.00    +0.148 A 
ATOM     16  C   UNL     1     -11.015  -1.933   0.075  0.00  0.00    +0.054 A 
ATOM     17  C   UNL     1     -11.907  -2.951   0.082  0.00  0.00    +0.105 A 
ATOM     18  N   UNL     1     -11.200  -4.101   0.082  0.00  0.00    -0.284 N 
ATOM     19  H   UNL     1     -11.588  -4.991   0.086  0.00  0.00    +0.188 HD
ATOM     20  N   UNL     1      -9.940  -3.849   0.070  0.00  0.00    -0.169 NA
ENDBRANCH  12  15
ENDBRANCH  10  11
ENDBRANCH   4   9
BRANCH   6  21
ATOM     21  C   UNL     1       0.026  -2.825  -0.013  0.00  0.00    +0.268 C 
BRANCH  21  22
ATOM     22  O   UNL     1      -0.286  -4.220  -0.018  0.00  0.00    -0.486 OA
BRANCH  22  23
ATOM     23  C   UNL     1       0.761  -5.086  -0.033  0.00  0.00    +0.139 A 
ATOM     24  C   UNL     1       2.062  -4.604  -0.037  0.00  0.00    +0.048 A 
ATOM     25  C   UNL     1       3.125  -5.486  -0.052  0.00  0.00    +0.023 A 
ATOM     26  C   UNL     1       2.894  -6.850  -0.062  0.00  0.00    +0.043 A 
ATOM     27  C   UNL     1       1.598  -7.334  -0.058  0.00  0.00    +0.043 A 
ATOM     28  C   UNL     1       0.531  -6.455  -0.038  0.00  0.00    +0.084 A 
ATOM     29 CL   UNL     1      -1.095  -7.062  -0.025  0.00  0.00    -0.080 Cl
ATOM     30 CL   UNL     1       4.232  -7.956  -0.082  0.00  0.00    -0.083 Cl
ENDBRANCH  22  23
ENDBRANCH  21  22
ENDBRANCH   6  21
TORSDOF 7
