REMARK  Name = ZINC39667119
REMARK  9 active torsions:
REMARK  status: ('A' for Active; 'I' for Inactive)
REMARK    1  A    between atoms: C_1  and  C_2
REMARK    2  A    between atoms: C_5  and  C_9
REMARK    3  A    between atoms: C_6  and  C_8
REMARK    4  A    between atoms: C_9  and  C_10
REMARK    5  A    between atoms: C_10  and  N_11
REMARK    6  A    between atoms: C_12  and  C_14
REMARK    7  A    between atoms: C_25  and  C_27
REMARK    8  A    between atoms: C_32  and  S_33
REMARK    9  A    between atoms: S_33  and  C_34
REMARK                            x       y       z     vdW  Elec       q    Type
REMARK                         _______ _______ _______ _____ _____    ______ ____
ROOT
ATOM      1  C   UNL     1      -2.480  -8.464   0.197  0.00  0.00    +0.100 C 
ATOM      2  C   UNL     1      -1.598  -9.003   1.346  0.00  0.00    +0.121 C 
ATOM      3  N   UNL     1      -2.546  -9.264   2.455  0.00  0.00    -0.296 N 
ATOM      4  C   UNL     1      -3.746  -9.826   1.790  0.00  0.00    +0.115 C 
ATOM      5  C   UNL     1      -3.888  -9.009   0.490  0.00  0.00    -0.004 C 
ATOM      6  C   UNL     1      -4.354  -9.908  -0.651  0.00  0.00    -0.010 C 
ATOM      7  C   UNL     1      -5.779 -10.391  -0.364  0.00  0.00    -0.082 C 
ATOM      8  N   UNL     1      -6.672  -9.234  -0.230  0.00  0.00    +0.379 N 
ATOM      9  C   UNL     1      -6.272  -8.425   0.927  0.00  0.00    -0.082 C 
ATOM     10  C   UNL     1      -4.868  -7.858   0.696  0.00  0.00    -0.010 C 
ATOM     11  C   UNL     1      -2.360  -9.040   3.771  0.00  0.00    +0.249 C 
ATOM     12  O   UNL     1      -1.351  -8.480   4.155  0.00  0.00    -0.270 OA
ATOM     13  H   UNL     1      -6.620  -8.672  -1.066  0.00  0.00    -0.086 HD
ATOM     14  H   UNL     1      -7.620  -9.556  -0.102  0.00  0.00    -0.086 HD
ENDROOT
BRANCH  11  15
ATOM     15  C   UNL     1      -3.379  -9.473   4.744  0.00  0.00    +0.069 A 
ATOM     16  C   UNL     1      -4.105 -10.652   4.538  0.00  0.00    +0.017 A 
ATOM     17  C   UNL     1      -5.049 -11.016   5.481  0.00  0.00    +0.020 A 
ATOM     18  C   UNL     1      -5.249 -10.213   6.591  0.00  0.00    +0.112 A 
ATOM     19  N   UNL     1      -4.555  -9.106   6.767  0.00  0.00    -0.248 NA
ATOM     20  C   UNL     1      -3.635  -8.714   5.899  0.00  0.00    +0.114 A 
BRANCH  20  21
ATOM     21  S   UNL     1      -2.732  -7.228   6.189  0.00  0.00    -0.069 S 
BRANCH  21  22
ATOM     22  C   UNL     1      -3.476  -6.554   7.637  0.00  0.00    +0.014 A 
ATOM     23  C   UNL     1      -2.923  -6.807   8.886  0.00  0.00    +0.015 A 
ATOM     24  C   UNL     1      -3.508  -6.276  10.019  0.00  0.00    +0.001 A 
ATOM     25  C   UNL     1      -4.643  -5.494   9.911  0.00  0.00    +0.000 A 
ATOM     26  C   UNL     1      -5.197  -5.240   8.669  0.00  0.00    +0.001 A 
ATOM     27  C   UNL     1      -4.613  -5.763   7.531  0.00  0.00    +0.015 A 
ENDBRANCH  21  22
ENDBRANCH  20  21
ENDBRANCH  11  15
BRANCH   1  29
ATOM     28  N   UNL     1      -2.633  -6.277  -0.949  0.00  0.00    -0.315 N 
ATOM     29  C   UNL     1      -2.489  -6.957   0.206  0.00  0.00    +0.218 C 
ATOM     30  O   UNL     1      -2.365  -6.356   1.252  0.00  0.00    -0.275 OA
ATOM     31  H   UNL     1      -2.732  -6.758  -1.786  0.00  0.00    +0.149 HD
BRANCH  28  32
ATOM     32  C   UNL     1      -2.642  -4.812  -0.940  0.00  0.00    +0.109 C 
BRANCH  32  33
ATOM     33  C   UNL     1      -2.819  -4.295  -2.369  0.00  0.00    +0.054 C 
BRANCH  33  38
ATOM     34  C   UNL     1      -2.853   1.483  -2.333  0.00  0.00    +0.044 C 
ATOM     35  C   UNL     1      -2.844  -0.024  -2.343  0.00  0.00    -0.050 A 
ATOM     36  C   UNL     1      -4.037  -0.722  -2.308  0.00  0.00    +0.003 A 
ATOM     37  C   UNL     1      -4.028  -2.104  -2.317  0.00  0.00    +0.004 A 
ATOM     38  C   UNL     1      -2.828  -2.788  -2.361  0.00  0.00    -0.043 A 
ATOM     39  C   UNL     1      -1.635  -2.090  -2.397  0.00  0.00    -0.047 A 
ATOM     40  C   UNL     1      -1.644  -0.707  -2.392  0.00  0.00    +0.007 A 
ATOM     41  C   UNL     1      -0.327  -2.836  -2.444  0.00  0.00    +0.044 C 
ENDBRANCH  33  38
ENDBRANCH  32  33
ENDBRANCH  28  32
ENDBRANCH   1  29
TORSDOF 7
