REMARK  Name = ZINC53098425
REMARK  2 active torsions:
REMARK  status: ('A' for Active; 'I' for Inactive)
REMARK    1  A    between atoms: C_1  and  C_2
REMARK    2  A    between atoms: N_12  and  C_13
REMARK                            x       y       z     vdW  Elec       q    Type
REMARK                         _______ _______ _______ _____ _____    ______ ____
ROOT
ATOM      1  C   UNL     1      -0.019   1.526   0.010  0.00  0.00    +0.007 C 
ATOM      2  C   UNL     1       0.002  -0.004   0.002  0.00  0.00    -0.014 C 
ATOM      3  C   UNL     1      -1.433  -0.534   0.014  0.00  0.00    +0.005 C 
ATOM      4  C   UNL     1      -1.413  -2.063   0.007  0.00  0.00    +0.027 C 
ATOM      5  C   UNL     1      -0.678  -2.569   1.255  0.00  0.00    +0.043 C 
ATOM      6  C   UNL     1       0.762  -2.040   1.234  0.00  0.00    +0.027 C 
ATOM      7  C   UNL     1       0.742  -0.511   1.242  0.00  0.00    +0.005 C 
ATOM      8  C   UNL     1      -0.622  -4.116   1.184  0.00  0.00    +0.102 C 
ATOM      9  S   UNL     1      -1.083  -4.537   2.916  0.00  0.00    -0.088 S 
ATOM     10  C   UNL     1      -1.881  -2.995   3.339  0.00  0.00    +0.155 C 
ATOM     11  N   UNL     1      -1.356  -2.090   2.449  0.00  0.00    -0.317 N 
ATOM     12  N   UNL     1      -2.767  -2.776   4.284  0.00  0.00    -0.223 NA
ATOM     13  H   UNL     1      -1.437  -1.138   2.615  0.00  0.00    +0.149 HD
ENDROOT
BRANCH  12  14
ATOM     14  C   UNL     1      -3.180  -3.807   5.087  0.00  0.00    +0.103 A 
ATOM     15  C   UNL     1      -4.279  -4.587   4.718  0.00  0.00    +0.069 A 
ATOM     16  C   UNL     1      -4.689  -5.624   5.532  0.00  0.00    +0.037 A 
ATOM     17  C   UNL     1      -4.015  -5.892   6.711  0.00  0.00    +0.021 A 
ATOM     18  C   UNL     1      -2.926  -5.123   7.083  0.00  0.00    +0.037 A 
ATOM     19  C   UNL     1      -2.501  -4.087   6.276  0.00  0.00    +0.069 A 
ATOM     20 CL   UNL     1      -1.130  -3.128   6.740  0.00  0.00    -0.081 Cl
ATOM     21 BR   UNL     1      -4.586  -7.314   7.819  0.00  0.00    -0.050 Br
ATOM     22 CL   UNL     1      -5.126  -4.252   3.241  0.00  0.00    -0.081 Cl
ENDBRANCH  12  14
TORSDOF 1
