REMARK  Name = ZINC09112216
REMARK  5 active torsions:
REMARK  status: ('A' for Active; 'I' for Inactive)
REMARK    1  A    between atoms: C_1  and  C_2
REMARK    2  A    between atoms: C_2  and  C_4
REMARK    3  A    between atoms: C_2  and  N_13
REMARK    4  A    between atoms: N_13  and  C_14
REMARK    5  A    between atoms: C_25  and  C_28
REMARK                            x       y       z     vdW  Elec       q    Type
REMARK                         _______ _______ _______ _____ _____    ______ ____
ROOT
ATOM      1  C   UNL     1      -3.961   3.886   6.951  0.00  0.00    +0.072 A 
ATOM      2  C   UNL     1      -3.453   4.830   6.032  0.00  0.00    +0.158 A 
ATOM      3  N   UNL     1      -2.839   4.434   4.952  0.00  0.00    -0.168 NA
ATOM      4  N   UNL     1      -2.669   3.073   4.677  0.00  0.00    -0.177 N 
ATOM      5  C   UNL     1      -3.143   2.138   5.524  0.00  0.00    +0.293 A 
ATOM      6  O   UNL     1      -2.996   0.952   5.275  0.00  0.00    -0.264 OA
ATOM      7  C   UNL     1      -3.803   2.536   6.696  0.00  0.00    +0.129 A 
ATOM      8 CL   UNL     1      -4.417   1.352   7.807  0.00  0.00    -0.076 Cl
ATOM      9  C   UNL     1      -2.008   2.680   3.512  0.00  0.00    +0.158 A 
ATOM     10  C   UNL     1      -1.524   3.644   2.636  0.00  0.00    +0.049 A 
ATOM     11  C   UNL     1      -0.865   3.241   1.488  0.00  0.00    +0.017 A 
ATOM     12  C   UNL     1      -0.722   1.881   1.250  0.00  0.00    +0.073 A 
ATOM     13  C   UNL     1      -1.229   0.978   2.164  0.00  0.00    +0.125 A 
ATOM     14  N   UNL     1      -1.848   1.392   3.252  0.00  0.00    -0.235 NA
ENDROOT
BRANCH  12  15
ATOM     15  C   UNL     1      -0.017   1.395   0.010  0.00  0.00    +0.419 C 
ATOM     16  F   UNL     1       0.002  -0.004   0.002  0.00  0.00    -0.166 F 
ATOM     17  F   UNL     1       1.296   1.879  -0.000  0.00  0.00    -0.166 F 
ATOM     18  F   UNL     1      -0.694   1.858  -1.124  0.00  0.00    -0.166 F 
ENDBRANCH  12  15
BRANCH   1  19
ATOM     19  N   UNL     1      -4.612   4.309   8.098  0.00  0.00    -0.335 N 
ATOM     20  H   UNL     1      -4.960   3.657   8.726  0.00  0.00    +0.147 HD
BRANCH  19  22
ATOM     21  C   UNL     1      -6.024   6.253   7.641  0.00  0.00    +0.033 C 
ATOM     22  C   UNL     1      -4.776   5.741   8.362  0.00  0.00    +0.098 C 
BRANCH  22  23
ATOM     23  C   UNL     1      -4.925   5.965   9.845  0.00  0.00    -0.024 A 
ATOM     24  C   UNL     1      -5.681   5.088  10.602  0.00  0.00    +0.009 A 
ATOM     25  C   UNL     1      -5.821   5.290  11.962  0.00  0.00    +0.050 A 
ATOM     26  C   UNL     1      -5.203   6.370  12.571  0.00  0.00    +0.166 A 
ATOM     27  C   UNL     1      -4.442   7.252  11.808  0.00  0.00    +0.167 A 
ATOM     28  C   UNL     1      -4.302   7.042  10.446  0.00  0.00    +0.055 A 
ATOM     29  O   UNL     1      -3.943   8.222  12.630  0.00  0.00    -0.453 OA
ATOM     30  C   UNL     1      -4.069   7.696  13.965  0.00  0.00    +0.466 C 
ATOM     31  O   UNL     1      -5.181   6.786  13.871  0.00  0.00    -0.453 OA
ENDBRANCH  22  23
ENDBRANCH  19  22
ENDBRANCH   1  19
TORSDOF 4
