REMARK  Name = ZINC57313647
REMARK  7 active torsions:
REMARK  status: ('A' for Active; 'I' for Inactive)
REMARK    1  A    between atoms: C_4  and  C_7
REMARK    2  A    between atoms: C_10  and  C_12
REMARK    3  A    between atoms: C_13  and  C_14
REMARK    4  A    between atoms: N_16  and  C_17
REMARK    5  A    between atoms: C_17  and  N_19
REMARK    6  A    between atoms: N_19  and  C_20
REMARK    7  A    between atoms: C_27  and  C_29
REMARK                            x       y       z     vdW  Elec       q    Type
REMARK                         _______ _______ _______ _____ _____    ______ ____
ROOT
ATOM      1  C   UNL     1      10.984   2.145  -0.457  0.00  0.00    +0.141 C 
ATOM      2  S   UNL     1      12.073   0.920  -0.950  0.00  0.00    -0.018 S 
ENDROOT
BRANCH   1   5
ATOM      3  C   UNL     1       9.187   0.714  -0.870  0.00  0.00    +0.242 C 
ATOM      4  O   UNL     1       9.961  -0.158  -1.220  0.00  0.00    -0.270 OA
ATOM      5  N   UNL     1       9.657   1.912  -0.469  0.00  0.00    -0.264 N 
ATOM      6  H   UNL     1       9.040   2.606  -0.190  0.00  0.00    +0.157 HD
BRANCH   3   8
ATOM      7  C   UNL     1       7.321  -0.739  -1.286  0.00  0.00    +0.051 C 
ATOM      8  C   UNL     1       7.795   0.469  -0.882  0.00  0.00    +0.071 C 
BRANCH   7  12
ATOM      9  C   UNL     1       3.762  -0.684  -1.077  0.00  0.00    +0.136 A 
ATOM     10  C   UNL     1       3.941  -1.967  -1.542  0.00  0.00    +0.050 A 
ATOM     11  C   UNL     1       5.317  -2.162  -1.684  0.00  0.00    +0.050 A 
ATOM     12  C   UNL     1       5.929  -0.984  -1.298  0.00  0.00    +0.129 A 
ATOM     13  O   UNL     1       4.969  -0.106  -0.942  0.00  0.00    -0.455 OA
BRANCH   9  17
ATOM     14  C   UNL     1       0.027   1.147  -0.229  0.00  0.00    +0.000 A 
ATOM     15  C   UNL     1       1.200   1.858  -0.044  0.00  0.00    +0.001 A 
ATOM     16  C   UNL     1       2.417   1.269  -0.318  0.00  0.00    +0.011 A 
ATOM     17  C   UNL     1       2.463  -0.048  -0.781  0.00  0.00    +0.017 A 
ATOM     18  C   UNL     1       1.276  -0.759  -0.965  0.00  0.00    +0.011 A 
ATOM     19  C   UNL     1       0.066  -0.158  -0.688  0.00  0.00    +0.001 A 
ENDBRANCH   9  17
ENDBRANCH   7  12
ENDBRANCH   3   8
ENDBRANCH   1   5
BRANCH   1  20
ATOM     20  N   UNL     1      11.454   3.343  -0.057  0.00  0.00    -0.297 N 
ATOM     21  H   UNL     1      10.836   4.057   0.164  0.00  0.00    +0.154 HD
BRANCH  20  22
ATOM     22  C   UNL     1      12.835   3.557   0.041  0.00  0.00    +0.035 A 
ATOM     23  C   UNL     1      13.675   3.139  -0.989  0.00  0.00    +0.027 A 
ATOM     24  C   UNL     1      15.036   3.343  -0.905  0.00  0.00    +0.050 A 
ATOM     25  C   UNL     1      15.576   3.969   0.208  0.00  0.00    +0.156 A 
ATOM     26  C   UNL     1      14.735   4.393   1.250  0.00  0.00    +0.112 A 
ATOM     27  C   UNL     1      13.357   4.186   1.155  0.00  0.00    +0.054 A 
ATOM     28  N   UNL     1      15.534   4.961   2.189  0.00  0.00    -0.209 NA
ATOM     29  C   UNL     1      16.774   4.901   1.778  0.00  0.00    +0.228 A 
ATOM     30  O   UNL     1      16.834   4.302   0.574  0.00  0.00    -0.435 OA
BRANCH  29  31
ATOM     31  C   UNL     1      17.941   5.418   2.527  0.00  0.00    +0.040 A 
ATOM     32  C   UNL     1      17.782   6.023   3.779  0.00  0.00    +0.033 A 
ATOM     33  C   UNL     1      18.898   6.490   4.443  0.00  0.00    +0.111 A 
ATOM     34  N   UNL     1      20.100   6.373   3.913  0.00  0.00    -0.263 NA
ATOM     35  C   UNL     1      20.294   5.809   2.736  0.00  0.00    +0.111 A 
ATOM     36  C   UNL     1      19.235   5.309   2.006  0.00  0.00    +0.033 A 
ENDBRANCH  29  31
ENDBRANCH  20  22
ENDBRANCH   1  20
TORSDOF 7
