REMARK  Name = ZINC12498170
REMARK  11 active torsions:
REMARK  status: ('A' for Active; 'I' for Inactive)
REMARK    1  A    between atoms: C_1  and  C_2
REMARK    2  A    between atoms: C_2  and  C_3
REMARK    3  A    between atoms: C_3  and  C_4
REMARK    4  A    between atoms: C_4  and  C_32
REMARK    5  A    between atoms: C_9  and  C_11
REMARK    6  A    between atoms: N_20  and  C_23
REMARK    7  A    between atoms: C_27  and  C_29
REMARK    8  A    between atoms: C_29  and  C_31
REMARK    9  A    between atoms: C_32  and  O_34
REMARK   10  A    between atoms: O_34  and  C_35
REMARK   11  A    between atoms: C_35  and  C_36
REMARK                            x       y       z     vdW  Elec       q    Type
REMARK                         _______ _______ _______ _____ _____    ______ ____
ROOT
ATOM      1  C   UNL     1      -2.950   1.481   2.564  0.00  0.00    +0.044 C 
ATOM      2  C   UNL     1      -4.374   1.094   2.607  0.00  0.00    +0.086 C 
ATOM      3  C   UNL     1      -4.936   2.102   3.690  0.00  0.00    +0.077 C 
ATOM      4  C   UNL     1      -4.354   3.382   3.094  0.00  0.00    -0.027 C 
ATOM      5  C   UNL     1      -6.386   1.768   3.473  0.00  0.00    +0.229 C 
ATOM      6  O   UNL     1      -7.330   2.528   3.524  0.00  0.00    -0.275 OA
ATOM      7  N   UNL     1      -6.417   0.428   3.207  0.00  0.00    -0.210 N 
ATOM      8  C   UNL     1      -5.184  -0.073   2.868  0.00  0.00    +0.229 C 
ATOM      9  O   UNL     1      -4.850  -1.236   2.803  0.00  0.00    -0.275 OA
ATOM     10  N   UNL     1      -3.044   2.974   2.519  0.00  0.00    +0.395 N 
ATOM     11  H   UNL     1      -2.977   3.296   1.547  0.00  0.00    -0.083 HD
ATOM     12  H   UNL     1      -2.281   3.386   3.070  0.00  0.00    -0.083 HD
ENDROOT
BRANCH   4  13
ATOM     13  C   UNL     1      -5.261   3.915   2.015  0.00  0.00    -0.058 A 
ATOM     14  C   UNL     1      -6.235   4.846   2.328  0.00  0.00    +0.002 A 
ATOM     15  C   UNL     1      -7.067   5.335   1.339  0.00  0.00    +0.003 A 
ATOM     16  C   UNL     1      -6.927   4.896   0.036  0.00  0.00    +0.038 A 
ATOM     17  C   UNL     1      -5.952   3.964  -0.279  0.00  0.00    +0.124 A 
ATOM     18  C   UNL     1      -5.115   3.479   0.712  0.00  0.00    +0.040 A 
ATOM     19  F   UNL     1      -5.814   3.534  -1.552  0.00  0.00    -0.205 F 
ENDBRANCH   4  13
BRANCH   7  20
ATOM     20  C   UNL     1      -7.581  -0.351   3.273  0.00  0.00    +0.045 A 
ATOM     21  C   UNL     1      -7.525  -1.710   2.987  0.00  0.00    +0.024 A 
ATOM     22  C   UNL     1      -8.669  -2.484   3.051  0.00  0.00    +0.003 A 
ATOM     23  C   UNL     1      -9.875  -1.913   3.399  0.00  0.00    +0.011 A 
ATOM     24  C   UNL     1      -9.944  -0.547   3.689  0.00  0.00    +0.019 A 
ATOM     25  C   UNL     1      -8.785   0.233   3.629  0.00  0.00    +0.035 A 
BRANCH  24  26
ATOM     26  C   UNL     1     -11.229   0.067   4.061  0.00  0.00    +0.160 C 
ATOM     27  O   UNL     1     -11.286   1.251   4.311  0.00  0.00    -0.292 OA
ATOM     28  C   UNL     1     -12.475  -0.778   4.129  0.00  0.00    +0.091 C 
ENDBRANCH  24  26
ENDBRANCH   7  20
BRANCH   1  29
ATOM     29  C   UNL     1      -2.231   1.024   3.807  0.00  0.00    +0.297 C 
ATOM     30  O   UNL     1      -2.619   0.048   4.405  0.00  0.00    -0.252 OA
BRANCH  29  31
ATOM     31  O   UNL     1      -1.159   1.699   4.249  0.00  0.00    -0.466 OA
BRANCH  31  32
ATOM     32  C   UNL     1      -0.515   1.201   5.452  0.00  0.00    +0.228 C 
ATOM     33  C   UNL     1       0.678   2.094   5.799  0.00  0.00    +0.048 C 
ENDBRANCH  31  32
ENDBRANCH  29  31
ENDBRANCH   1  29
BRANCH   1  34
ATOM     34  C   UNL     1      -2.271   0.931   1.309  0.00  0.00    -0.001 C 
BRANCH  34  36
ATOM     35  C   UNL     1      -0.141   0.862   0.005  0.00  0.00    +0.004 C 
ATOM     36  C   UNL     1      -0.820   1.412   1.261  0.00  0.00    -0.004 C 
ENDBRANCH  34  36
ENDBRANCH   1  34
TORSDOF 8
