REMARK  Name = ZINC39920456
REMARK  7 active torsions:
REMARK  status: ('A' for Active; 'I' for Inactive)
REMARK    1  A    between atoms: C_1  and  C_2
REMARK    2  A    between atoms: C_2  and  C_3
REMARK    3  A    between atoms: C_3  and  C_4
REMARK    4  A    between atoms: N_15  and  N_16
REMARK    5  A    between atoms: C_17  and  C_19
REMARK    6  A    between atoms: C_19  and  O_20
REMARK    7  A    between atoms: O_20  and  C_21
REMARK                            x       y       z     vdW  Elec       q    Type
REMARK                         _______ _______ _______ _____ _____    ______ ____
ROOT
ATOM      1  C   UNL     1       0.739  -2.027  -1.265  0.00  0.00    +0.180 C 
ATOM      2  N   UNL     1       1.442  -2.510  -0.071  0.00  0.00    -0.324 N 
ATOM      3  C   UNL     1       2.831  -2.431  -0.040  0.00  0.00    +0.041 A 
ATOM      4  C   UNL     1       3.530  -2.272   1.144  0.00  0.00    +0.025 A 
ATOM      5  C   UNL     1       4.909  -2.196   1.119  0.00  0.00    +0.017 A 
ATOM      6  C   UNL     1       5.598  -2.277  -0.082  0.00  0.00    +0.019 A 
ATOM      7  C   UNL     1       4.915  -2.437  -1.272  0.00  0.00    +0.030 A 
ATOM      8  C   UNL     1       3.525  -2.517  -1.260  0.00  0.00    +0.060 A 
ATOM      9  C   UNL     1       2.748  -2.696  -2.499  0.00  0.00    +0.266 C 
ATOM     10  O   UNL     1       3.302  -3.021  -3.531  0.00  0.00    -0.268 OA
ATOM     11  N   UNL     1       1.417  -2.496  -2.474  0.00  0.00    -0.196 N 
ATOM     12 BR   UNL     1       7.485  -2.167  -0.091  0.00  0.00    -0.050 Br
ATOM     13  H   UNL     1       0.950  -2.877   0.680  0.00  0.00    +0.148 HD
ENDROOT
BRANCH  11  14
ATOM     14  N   UNL     1       0.668  -2.741  -3.632  0.00  0.00    -0.227 N 
ATOM     15  C   UNL     1       0.714  -1.872  -4.661  0.00  0.00    +0.267 C 
ATOM     16  O   UNL     1       1.405  -0.878  -4.585  0.00  0.00    -0.271 OA
ATOM     17  H   UNL     1       0.115  -3.536  -3.692  0.00  0.00    +0.173 HD
BRANCH  15  18
ATOM     18  C   UNL     1      -0.092  -2.136  -5.907  0.00  0.00    +0.326 C 
BRANCH  18  19
ATOM     19  O   UNL     1       0.124  -1.081  -6.846  0.00  0.00    -0.481 OA
BRANCH  19  20
ATOM     20  C   UNL     1      -0.535  -1.166  -8.032  0.00  0.00    +0.140 A 
ATOM     21  C   UNL     1      -1.376  -2.240  -8.284  0.00  0.00    +0.048 A 
ATOM     22  C   UNL     1      -2.045  -2.325  -9.489  0.00  0.00    +0.023 A 
ATOM     23  C   UNL     1      -1.877  -1.339 -10.446  0.00  0.00    +0.043 A 
ATOM     24  C   UNL     1      -1.039  -0.267 -10.198  0.00  0.00    +0.043 A 
ATOM     25  C   UNL     1      -0.372  -0.175  -8.990  0.00  0.00    +0.084 A 
ATOM     26 CL   UNL     1       0.673   1.174  -8.675  0.00  0.00    -0.080 Cl
ATOM     27 CL   UNL     1      -2.718  -1.450 -11.961  0.00  0.00    -0.083 Cl
ENDBRANCH  19  20
ENDBRANCH  18  19
ENDBRANCH  15  18
ENDBRANCH  11  14
BRANCH   1  28
ATOM     28  C   UNL     1       0.718  -0.497  -1.257  0.00  0.00    +0.043 C 
BRANCH  28  30
ATOM     29  C   UNL     1      -0.019   1.526   0.010  0.00  0.00    +0.004 C 
ATOM     30  C   UNL     1       0.002  -0.004   0.002  0.00  0.00    +0.000 C 
ENDBRANCH  28  30
ENDBRANCH   1  28
TORSDOF 6
