REMARK  Name = ZINC13124016
REMARK  8 active torsions:
REMARK  status: ('A' for Active; 'I' for Inactive)
REMARK    1  A    between atoms: C_4  and  C_7
REMARK    2  A    between atoms: C_7  and  N_8
REMARK    3  A    between atoms: C_19  and  S_20
REMARK    4  A    between atoms: S_20  and  C_21
REMARK    5  A    between atoms: C_21  and  C_22
REMARK    6  A    between atoms: N_24  and  N_25
REMARK    7  A    between atoms: C_26  and  C_28
REMARK    8  A    between atoms: C_33  and  O_34
REMARK                            x       y       z     vdW  Elec       q    Type
REMARK                         _______ _______ _______ _____ _____    ______ ____
ROOT
ATOM      1  N   UNL     1       3.963  -0.733   1.449  0.00  0.00    -0.261 N 
ATOM      2  C   UNL     1       4.845   0.096   2.050  0.00  0.00    +0.123 C 
ATOM      3  C   UNL     1       5.283   1.401   1.552  0.00  0.00    +0.059 C 
ATOM      4  C   UNL     1       5.516   2.455   2.443  0.00  0.00    +0.015 C 
ATOM      5  C   UNL     1       5.927   3.679   1.968  0.00  0.00    +0.001 C 
ATOM      6  C   UNL     1       6.115   3.883   0.607  0.00  0.00    +0.004 C 
ATOM      7  C   UNL     1       5.893   2.864  -0.291  0.00  0.00    +0.051 C 
ATOM      8  C   UNL     1       5.480   1.607   0.166  0.00  0.00    +0.189 C 
ATOM      9  O   UNL     1       5.269   0.613  -0.698  0.00  0.00    -0.287 OA
ATOM     10  N   UNL     1       5.247  -0.494   3.187  0.00  0.00    -0.221 N 
ATOM     11  N   UNL     1       4.584  -1.725   3.279  0.00  0.00    -0.158 NA
ATOM     12  C   UNL     1       3.815  -1.848   2.231  0.00  0.00    +0.180 C 
ATOM     13  H   UNL     1       5.880  -0.134   3.827  0.00  0.00    +0.176 HD
ENDROOT
BRANCH   1  14
ATOM     14  C   UNL     1       3.277  -0.479   0.179  0.00  0.00    +0.149 C 
BRANCH  14  18
ATOM     15  C   UNL     1      -0.941  -0.339   0.841  0.00  0.00    +0.000 A 
ATOM     16  C   UNL     1      -0.168   0.785   1.068  0.00  0.00    +0.000 A 
ATOM     17  C   UNL     1       1.197   0.739   0.854  0.00  0.00    +0.005 A 
ATOM     18  C   UNL     1       1.789  -0.429   0.414  0.00  0.00    -0.030 A 
ATOM     19  C   UNL     1       1.016  -1.553   0.188  0.00  0.00    +0.005 A 
ATOM     20  C   UNL     1      -0.349  -1.508   0.401  0.00  0.00    +0.000 A 
ENDBRANCH  14  18
ENDBRANCH   1  14
BRANCH  12  21
ATOM     21  S   UNL     1       2.766  -3.219   1.880  0.00  0.00    -0.079 S 
BRANCH  21  22
ATOM     22  C   UNL     1       3.024  -4.340   3.283  0.00  0.00    +0.174 C 
BRANCH  22  23
ATOM     23  C   UNL     1       2.173  -5.571   3.105  0.00  0.00    +0.239 C 
ATOM     24  O   UNL     1       1.463  -5.682   2.128  0.00  0.00    -0.273 OA
ATOM     25  N   UNL     1       2.202  -6.549   4.032  0.00  0.00    -0.233 N 
ATOM     26  H   UNL     1       2.770  -6.461   4.813  0.00  0.00    +0.173 HD
BRANCH  25  27
ATOM     27  N   UNL     1       1.411  -7.694   3.866  0.00  0.00    -0.230 N 
ATOM     28  C   UNL     1       1.440  -8.672   4.793  0.00  0.00    +0.264 C 
ATOM     29  O   UNL     1       2.152  -8.561   5.772  0.00  0.00    -0.269 OA
ATOM     30  H   UNL     1       0.843  -7.782   3.085  0.00  0.00    +0.173 HD
BRANCH  28  31
ATOM     31  C   UNL     1       0.607  -9.878   4.619  0.00  0.00    +0.079 A 
ATOM     32  C   UNL     1      -0.208 -10.012   3.493  0.00  0.00    +0.017 A 
ATOM     33  C   UNL     1      -0.984 -11.140   3.336  0.00  0.00    +0.001 A 
ATOM     34  C   UNL     1      -0.959 -12.143   4.291  0.00  0.00    +0.004 A 
ATOM     35  C   UNL     1      -0.158 -12.023   5.409  0.00  0.00    +0.046 A 
ATOM     36  C   UNL     1       0.634 -10.897   5.580  0.00  0.00    +0.129 A 
BRANCH  36  37
ATOM     37  O   UNL     1       1.426 -10.781   6.675  0.00  0.00    -0.506 OA
ATOM     38  H   UNL     1       0.996 -10.354   7.428  0.00  0.00    +0.292 HD
ENDBRANCH  36  37
ENDBRANCH  28  31
ENDBRANCH  25  27
ENDBRANCH  22  23
ENDBRANCH  21  22
ENDBRANCH  12  21
TORSDOF 8
