REMARK  Name = ZINC15236605
REMARK  10 active torsions:
REMARK  status: ('A' for Active; 'I' for Inactive)
REMARK    1  A    between atoms: C_1  and  C_2
REMARK    2  A    between atoms: C_2  and  C_27
REMARK    3  A    between atoms: N_5  and  C_9
REMARK    4  A    between atoms: C_9  and  C_10
REMARK    5  A    between atoms: C_10  and  C_12
REMARK    6  A    between atoms: C_10  and  O_26
REMARK    7  A    between atoms: C_12  and  O_13
REMARK    8  A    between atoms: O_13  and  C_14
REMARK    9  A    between atoms: C_17  and  C_20
REMARK   10  A    between atoms: C_30  and  N_33
REMARK                            x       y       z     vdW  Elec       q    Type
REMARK                         _______ _______ _______ _____ _____    ______ ____
ROOT
ATOM      1  C   UNL     1       0.947   1.370  -5.607  0.00  0.00    +0.047 C 
ATOM      2  C   UNL     1       1.175   0.666  -4.268  0.00  0.00    +0.135 C 
ATOM      3  C   UNL     1       0.869   1.603  -3.116  0.00  0.00    +0.251 C 
ATOM      4  O   UNL     1       1.417   2.653  -2.861  0.00  0.00    -0.272 OA
ATOM      5  N   UNL     1      -0.139   1.023  -2.434  0.00  0.00    -0.221 N 
ATOM      6  C   UNL     1      -0.513  -0.133  -2.993  0.00  0.00    +0.310 C 
ATOM      7  O   UNL     1      -1.405  -0.836  -2.560  0.00  0.00    -0.252 OA
ATOM      8  N   UNL     1       0.209  -0.431  -4.088  0.00  0.00    -0.281 N 
ATOM      9  H   UNL     1       0.113  -1.216  -4.650  0.00  0.00    +0.152 HD
ENDROOT
BRANCH   2  10
ATOM     10  C   UNL     1       2.588   0.150  -4.176  0.00  0.00    -0.015 A 
ATOM     11  C   UNL     1       3.590   0.962  -3.679  0.00  0.00    +0.008 A 
ATOM     12  C   UNL     1       4.885   0.487  -3.591  0.00  0.00    +0.033 A 
ATOM     13  C   UNL     1       5.179  -0.798  -4.007  0.00  0.00    +0.126 A 
ATOM     14  C   UNL     1       4.178  -1.609  -4.508  0.00  0.00    +0.033 A 
ATOM     15  C   UNL     1       2.882  -1.135  -4.593  0.00  0.00    +0.008 A 
BRANCH  13  16
ATOM     16  N   UNL     1       6.567  -1.305  -3.917  0.00  0.00    +0.056 N 
ATOM     17  O   UNL     1       6.827  -2.437  -4.284  0.00  0.00    -0.126 OA
ATOM     18  O   UNL     1       7.449  -0.591  -3.475  0.00  0.00    -0.126 OA
ENDBRANCH  13  16
ENDBRANCH   2  10
BRANCH   5  19
ATOM     19  C   UNL     1      -0.753   1.593  -1.232  0.00  0.00    +0.152 C 
BRANCH  19  20
ATOM     20  C   UNL     1      -0.013   1.086   0.008  0.00  0.00    +0.170 C 
BRANCH  20  21
ATOM     21  O   UNL     1       1.328   1.580  -0.002  0.00  0.00    -0.387 OA
ATOM     22  H   UNL     1       1.391   2.545   0.002  0.00  0.00    +0.210 HD
ENDBRANCH  20  21
BRANCH  20  23
ATOM     23  C   UNL     1      -0.729   1.579   1.267  0.00  0.00    +0.261 C 
BRANCH  23  24
ATOM     24  O   UNL     1      -0.108   1.012   2.422  0.00  0.00    -0.489 OA
BRANCH  24  25
ATOM     25  C   UNL     1      -0.627   1.351   3.631  0.00  0.00    +0.121 A 
ATOM     26  C   UNL     1      -1.709   2.217   3.702  0.00  0.00    +0.046 A 
ATOM     27  C   UNL     1      -2.241   2.560   4.927  0.00  0.00    +0.012 A 
ATOM     28  C   UNL     1      -1.684   2.043   6.096  0.00  0.00    -0.018 A 
ATOM     29  C   UNL     1      -0.594   1.177   6.022  0.00  0.00    +0.012 A 
ATOM     30  C   UNL     1      -0.070   0.834   4.793  0.00  0.00    +0.046 A 
BRANCH  28  31
ATOM     31  C   UNL     1      -2.251   2.413   7.416  0.00  0.00    -0.018 A 
ATOM     32  C   UNL     1      -1.699   1.892   8.585  0.00  0.00    +0.008 A 
ATOM     33  C   UNL     1      -2.227   2.244   9.810  0.00  0.00    +0.001 A 
ATOM     34  C   UNL     1      -3.308   3.104   9.880  0.00  0.00    +0.000 A 
ATOM     35  C   UNL     1      -3.863   3.619   8.722  0.00  0.00    +0.001 A 
ATOM     36  C   UNL     1      -3.340   3.279   7.492  0.00  0.00    +0.008 A 
ENDBRANCH  28  31
ENDBRANCH  24  25
ENDBRANCH  23  24
ENDBRANCH  20  23
ENDBRANCH  19  20
ENDBRANCH   5  19
TORSDOF 9
