REMARK  Name = ZINC35656969
REMARK  7 active torsions:
REMARK  status: ('A' for Active; 'I' for Inactive)
REMARK    1  A    between atoms: C_1  and  C_2
REMARK    2  A    between atoms: C_3  and  C_8
REMARK    3  A    between atoms: N_5  and  C_7
REMARK    4  A    between atoms: C_19  and  O_34
REMARK    5  A    between atoms: C_23  and  C_33
REMARK    6  A    between atoms: C_28  and  C_32
REMARK    7  A    between atoms: C_29  and  O_31
REMARK                            x       y       z     vdW  Elec       q    Type
REMARK                         _______ _______ _______ _____ _____    ______ ____
ROOT
ATOM      1  C   UNL     1      -0.036  -0.322  -2.191  0.00  0.00    +0.013 C 
ATOM      2  C   UNL     1       0.031  -1.125  -3.243  0.00  0.00    -0.040 C 
ATOM      3  C   UNL     1       0.067  -0.700  -4.710  0.00  0.00    +0.037 C 
ATOM      4  C   UNL     1       0.077  -2.017  -5.492  0.00  0.00    +0.005 C 
ATOM      5  C   UNL     1       0.683  -1.961  -6.884  0.00  0.00    +0.001 C 
ATOM      6  C   UNL     1      -0.486  -1.725  -7.851  0.00  0.00    +0.031 C 
ATOM      7  C   UNL     1      -0.119  -2.025  -9.265  0.00  0.00    -0.027 C 
ATOM      8  C   UNL     1       0.839  -2.832  -9.607  0.00  0.00    -0.065 C 
ATOM      9  C   UNL     1       1.064  -3.089 -11.087  0.00  0.00    +0.062 C 
ATOM     10  C   UNL     1       1.069  -4.603 -11.317  0.00  0.00    +0.119 C 
ATOM     11  C   UNL     1       2.109  -5.259 -10.411  0.00  0.00    +0.032 C 
ATOM     12  C   UNL     1       1.766  -5.029  -8.942  0.00  0.00    +0.014 C 
ATOM     13  C   UNL     1       1.713  -3.535  -8.618  0.00  0.00    -0.008 C 
ATOM     14  C   UNL     1       1.350  -3.299  -7.174  0.00  0.00    +0.003 C 
ATOM     15  C   UNL     1       0.571  -4.438  -6.529  0.00  0.00    +0.005 C 
ATOM     16  C   UNL     1       0.752  -4.390  -5.001  0.00  0.00    +0.010 C 
ATOM     17  C   UNL     1       0.849  -2.955  -4.546  0.00  0.00    +0.001 C 
ATOM     18  C   UNL     1       0.096  -2.655  -3.225  0.00  0.00    +0.147 C 
ATOM     19  C   UNL     1       2.307  -2.527  -4.344  0.00  0.00    +0.014 C 
ATOM     20  C   UNL     1       3.136  -2.977  -8.798  0.00  0.00    +0.016 C 
ENDROOT
BRANCH   1  23
ATOM     21  C   UNL     1       0.585   1.309   0.455  0.00  0.00    +0.068 C 
ATOM     22  C   UNL     1       0.310  -0.170   0.358  0.00  0.00    +0.067 A 
ATOM     23  C   UNL     1       0.035  -0.885  -0.825  0.00  0.00    +0.015 A 
ATOM     24  C   UNL     1      -0.154  -2.194  -0.480  0.00  0.00    +0.116 A 
ATOM     25  N   UNL     1      -0.003  -2.288   0.857  0.00  0.00    -0.274 N 
ATOM     26  N   UNL     1       0.291  -1.013   1.356  0.00  0.00    -0.176 NA
ATOM     27  C   UNL     1      -0.122  -3.514   1.650  0.00  0.00    +0.172 C 
ENDBRANCH   1  23
BRANCH  18  28
ATOM     28  O   UNL     1      -1.218  -3.216  -3.260  0.00  0.00    -0.387 OA
ATOM     29  H   UNL     1      -1.772  -2.965  -2.508  0.00  0.00    +0.210 HD
ENDBRANCH  18  28
BRANCH  10  30
ATOM     30  O   UNL     1      -0.225  -5.136 -11.028  0.00  0.00    -0.391 OA
ATOM     31  H   UNL     1      -0.932  -4.768 -11.575  0.00  0.00    +0.210 HD
ENDBRANCH  10  30
TORSDOF 3
