REMARK  Name = ZINC23380999
REMARK  8 active torsions:
REMARK  status: ('A' for Active; 'I' for Inactive)
REMARK    1  A    between atoms: C_1  and  C_2
REMARK    2  A    between atoms: C_4  and  C_24
REMARK    3  A    between atoms: C_5  and  C_23
REMARK    4  A    between atoms: C_6  and  C_8
REMARK    5  A    between atoms: C_13  and  C_14
REMARK    6  A    between atoms: C_24  and  O_25
REMARK    7  A    between atoms: O_25  and  C_26
REMARK    8  A    between atoms: C_31  and  C_32
REMARK                            x       y       z     vdW  Elec       q    Type
REMARK                         _______ _______ _______ _____ _____    ______ ____
ROOT
ATOM      1  C   UNL     1       4.918  -0.037  -2.477  0.00  0.00    +0.044 C 
ATOM      2  C   UNL     1       4.263   0.357  -1.179  0.00  0.00    -0.049 A 
ATOM      3  C   UNL     1       4.859   0.024   0.025  0.00  0.00    +0.010 A 
ATOM      4  C   UNL     1       4.263   0.382   1.220  0.00  0.00    -0.007 A 
ATOM      5  C   UNL     1       3.072   1.079   1.220  0.00  0.00    -0.036 A 
ATOM      6  C   UNL     1       2.463   1.413   0.010  0.00  0.00    -0.013 A 
ATOM      7  C   UNL     1       3.069   1.049  -1.192  0.00  0.00    +0.012 A 
ATOM      8  C   UNL     1       2.427   1.474   2.523  0.00  0.00    +0.045 C 
ENDROOT
BRANCH   6   9
ATOM      9  C   UNL     1       1.182   2.156   0.002  0.00  0.00    +0.008 A 
ATOM     10  C   UNL     1       1.159   3.576  -0.006  0.00  0.00    -0.017 A 
ATOM     11  C   UNL     1      -0.087   4.159   0.010  0.00  0.00    +0.047 A 
ATOM     12  N   UNL     1      -1.208   3.445   0.028  0.00  0.00    -0.236 NA
ATOM     13  C   UNL     1      -1.234   2.129   0.031  0.00  0.00    +0.135 A 
ATOM     14  C   UNL     1      -0.017   1.428   0.010  0.00  0.00    +0.099 A 
ATOM     15  N   UNL     1      -2.437   1.447   0.056  0.00  0.00    -0.342 N 
ATOM     16  C   UNL     1      -0.288   5.658   0.010  0.00  0.00    +0.056 C 
ATOM     17  C   UNL     1      -0.092   6.175   1.438  0.00  0.00    +0.006 C 
ATOM     18  C   UNL     1       1.278   5.769   1.965  0.00  0.00    +0.000 C 
ATOM     19  C   UNL     1       2.252   6.463   1.041  0.00  0.00    +0.000 C 
ATOM     20  C   UNL     1       2.617   5.695  -0.214  0.00  0.00    +0.005 C 
ATOM     21  C   UNL     1       2.533   4.189  -0.019  0.00  0.00    +0.037 C 
ATOM     22  H   UNL     1      -2.447   0.347   0.059  0.00  0.00    +0.144 HD
ATOM     23  H   UNL     1      -3.385   2.005   0.074  0.00  0.00    +0.144 HD
BRANCH  14  24
ATOM     24  C   UNL     1       0.002  -0.004   0.002  0.00  0.00    +0.103 C 
ATOM     25  N   UNL     1       0.018  -1.140  -0.004  0.00  0.00    -0.191 NA
ENDBRANCH  14  24
ENDBRANCH   6   9
BRANCH   4  26
ATOM     26  C   UNL     1       4.918   0.015   2.527  0.00  0.00    +0.264 C 
BRANCH  26  27
ATOM     27  O   UNL     1       6.133  -0.693   2.268  0.00  0.00    -0.487 OA
BRANCH  27  28
ATOM     28  C   UNL     1       6.852  -1.099   3.347  0.00  0.00    +0.124 A 
ATOM     29  C   UNL     1       6.398  -0.822   4.629  0.00  0.00    +0.047 A 
ATOM     30  C   UNL     1       7.130  -1.236   5.724  0.00  0.00    +0.023 A 
ATOM     31  C   UNL     1       8.316  -1.927   5.544  0.00  0.00    +0.041 A 
ATOM     32  C   UNL     1       8.771  -2.203   4.267  0.00  0.00    +0.027 A 
ATOM     33  C   UNL     1       8.038  -1.796   3.169  0.00  0.00    -0.007 A 
ATOM     34  C   UNL     1       8.530  -2.103   1.778  0.00  0.00    +0.047 C 
ATOM     35 CL   UNL     1       9.235  -2.446   6.923  0.00  0.00    -0.084 Cl
ENDBRANCH  27  28
ENDBRANCH  26  27
ENDBRANCH   4  26
TORSDOF 5
