REMARK  Name = ZINC09123859
REMARK  3 active torsions:
REMARK  status: ('A' for Active; 'I' for Inactive)
REMARK    1  A    between atoms: C_4  and  C_7
REMARK    2  A    between atoms: C_7  and  C_8
REMARK    3  A    between atoms: C_8  and  N_9
REMARK                            x       y       z     vdW  Elec       q    Type
REMARK                         _______ _______ _______ _____ _____    ______ ____
ROOT
ATOM      1  N   UNL     1       5.450  -1.678   1.382  0.00  0.00    -0.224 N 
ATOM      2  C   UNL     1       5.443  -3.016   1.370  0.00  0.00    +0.241 C 
ATOM      3  O   UNL     1       4.378  -3.596   1.372  0.00  0.00    -0.274 OA
ATOM      4  C   UNL     1       6.714  -3.827   1.353  0.00  0.00    +0.150 C 
ATOM      5  C   UNL     1       6.765  -4.690   2.608  0.00  0.00    +0.072 C 
ATOM      6  C   UNL     1       6.955  -6.152   2.372  0.00  0.00    +0.057 A 
ATOM      7  C   UNL     1       7.517  -6.639   1.191  0.00  0.00    +0.109 A 
ATOM      8  N   UNL     1       7.732  -7.931   1.016  0.00  0.00    -0.329 N 
ATOM      9  C   UNL     1       7.378  -8.810   1.954  0.00  0.00    +0.119 A 
ATOM     10  C   UNL     1       7.618 -10.181   1.743  0.00  0.00    +0.045 A 
ATOM     11  C   UNL     1       7.237 -11.080   2.692  0.00  0.00    +0.005 A 
ATOM     12  C   UNL     1       6.616 -10.626   3.865  0.00  0.00    +0.018 A 
ATOM     13  C   UNL     1       6.402  -9.306   4.053  0.00  0.00    +0.096 A 
ATOM     14  N   UNL     1       6.785  -8.395   3.113  0.00  0.00    -0.269 N 
ATOM     15  C   UNL     1       6.576  -7.081   3.343  0.00  0.00    +0.263 A 
ATOM     16  O   UNL     1       6.062  -6.709   4.387  0.00  0.00    -0.267 OA
ATOM     17  N   UNL     1       7.770  -5.696   0.202  0.00  0.00    -0.307 N 
ATOM     18  C   UNL     1       6.738  -4.672   0.078  0.00  0.00    +0.129 C 
ATOM     19  C   UNL     1       6.903  -3.814  -1.136  0.00  0.00    -0.022 A 
ATOM     20  C   UNL     1       6.066  -2.715  -1.283  0.00  0.00    +0.006 A 
ATOM     21  C   UNL     1       6.182  -1.884  -2.378  0.00  0.00    +0.000 A 
ATOM     22  C   UNL     1       7.142  -2.144  -3.339  0.00  0.00    +0.000 A 
ATOM     23  C   UNL     1       7.972  -3.237  -3.198  0.00  0.00    +0.004 A 
ATOM     24  C   UNL     1       7.851  -4.079  -2.100  0.00  0.00    -0.041 A 
ATOM     25  C   UNL     1       8.761  -5.270  -2.018  0.00  0.00    +0.054 C 
ATOM     26  C   UNL     1       8.976  -5.736  -0.592  0.00  0.00    +0.112 C 
ATOM     27  C   UNL     1       7.909  -2.909   1.344  0.00  0.00    +0.238 C 
ATOM     28  O   UNL     1       9.020  -3.394   1.323  0.00  0.00    -0.274 OA
ATOM     29  N   UNL     1       7.786  -1.576   1.359  0.00  0.00    -0.239 N 
ATOM     30  C   UNL     1       6.590  -0.971   1.373  0.00  0.00    +0.315 C 
ATOM     31  O   UNL     1       6.537   0.243   1.384  0.00  0.00    -0.252 OA
ATOM     32  H   UNL     1       8.588  -1.031   1.355  0.00  0.00    +0.159 HD
ATOM     33  H   UNL     1       8.151  -8.242   0.198  0.00  0.00    +0.168 HD
ENDROOT
BRANCH   1  34
ATOM     34  C   UNL     1       4.171  -0.963   1.399  0.00  0.00    +0.122 C 
BRANCH  34  35
ATOM     35  C   UNL     1       3.711  -0.707  -0.038  0.00  0.00    +0.054 C 
BRANCH  35  39
ATOM     36  C   UNL     1      -0.017   1.378   0.010  0.00  0.00    +0.000 A 
ATOM     37  C   UNL     1       1.171   2.086   0.002  0.00  0.00    +0.000 A 
ATOM     38  C   UNL     1       2.377   1.411  -0.013  0.00  0.00    +0.004 A 
ATOM     39  C   UNL     1       2.396   0.029  -0.020  0.00  0.00    -0.046 A 
ATOM     40  C   UNL     1       1.208  -0.679  -0.012  0.00  0.00    +0.004 A 
ATOM     41  C   UNL     1       0.002  -0.004   0.002  0.00  0.00    +0.000 A 
ENDBRANCH  35  39
ENDBRANCH  34  35
ENDBRANCH   1  34
TORSDOF 3
