REMARK  Name = ZINC59382617
REMARK  7 active torsions:
REMARK  status: ('A' for Active; 'I' for Inactive)
REMARK    1  A    between atoms: C_4  and  C_7
REMARK    2  A    between atoms: C_7  and  C_9
REMARK    3  A    between atoms: C_7  and  O_27
REMARK    4  A    between atoms: C_9  and  C_21
REMARK    5  A    between atoms: N_10  and  N_11
REMARK    6  A    between atoms: C_12  and  C_14
REMARK    7  A    between atoms: C_19  and  O_20
REMARK                            x       y       z     vdW  Elec       q    Type
REMARK                         _______ _______ _______ _____ _____    ______ ____
ROOT
ATOM      1  C   UNL     1       3.970  -1.465  -1.345  0.00  0.00    +0.099 C 
ATOM      2  N   UNL     1       4.620  -0.628  -2.095  0.00  0.00    -0.181 NA
ENDROOT
BRANCH   1   3
ATOM      3  C   UNL     1       2.810  -2.195  -1.889  0.00  0.00    +0.001 A 
ATOM      4  C   UNL     1       1.764  -2.578  -1.047  0.00  0.00    +0.010 A 
ATOM      5  C   UNL     1       0.681  -3.259  -1.562  0.00  0.00    +0.001 A 
ATOM      6  C   UNL     1       0.630  -3.564  -2.911  0.00  0.00    +0.000 A 
ATOM      7  C   UNL     1       1.663  -3.188  -3.752  0.00  0.00    +0.001 A 
ATOM      8  C   UNL     1       2.749  -2.501  -3.251  0.00  0.00    +0.010 A 
ENDBRANCH   1   3
BRANCH   2   9
ATOM      9  N   UNL     1       5.534   0.264  -1.519  0.00  0.00    -0.203 N 
ATOM     10  C   UNL     1       6.295   1.050  -2.306  0.00  0.00    +0.267 C 
ATOM     11  O   UNL     1       6.190   0.984  -3.516  0.00  0.00    -0.268 OA
ATOM     12  H   UNL     1       5.618   0.317  -0.554  0.00  0.00    +0.178 HD
BRANCH  10  13
ATOM     13  C   UNL     1       7.257   1.989  -1.700  0.00  0.00    +0.080 A 
ATOM     14  C   UNL     1       7.386   2.064  -0.310  0.00  0.00    +0.017 A 
ATOM     15  C   UNL     1       8.286   2.944   0.250  0.00  0.00    +0.001 A 
ATOM     16  C   UNL     1       9.066   3.756  -0.559  0.00  0.00    +0.004 A 
ATOM     17  C   UNL     1       8.949   3.692  -1.933  0.00  0.00    +0.046 A 
ATOM     18  C   UNL     1       8.052   2.808  -2.514  0.00  0.00    +0.129 A 
BRANCH  18  19
ATOM     19  O   UNL     1       7.940   2.740  -3.864  0.00  0.00    -0.506 OA
ATOM     20  H   UNL     1       7.284   3.346  -4.236  0.00  0.00    +0.292 HD
ENDBRANCH  18  19
ENDBRANCH  10  13
ENDBRANCH   2   9
BRANCH   1  21
ATOM     21  C   UNL     1       4.402  -1.692   0.081  0.00  0.00    +0.195 C 
BRANCH  21  25
ATOM     22  C   UNL     1       4.219  -5.864   0.976  0.00  0.00    +0.000 A 
ATOM     23  C   UNL     1       3.298  -4.997   1.534  0.00  0.00    +0.000 A 
ATOM     24  C   UNL     1       3.357  -3.647   1.244  0.00  0.00    +0.006 A 
ATOM     25  C   UNL     1       4.338  -3.163   0.397  0.00  0.00    -0.013 A 
ATOM     26  C   UNL     1       5.259  -4.031  -0.159  0.00  0.00    +0.006 A 
ATOM     27  C   UNL     1       5.199  -5.381   0.129  0.00  0.00    +0.000 A 
ENDBRANCH  21  25
BRANCH  21  28
ATOM     28  O   UNL     1       5.741  -1.225   0.253  0.00  0.00    -0.381 OA
ATOM     29  H   UNL     1       6.367  -1.579  -0.393  0.00  0.00    +0.211 HD
ENDBRANCH  21  28
ENDBRANCH   1  21
TORSDOF 7
