REMARK  Name = ZINC45899024
REMARK  12 active torsions:
REMARK  status: ('A' for Active; 'I' for Inactive)
REMARK    1  A    between atoms: C_1  and  C_2
REMARK    2  A    between atoms: C_2  and  C_3
REMARK    3  A    between atoms: C_8  and  N_9
REMARK    4  A    between atoms: C_10  and  C_12
REMARK    5  A    between atoms: C_12  and  N_13
REMARK    6  A    between atoms: N_22  and  C_25
REMARK    7  A    between atoms: C_25  and  C_26
REMARK    8  A    between atoms: C_26  and  C_27
REMARK    9  A    between atoms: C_27  and  C_28
REMARK   10  A    between atoms: C_28  and  C_29
REMARK   11  A    between atoms: N_31  and  C_32
REMARK   12  A    between atoms: C_32  and  C_33
REMARK                            x       y       z     vdW  Elec       q    Type
REMARK                         _______ _______ _______ _____ _____    ______ ____
ROOT
ATOM      1  N   UNL     1       6.362  -0.515   0.938  0.00  0.00    -0.284 N 
ATOM      2  C   UNL     1       6.843  -1.796   1.166  0.00  0.00    +0.059 A 
ATOM      3  C   UNL     1       6.014  -2.813   1.615  0.00  0.00    +0.027 A 
ATOM      4  C   UNL     1       6.532  -4.075   1.830  0.00  0.00    +0.002 A 
ATOM      5  C   UNL     1       7.875  -4.335   1.603  0.00  0.00    +0.001 A 
ATOM      6  C   UNL     1       8.715  -3.336   1.157  0.00  0.00    +0.015 A 
ATOM      7  C   UNL     1       8.204  -2.059   0.935  0.00  0.00    +0.063 A 
ATOM      8  C   UNL     1       9.057  -0.955   0.460  0.00  0.00    +0.264 A 
ATOM      9  O   UNL     1      10.241  -1.130   0.244  0.00  0.00    -0.267 OA
ATOM     10  N   UNL     1       8.489   0.256   0.269  0.00  0.00    -0.260 N 
ATOM     11  C   UNL     1       7.182   0.456   0.499  0.00  0.00    +0.333 A 
ATOM     12  O   UNL     1       6.720   1.564   0.306  0.00  0.00    -0.246 OA
ENDROOT
BRANCH   1  13
ATOM     13  C   UNL     1       4.947  -0.219   1.171  0.00  0.00    +0.222 C 
BRANCH  13  15
ATOM     14  N   UNL     1       2.833  -0.268  -0.113  0.00  0.00    -0.284 N 
ATOM     15  C   UNL     1       4.165  -0.474  -0.091  0.00  0.00    +0.237 C 
ATOM     16  O   UNL     1       4.734  -0.865  -1.088  0.00  0.00    -0.274 OA
ATOM     17  H   UNL     1       2.388   0.106   0.663  0.00  0.00    +0.155 HD
BRANCH  14  23
ATOM     18  C   UNL     1       0.800  -1.084  -1.129  0.00  0.00    -0.026 A 
ATOM     19  C   UNL     1       0.070  -1.399  -2.258  0.00  0.00    +0.005 A 
ATOM     20  C   UNL     1       0.627  -1.234  -3.513  0.00  0.00    +0.000 A 
ATOM     21  C   UNL     1       1.917  -0.751  -3.641  0.00  0.00    +0.002 A 
ATOM     22  C   UNL     1       2.652  -0.433  -2.516  0.00  0.00    +0.023 A 
ATOM     23  C   UNL     1       2.093  -0.594  -1.255  0.00  0.00    +0.037 A 
BRANCH  18  25
ATOM     24  C   UNL     1      -0.422   0.058   0.702  0.00  0.00    +0.009 C 
ATOM     25  C   UNL     1       0.191  -1.265   0.238  0.00  0.00    +0.033 C 
ENDBRANCH  18  25
ENDBRANCH  14  23
ENDBRANCH  13  15
ENDBRANCH   1  13
BRANCH  10  26
ATOM     26  C   UNL     1       9.314   1.370  -0.203  0.00  0.00    +0.130 C 
BRANCH  26  27
ATOM     27  C   UNL     1       9.302   1.402  -1.733  0.00  0.00    +0.022 C 
BRANCH  27  28
ATOM     28  C   UNL     1      10.164   2.566  -2.226  0.00  0.00    +0.011 C 
BRANCH  28  29
ATOM     29  C   UNL     1      10.151   2.598  -3.755  0.00  0.00    +0.096 C 
BRANCH  29  30
ATOM     30  C   UNL     1      11.001   3.744  -4.241  0.00  0.00    +0.213 C 
ATOM     31  O   UNL     1      11.561   4.465  -3.442  0.00  0.00    -0.276 OA
ATOM     32  N   UNL     1      11.137   3.969  -5.563  0.00  0.00    -0.311 N 
ATOM     33  H   UNL     1      10.690   3.392  -6.202  0.00  0.00    +0.149 HD
BRANCH  32  34
ATOM     34  C   UNL     1      11.963   5.083  -6.035  0.00  0.00    +0.146 C 
BRANCH  34  35
ATOM     35  C   UNL     1      11.951   5.114  -7.541  0.00  0.00    +0.007 A 
ATOM     36  C   UNL     1      11.105   5.769  -8.374  0.00  0.00    +0.013 A 
ATOM     37  C   UNL     1      11.286   5.652  -9.740  0.00  0.00    +0.008 A 
ATOM     38  C   UNL     1      12.304   4.887 -10.205  0.00  0.00    +0.045 A 
ATOM     39  S   UNL     1      13.051   4.306  -8.692  0.00  0.00    -0.100 S 
ENDBRANCH  34  35
ENDBRANCH  32  34
ENDBRANCH  29  30
ENDBRANCH  28  29
ENDBRANCH  27  28
ENDBRANCH  26  27
ENDBRANCH  10  26
TORSDOF 11
