REMARK  Name = ZINC43668999
REMARK  5 active torsions:
REMARK  status: ('A' for Active; 'I' for Inactive)
REMARK    1  A    between atoms: C_1  and  C_2
REMARK    2  A    between atoms: C_4  and  N_21
REMARK    3  A    between atoms: N_5  and  C_7
REMARK    4  A    between atoms: C_7  and  C_9
REMARK    5  A    between atoms: C_7  and  C_10
REMARK                            x       y       z     vdW  Elec       q    Type
REMARK                         _______ _______ _______ _____ _____    ______ ____
ROOT
ATOM      1  C   UNL     1       0.054  -3.291   1.500  0.00  0.00    +0.136 C 
ATOM      2  C   UNL     1       1.308  -3.259   2.377  0.00  0.00    +0.038 C 
ENDROOT
BRANCH   1   3
ATOM      3  C   UNL     1      -1.172  -3.292   2.376  0.00  0.00    -0.020 A 
ATOM      4  C   UNL     1      -1.402  -2.240   3.242  0.00  0.00    +0.009 A 
ATOM      5  C   UNL     1      -2.525  -2.234   4.049  0.00  0.00    +0.050 A 
ATOM      6  C   UNL     1      -3.421  -3.288   3.985  0.00  0.00    +0.162 A 
ATOM      7  C   UNL     1      -3.191  -4.345   3.116  0.00  0.00    +0.162 A 
ATOM      8  C   UNL     1      -2.067  -4.345   2.306  0.00  0.00    +0.055 A 
ATOM      9  O   UNL     1      -4.080  -5.378   3.060  0.00  0.00    -0.488 OA
ATOM     10  C   UNL     1      -4.146  -6.210   4.220  0.00  0.00    +0.232 C 
ATOM     11  C   UNL     1      -5.078  -5.611   5.261  0.00  0.00    +0.082 C 
ATOM     12  C   UNL     1      -4.565  -4.286   5.803  0.00  0.00    +0.232 C 
ATOM     13  O   UNL     1      -4.534  -3.295   4.774  0.00  0.00    -0.488 OA
ENDBRANCH   1   3
BRANCH   1  18
ATOM     14  C   UNL     1      -0.018   1.503   0.010  0.00  0.00    +0.068 C 
ATOM     15  C   UNL     1       0.002  -0.004   0.002  0.00  0.00    +0.075 A 
ATOM     16  C   UNL     1       0.008  -0.815  -1.136  0.00  0.00    +0.075 A 
ATOM     17  C   UNL     1       0.028  -2.113  -0.724  0.00  0.00    +0.129 A 
ATOM     18  N   UNL     1       0.034  -2.109   0.634  0.00  0.00    -0.243 N 
ATOM     19  N   UNL     1       0.023  -0.775   1.059  0.00  0.00    -0.173 NA
ATOM     20  I   UNL     1      -0.011  -0.152  -3.124  0.00  0.00    -0.038 I 
BRANCH  17  21
ATOM     21  N   UNL     1       0.040  -3.238  -1.545  0.00  0.00    -0.342 N 
ATOM     22  H   UNL     1       0.034  -3.135  -2.509  0.00  0.00    +0.144 HD
ATOM     23  H   UNL     1       0.053  -4.125  -1.152  0.00  0.00    +0.144 HD
ENDBRANCH  17  21
ENDBRANCH   1  18
TORSDOF 3
