REMARK  Name = ZINC09604818
REMARK  5 active torsions:
REMARK  status: ('A' for Active; 'I' for Inactive)
REMARK    1  A    between atoms: C_7  and  C_11
REMARK    2  A    between atoms: C_11  and  O_13
REMARK    3  A    between atoms: O_13  and  C_14
REMARK    4  A    between atoms: C_14  and  C_15
REMARK    5  A    between atoms: C_21  and  C_26
REMARK                            x       y       z     vdW  Elec       q    Type
REMARK                         _______ _______ _______ _____ _____    ______ ____
ROOT
ATOM      1  C   UNL     1       1.189  -6.894  -0.048  0.00  0.00    +0.149 A 
ATOM      2  N   UNL     1       0.523  -8.077  -0.053  0.00  0.00    -0.308 N 
ATOM      3  H   UNL     1      -0.447  -8.077  -0.048  0.00  0.00    +0.170 HD
ATOM      4  C   UNL     1       1.182  -9.251  -0.067  0.00  0.00    +0.261 A 
ATOM      5  O   UNL     1       0.569 -10.304  -0.073  0.00  0.00    -0.267 OA
ATOM      6  C   UNL     1       2.613  -9.243  -0.075  0.00  0.00    +0.083 A 
ATOM      7  C   UNL     1       3.542 -10.367  -0.090  0.00  0.00    +0.039 A 
ATOM      8  C   UNL     1       4.875 -10.111  -0.096  0.00  0.00    +0.059 A 
ATOM      9  S   UNL     1       4.952  -8.330  -0.081  0.00  0.00    -0.076 S 
ATOM     10  C   UNL     1       3.215  -7.974  -0.068  0.00  0.00    +0.116 A 
ATOM     11  N   UNL     1       2.495  -6.854  -0.060  0.00  0.00    -0.223 NA
ENDROOT
BRANCH   7  12
ATOM     12  C   UNL     1       3.043 -11.757  -0.099  0.00  0.00    +0.136 A 
ATOM     13  C   UNL     1       3.437 -12.742  -0.950  0.00  0.00    +0.050 A 
ATOM     14  C   UNL     1       2.707 -13.897  -0.601  0.00  0.00    +0.042 A 
ATOM     15  C   UNL     1       1.912 -13.563   0.433  0.00  0.00    +0.196 A 
ATOM     16  O   UNL     1       2.121 -12.271   0.738  0.00  0.00    -0.463 OA
ENDBRANCH   7  12
BRANCH   1  17
ATOM     17  C   UNL     1       0.409  -5.605  -0.033  0.00  0.00    +0.306 C 
BRANCH  17  18
ATOM     18  O   UNL     1       1.315  -4.500  -0.035  0.00  0.00    -0.452 OA
BRANCH  18  19
ATOM     19  C   UNL     1       0.775  -3.265  -0.023  0.00  0.00    +0.360 C 
ATOM     20  O   UNL     1      -0.433  -3.131  -0.011  0.00  0.00    -0.243 OA
BRANCH  19  27
ATOM     21  C   UNL     1      -0.017   1.363   0.009  0.00  0.00    +0.001 A 
ATOM     22  C   UNL     1       1.170   2.085   0.002  0.00  0.00    +0.002 A 
ATOM     23  C   UNL     1       2.379   1.447  -0.013  0.00  0.00    +0.028 A 
ATOM     24  C   UNL     1       2.427   0.057  -0.021  0.00  0.00    +0.067 A 
ATOM     25  C   UNL     1       1.222  -0.673  -0.013  0.00  0.00    +0.034 A 
ATOM     26  C   UNL     1       0.002  -0.004   0.002  0.00  0.00    +0.012 A 
ATOM     27  C   UNL     1       1.647  -2.079  -0.025  0.00  0.00    +0.177 A 
ATOM     28  N   UNL     1       2.964  -2.068  -0.038  0.00  0.00    -0.166 NA
ATOM     29  N   UNL     1       3.434  -0.874  -0.036  0.00  0.00    -0.276 N 
ATOM     30  H   UNL     1       4.379  -0.657  -0.044  0.00  0.00    +0.189 HD
ENDBRANCH  19  27
ENDBRANCH  18  19
ENDBRANCH  17  18
ENDBRANCH   1  17
TORSDOF 5
