REMARK  Name = ZINC02128984
REMARK  9 active torsions:
REMARK  status: ('A' for Active; 'I' for Inactive)
REMARK    1  A    between atoms: C_1  and  C_2
REMARK    2  A    between atoms: C_7  and  C_8
REMARK    3  A    between atoms: C_17  and  C_19
REMARK    4  A    between atoms: C_19  and  C_20
REMARK    5  A    between atoms: C_19  and  C_21
REMARK    6  A    between atoms: N_24  and  C_27
REMARK    7  A    between atoms: C_27  and  C_28
REMARK    8  A    between atoms: C_31  and  O_34
REMARK    9  A    between atoms: O_34  and  C_35
REMARK                            x       y       z     vdW  Elec       q    Type
REMARK                         _______ _______ _______ _____ _____    ______ ____
ROOT
ATOM      1  C   UNL     1       6.317  -1.706  -1.587  0.00  0.00    +0.044 C 
ATOM      2  C   UNL     1       5.211  -0.691  -1.463  0.00  0.00    -0.046 A 
ATOM      3  C   UNL     1       5.352   0.378  -0.596  0.00  0.00    +0.004 A 
ATOM      4  C   UNL     1       4.336   1.310  -0.482  0.00  0.00    +0.005 A 
ATOM      5  C   UNL     1       3.188   1.174  -1.231  0.00  0.00    -0.027 A 
ATOM      6  C   UNL     1       3.036   0.103  -2.106  0.00  0.00    +0.039 A 
ATOM      7  C   UNL     1       4.063  -0.831  -2.215  0.00  0.00    -0.026 A 
ATOM      8  C   UNL     1       3.921  -1.999  -3.157  0.00  0.00    +0.046 C 
ATOM      9  N   UNL     1       1.798   0.178  -2.750  0.00  0.00    -0.286 N 
ATOM     10  C   UNL     1       1.087   1.253  -2.359  0.00  0.00    +0.211 C 
ATOM     11  O   UNL     1      -0.017   1.572  -2.748  0.00  0.00    -0.277 OA
ATOM     12  C   UNL     1       1.927   1.983  -1.347  0.00  0.00    +0.050 C 
ATOM     13  C   UNL     1       1.208   2.098   0.002  0.00  0.00    +0.088 C 
ATOM     14  C   UNL     1       0.607   3.532   0.005  0.00  0.00    +0.073 C 
ATOM     15  C   UNL     1       1.004   4.129  -1.362  0.00  0.00    -0.055 C 
ATOM     16  C   UNL     1      -0.885   3.284   0.024  0.00  0.00    +0.224 C 
ATOM     17  O   UNL     1      -1.738   4.145   0.036  0.00  0.00    -0.275 OA
ATOM     18  N   UNL     1      -1.117   1.966   0.017  0.00  0.00    -0.237 N 
ATOM     19  C   UNL     1      -0.014   1.208   0.009  0.00  0.00    +0.225 C 
ATOM     20  O   UNL     1       0.002  -0.004   0.002  0.00  0.00    -0.275 OA
ATOM     21  H   UNL     1       1.487  -0.469  -3.401  0.00  0.00    +0.155 HD
ATOM     22  N   UNL     1       2.180   3.352  -1.759  0.00  0.00    +0.394 N 
ATOM     23  H   UNL     1       2.309   3.399  -2.777  0.00  0.00    -0.083 HD
ATOM     24  H   UNL     1       3.019   3.715  -1.291  0.00  0.00    -0.083 HD
ENDROOT
BRANCH  15  25
ATOM     25  C   UNL     1       1.339   5.615  -1.216  0.00  0.00    -0.031 C 
ATOM     26  C   UNL     1       1.804   6.168  -2.565  0.00  0.00    +0.005 C 
ATOM     27  C   UNL     1       0.095   6.376  -0.754  0.00  0.00    +0.005 C 
ENDBRANCH  15  25
BRANCH  18  28
ATOM     28  C   UNL     1      -2.468   1.400   0.024  0.00  0.00    +0.151 C 
BRANCH  28  29
ATOM     29  C   UNL     1      -2.922   1.202   1.447  0.00  0.00    -0.029 A 
ATOM     30  C   UNL     1      -2.672   0.004   2.091  0.00  0.00    +0.009 A 
ATOM     31  C   UNL     1      -3.083  -0.178   3.398  0.00  0.00    +0.046 A 
ATOM     32  C   UNL     1      -3.757   0.838   4.060  0.00  0.00    +0.120 A 
ATOM     33  C   UNL     1      -4.011   2.037   3.409  0.00  0.00    +0.046 A 
ATOM     34  C   UNL     1      -3.594   2.216   2.105  0.00  0.00    +0.009 A 
BRANCH  32  35
ATOM     35  O   UNL     1      -4.166   0.660   5.343  0.00  0.00    -0.495 OA
ATOM     36  C   UNL     1      -3.869  -0.599   5.950  0.00  0.00    +0.277 C 
ENDBRANCH  32  35
ENDBRANCH  28  29
ENDBRANCH  18  28
TORSDOF 4
