REMARK  Name = ZINC21224069
REMARK  10 active torsions:
REMARK  status: ('A' for Active; 'I' for Inactive)
REMARK    1  A    between atoms: C_1  and  C_2
REMARK    2  A    between atoms: C_2  and  C_3
REMARK    3  A    between atoms: C_2  and  O_4
REMARK    4  A    between atoms: O_4  and  C_5
REMARK    5  A    between atoms: C_8  and  C_11
REMARK    6  A    between atoms: C_16  and  C_26
REMARK    7  A    between atoms: C_29  and  O_34
REMARK    8  A    between atoms: C_31  and  O_32
REMARK    9  A    between atoms: O_32  and  C_33
REMARK   10  A    between atoms: O_34  and  C_35
REMARK                            x       y       z     vdW  Elec       q    Type
REMARK                         _______ _______ _______ _____ _____    ______ ____
ROOT
ATOM      1  C   UNL     1       3.593   5.669  -3.766  0.00  0.00    +0.032 C 
ATOM      2  C   UNL     1       4.005   4.208  -3.598  0.00  0.00    +0.059 C 
ATOM      3  C   UNL     1       3.795   3.773  -2.156  0.00  0.00    +0.017 C 
ATOM      4  C   UNL     1       2.793   4.290  -1.428  0.00  0.00    +0.037 C 
ATOM      5  C   UNL     1       2.457   3.931  -0.000  0.00  0.00    +0.139 C 
ATOM      6  N   UNL     1       3.468   3.144   0.673  0.00  0.00    -0.331 N 
ATOM      7  C   UNL     1       3.782   1.855   0.246  0.00  0.00    +0.049 A 
ATOM      8  C   UNL     1       3.483   0.745   1.019  0.00  0.00    +0.025 A 
ATOM      9  C   UNL     1       3.714  -0.521   0.509  0.00  0.00    +0.002 A 
ATOM     10  C   UNL     1       4.239  -0.679  -0.761  0.00  0.00    +0.002 A 
ATOM     11  C   UNL     1       4.558   0.429  -1.528  0.00  0.00    +0.025 A 
ATOM     12  C   UNL     1       4.344   1.695  -1.012  0.00  0.00    +0.052 A 
ATOM     13  N   UNL     1       4.683   2.849  -1.709  0.00  0.00    -0.316 N 
ATOM     14  C   UNL     1       1.938   5.269  -1.988  0.00  0.00    +0.163 C 
ATOM     15  O   UNL     1       1.029   5.709  -1.311  0.00  0.00    -0.292 OA
ATOM     16  C   UNL     1       2.112   5.783  -3.385  0.00  0.00    +0.088 C 
ATOM     17  H   UNL     1       4.005   3.562   1.538  0.00  0.00    +0.147 HD
ATOM     18  H   UNL     1       5.759   2.987  -1.892  0.00  0.00    +0.152 HD
ENDROOT
BRANCH   1  22
ATOM     19  C   UNL     1       4.140   6.870  -7.830  0.00  0.00    +0.121 A 
ATOM     20  C   UNL     1       4.795   7.547  -6.812  0.00  0.00    +0.046 A 
ATOM     21  C   UNL     1       4.617   7.157  -5.499  0.00  0.00    +0.007 A 
ATOM     22  C   UNL     1       3.786   6.093  -5.199  0.00  0.00    -0.043 A 
ATOM     23  C   UNL     1       3.137   5.413  -6.213  0.00  0.00    +0.007 A 
ATOM     24  C   UNL     1       3.308   5.803  -7.527  0.00  0.00    +0.046 A 
BRANCH  19  25
ATOM     25  O   UNL     1       4.314   7.252  -9.123  0.00  0.00    -0.489 OA
BRANCH  25  27
ATOM     26  C   UNL     1       5.792   8.158 -10.807  0.00  0.00    +0.051 C 
ATOM     27  C   UNL     1       5.276   8.280  -9.372  0.00  0.00    +0.167 C 
ATOM     28  C   UNL     1       4.620   9.649  -9.181  0.00  0.00    +0.051 C 
ENDBRANCH  25  27
ENDBRANCH  19  25
ENDBRANCH   1  22
BRANCH   5  29
ATOM     29  C   UNL     1       1.165   3.155   0.006  0.00  0.00    +0.019 A 
ATOM     30  C   UNL     1       0.695   2.588  -1.163  0.00  0.00    +0.013 A 
ATOM     31  C   UNL     1      -0.489   1.876  -1.161  0.00  0.00    +0.046 A 
ATOM     32  C   UNL     1      -1.212   1.733   0.015  0.00  0.00    +0.124 A 
ATOM     33  C   UNL     1      -0.740   2.296   1.190  0.00  0.00    +0.091 A 
ATOM     34  C   UNL     1       0.449   3.010   1.185  0.00  0.00    +0.129 A 
BRANCH  34  35
ATOM     35  O   UNL     1       0.912   3.568   2.335  0.00  0.00    -0.495 OA
ATOM     36  C   UNL     1       0.123   3.379   3.511  0.00  0.00    +0.277 C 
ENDBRANCH  34  35
BRANCH  32  37
ATOM     37  O   UNL     1      -2.380   1.037   0.016  0.00  0.00    -0.495 OA
ATOM     38  C   UNL     1      -2.803   0.480  -1.230  0.00  0.00    +0.277 C 
ENDBRANCH  32  37
ENDBRANCH   5  29
TORSDOF 6
