REMARK  Name = ZINC45736480
REMARK  7 active torsions:
REMARK  status: ('A' for Active; 'I' for Inactive)
REMARK    1  A    between atoms: C_1  and  C_2
REMARK    2  A    between atoms: C_3  and  C_21
REMARK    3  A    between atoms: C_8  and  C_10
REMARK    4  A    between atoms: C_10  and  C_12
REMARK    5  A    between atoms: C_10  and  N_13
REMARK    6  A    between atoms: C_16  and  O_19
REMARK    7  A    between atoms: O_19  and  C_20
REMARK                            x       y       z     vdW  Elec       q    Type
REMARK                         _______ _______ _______ _____ _____    ______ ____
ROOT
ATOM      1  C   UNL     1       0.149   1.431  -0.064  0.00  0.00    +0.066 C 
ATOM      2  C   UNL     1      -0.401   0.033   0.053  0.00  0.00    +0.050 A 
ATOM      3  C   UNL     1      -1.081  -0.548  -0.965  0.00  0.00    +0.011 A 
ATOM      4  S   UNL     1      -1.460  -2.139  -0.248  0.00  0.00    -0.057 S 
ATOM      5  C   UNL     1      -0.725  -1.900   1.248  0.00  0.00    +0.165 A 
ATOM      6  N   UNL     1      -0.238  -0.682   1.151  0.00  0.00    -0.230 NA
ATOM      7  N   UNL     1      -0.648  -2.779   2.322  0.00  0.00    -0.266 N 
ATOM      8  C   UNL     1      -0.012  -2.408   3.451  0.00  0.00    +0.205 C 
ATOM      9  O   UNL     1       0.493  -1.308   3.529  0.00  0.00    -0.277 OA
ATOM     10  C   UNL     1      -1.423  -0.002  -2.328  0.00  0.00    +0.053 C 
ATOM     11  H   UNL     1      -1.052  -3.658   2.259  0.00  0.00    +0.157 HD
ENDROOT
BRANCH   8  12
ATOM     12  C   UNL     1       0.072  -3.361   4.616  0.00  0.00    +0.016 C 
ATOM     13  C   UNL     1       1.298  -4.261   4.452  0.00  0.00    -0.004 C 
BRANCH  12  14
ATOM     14  N   UNL     1       0.189  -2.597   5.865  0.00  0.00    +0.387 N 
ATOM     15  C   UNL     1      -1.011  -1.770   6.045  0.00  0.00    -0.075 C 
ATOM     16  C   UNL     1      -0.859  -0.912   7.303  0.00  0.00    +0.013 C 
ATOM     17  C   UNL     1      -0.680  -1.825   8.519  0.00  0.00    +0.114 C 
ATOM     18  C   UNL     1       0.530  -2.735   8.288  0.00  0.00    +0.013 C 
ATOM     19  C   UNL     1       0.327  -3.526   6.993  0.00  0.00    -0.075 C 
ATOM     20  H   UNL     1       1.002  -2.001   5.819  0.00  0.00    -0.081 HD
BRANCH  17  21
ATOM     21  O   UNL     1      -0.464  -1.030   9.687  0.00  0.00    -0.380 OA
ATOM     22  C   UNL     1      -0.939  -1.629  10.894  0.00  0.00    +0.194 C 
ENDBRANCH  17  21
ENDBRANCH  12  14
ENDBRANCH   8  12
TORSDOF 3
