REMARK  Name = ZINC25115782
REMARK  9 active torsions:
REMARK  status: ('A' for Active; 'I' for Inactive)
REMARK    1  A    between atoms: C_1  and  C_2
REMARK    2  A    between atoms: C_2  and  C_4
REMARK    3  A    between atoms: C_2  and  S_16
REMARK    4  A    between atoms: N_6  and  C_7
REMARK    5  A    between atoms: C_10  and  N_13
REMARK    6  A    between atoms: S_16  and  C_17
REMARK    7  A    between atoms: N_27  and  C_28
REMARK    8  A    between atoms: C_28  and  C_29
REMARK    9  A    between atoms: C_28  and  C_30
REMARK                            x       y       z     vdW  Elec       q    Type
REMARK                         _______ _______ _______ _____ _____    ______ ____
ROOT
ATOM      1  C   UNL     1      -0.030   1.532   0.018  0.00  0.00    +0.029 C 
ATOM      2  C   UNL     1      -0.000   0.002   0.002  0.00  0.00    +0.137 C 
ENDROOT
BRANCH   2   3
ATOM      3  C   UNL     1      -1.411  -0.527   0.013  0.00  0.00    +0.230 C 
ATOM      4  O   UNL     1      -1.935  -0.837   1.062  0.00  0.00    -0.274 OA
ATOM      5  N   UNL     1      -2.090  -0.657  -1.144  0.00  0.00    -0.285 N 
ATOM      6  H   UNL     1      -1.697  -0.348  -1.975  0.00  0.00    +0.155 HD
BRANCH   5   7
ATOM      7  C   UNL     1      -3.363  -1.239  -1.147  0.00  0.00    +0.034 A 
ATOM      8  C   UNL     1      -3.765  -2.028  -2.216  0.00  0.00    +0.025 A 
ATOM      9  C   UNL     1      -5.022  -2.600  -2.216  0.00  0.00    +0.034 A 
ATOM     10  C   UNL     1      -5.880  -2.388  -1.152  0.00  0.00    +0.126 A 
ATOM     11  C   UNL     1      -5.482  -1.602  -0.086  0.00  0.00    +0.034 A 
ATOM     12  C   UNL     1      -4.224  -1.032  -0.077  0.00  0.00    +0.025 A 
BRANCH  10  13
ATOM     13  N   UNL     1      -7.226  -3.003  -1.154  0.00  0.00    +0.056 N 
ATOM     14  O   UNL     1      -7.575  -3.690  -2.086  0.00  0.00    -0.126 OA
ATOM     15  O   UNL     1      -7.977  -2.818  -0.225  0.00  0.00    -0.126 OA
ENDBRANCH  10  13
ENDBRANCH   5   7
ENDBRANCH   2   3
BRANCH   2  16
ATOM     16  S   UNL     1       0.882  -0.600   1.468  0.00  0.00    -0.075 S 
BRANCH  16  17
ATOM     17  C   UNL     1       2.533  -0.027   1.238  0.00  0.00    +0.173 A 
ATOM     18  N   UNL     1       2.808   0.668   0.162  0.00  0.00    -0.223 NA
ATOM     19  C   UNL     1       4.048   1.138  -0.078  0.00  0.00    +0.079 A 
ATOM     20  C   UNL     1       4.342   1.881  -1.225  0.00  0.00    +0.028 A 
ATOM     21  C   UNL     1       5.613   2.338  -1.428  0.00  0.00    +0.002 A 
ATOM     22  C   UNL     1       6.622   2.075  -0.510  0.00  0.00    +0.001 A 
ATOM     23  C   UNL     1       6.366   1.352   0.622  0.00  0.00    +0.015 A 
ATOM     24  C   UNL     1       5.078   0.873   0.854  0.00  0.00    +0.065 A 
ATOM     25  C   UNL     1       4.745   0.091   2.053  0.00  0.00    +0.263 A 
ATOM     26  O   UNL     1       5.587  -0.169   2.892  0.00  0.00    -0.267 OA
ATOM     27  N   UNL     1       3.464  -0.324   2.192  0.00  0.00    -0.285 N 
BRANCH  27  28
ATOM     28  C   UNL     1       3.075  -1.102   3.370  0.00  0.00    +0.087 C 
ATOM     29  C   UNL     1       3.898  -2.391   3.425  0.00  0.00    +0.031 C 
ATOM     30  C   UNL     1       3.334  -0.278   4.633  0.00  0.00    +0.031 C 
ENDBRANCH  27  28
ENDBRANCH  16  17
ENDBRANCH   2  16
TORSDOF 6
