REMARK  Name = ZINC46898906
REMARK  7 active torsions:
REMARK  status: ('A' for Active; 'I' for Inactive)
REMARK    1  A    between atoms: C_1  and  C_2
REMARK    2  A    between atoms: C_2  and  C_3
REMARK    3  A    between atoms: C_2  and  C_4
REMARK    4  A    between atoms: C_2  and  C_5
REMARK    5  A    between atoms: C_5  and  C_6
REMARK    6  A    between atoms: C_6  and  C_8
REMARK    7  A    between atoms: C_6  and  N_15
REMARK                            x       y       z     vdW  Elec       q    Type
REMARK                         _______ _______ _______ _____ _____    ______ ____
ROOT
ATOM      1  N   UNL     1       1.882   1.794  -1.307  0.00  0.00    -0.292 N 
ATOM      2  C   UNL     1       1.843   2.394  -0.101  0.00  0.00    +0.303 C 
ATOM      3  O   UNL     1       1.768   1.723   0.910  0.00  0.00    -0.253 OA
ATOM      4  N   UNL     1       1.887   3.738  -0.016  0.00  0.00    -0.283 N 
ATOM      5  C   UNL     1       1.854   4.566  -1.229  0.00  0.00    +0.128 C 
ATOM      6  C   UNL     1       0.694   5.562  -1.111  0.00  0.00    +0.125 C 
ATOM      7  N   UNL     1       0.776   6.226   0.197  0.00  0.00    -0.314 N 
ATOM      8  C   UNL     1       0.809   5.398   1.411  0.00  0.00    +0.125 C 
ATOM      9  C   UNL     1       1.964   4.402   1.293  0.00  0.00    +0.128 C 
ATOM     10  C   UNL     1       0.822   7.613   0.285  0.00  0.00    +0.099 A 
ATOM     11  C   UNL     1       0.644   8.383  -0.860  0.00  0.00    +0.042 A 
ATOM     12  C   UNL     1       0.693   9.761  -0.758  0.00  0.00    +0.005 A 
ATOM     13  C   UNL     1       0.917  10.326   0.491  0.00  0.00    +0.018 A 
ATOM     14  C   UNL     1       1.084   9.502   1.585  0.00  0.00    +0.084 A 
ATOM     15  N   UNL     1       1.028   8.189   1.459  0.00  0.00    -0.350 N 
ATOM     16  H   UNL     1       2.018   2.323  -2.108  0.00  0.00    +0.151 HD
ATOM     17  H   UNL     1       1.145   7.633   2.245  0.00  0.00    +0.166 HD
ENDROOT
BRANCH   1  18
ATOM     18  C   UNL     1       1.719   0.341  -1.408  0.00  0.00    +0.105 C 
BRANCH  18  19
ATOM     19  C   UNL     1       2.470  -0.166  -2.612  0.00  0.00    -0.027 A 
ATOM     20  C   UNL     1       2.183   0.338  -3.867  0.00  0.00    +0.008 A 
ATOM     21  C   UNL     1       2.871  -0.127  -4.972  0.00  0.00    +0.038 A 
ATOM     22  C   UNL     1       3.848  -1.097  -4.822  0.00  0.00    +0.123 A 
ATOM     23  C   UNL     1       4.134  -1.600  -3.564  0.00  0.00    +0.038 A 
ATOM     24  C   UNL     1       3.448  -1.131  -2.460  0.00  0.00    +0.008 A 
ATOM     25  F   UNL     1       4.521  -1.551  -5.902  0.00  0.00    -0.205 F 
ENDBRANCH  18  19
BRANCH  18  26
ATOM     26  C   UNL     1       0.234   0.004  -1.553  0.00  0.00    +0.033 C 
BRANCH  26  28
ATOM     27  C   UNL     1       0.699  -2.032  -0.182  0.00  0.00    +0.010 C 
ATOM     28  C   UNL     1       0.044  -1.512  -1.463  0.00  0.00    -0.036 C 
ATOM     29  C   UNL     1       0.693  -2.180  -2.676  0.00  0.00    +0.010 C 
ATOM     30  C   UNL     1      -1.451  -1.838  -1.440  0.00  0.00    +0.010 C 
ENDBRANCH  26  28
ENDBRANCH  18  26
ENDBRANCH   1  18
TORSDOF 4
