REMARK  Name = ZINC36970864
REMARK  5 active torsions:
REMARK  status: ('A' for Active; 'I' for Inactive)
REMARK    1  A    between atoms: C_1  and  C_2
REMARK    2  A    between atoms: C_2  and  C_4
REMARK    3  A    between atoms: C_2  and  N_11
REMARK    4  A    between atoms: N_11  and  C_12
REMARK    5  A    between atoms: C_17  and  N_18
REMARK                            x       y       z     vdW  Elec       q    Type
REMARK                         _______ _______ _______ _____ _____    ______ ____
ROOT
ATOM      1  N   UNL     1      -1.632  -0.061   0.056  0.00  0.00    -0.335 N 
ATOM      2  H   UNL     1      -2.075  -0.292   0.888  0.00  0.00    +0.147 HD
ENDROOT
BRANCH   1   3
ATOM      3  C   UNL     1      -2.205  -0.423  -1.165  0.00  0.00    +0.060 A 
ATOM      4  C   UNL     1      -1.638   0.013  -2.356  0.00  0.00    +0.045 A 
ATOM      5  C   UNL     1      -2.208  -0.348  -3.562  0.00  0.00    +0.043 A 
ATOM      6  C   UNL     1      -3.342  -1.141  -3.584  0.00  0.00    +0.022 A 
ATOM      7  C   UNL     1      -3.907  -1.576  -2.400  0.00  0.00    +0.036 A 
ATOM      8  C   UNL     1      -3.339  -1.224  -1.191  0.00  0.00    +0.147 A 
ATOM      9 CL   UNL     1      -1.501   0.196  -5.052  0.00  0.00    -0.083 Cl
BRANCH   8  10
ATOM     10  N   UNL     1      -3.942  -1.696   0.076  0.00  0.00    +0.058 N 
ATOM     11  O   UNL     1      -3.232  -2.011   1.003  0.00  0.00    -0.126 OA
ATOM     12  O   UNL     1      -5.144  -1.765   0.184  0.00  0.00    -0.126 OA
ENDBRANCH   8  10
ENDBRANCH   1   3
BRANCH   1  14
ATOM     13  C   UNL     1      -0.632   2.168  -0.069  0.00  0.00    +0.033 C 
ATOM     14  C   UNL     1      -0.362   0.669   0.082  0.00  0.00    +0.098 C 
BRANCH  14  15
ATOM     15  C   UNL     1       0.338   0.415   1.392  0.00  0.00    -0.025 A 
ATOM     16  C   UNL     1      -0.391   0.361   2.566  0.00  0.00    +0.005 A 
ATOM     17  C   UNL     1       0.250   0.127   3.768  0.00  0.00    +0.003 A 
ATOM     18  C   UNL     1       1.620  -0.053   3.798  0.00  0.00    +0.038 A 
ATOM     19  C   UNL     1       2.351   0.001   2.623  0.00  0.00    +0.124 A 
ATOM     20  C   UNL     1       1.707   0.229   1.419  0.00  0.00    +0.043 A 
ATOM     21  F   UNL     1       3.690  -0.174   2.652  0.00  0.00    -0.205 F 
ENDBRANCH  14  15
ENDBRANCH   1  14
TORSDOF 4
