REMARK  Name = ZINC35288476
REMARK  9 active torsions:
REMARK  status: ('A' for Active; 'I' for Inactive)
REMARK    1  A    between atoms: C_1  and  C_2
REMARK    2  A    between atoms: C_2  and  O_3
REMARK    3  A    between atoms: O_3  and  C_4
REMARK    4  A    between atoms: C_7  and  C_10
REMARK    5  A    between atoms: C_10  and  C_11
REMARK    6  A    between atoms: C_12  and  C_25
REMARK    7  A    between atoms: C_14  and  C_18
REMARK    8  A    between atoms: C_16  and  N_17
REMARK    9  A    between atoms: C_21  and  C_24
REMARK                            x       y       z     vdW  Elec       q    Type
REMARK                         _______ _______ _______ _____ _____    ______ ____
ROOT
ATOM      1  C   UNL     1       2.412  -6.535   1.102  0.00  0.00    +0.017 A 
ATOM      2  C   UNL     1       2.416  -6.911  -0.228  0.00  0.00    +0.047 A 
ATOM      3  N   UNL     1       3.545  -7.325  -0.781  0.00  0.00    -0.232 NA
ATOM      4  C   UNL     1       4.667  -7.382  -0.077  0.00  0.00    +0.162 A 
ATOM      5  N   UNL     1       4.706  -7.031   1.201  0.00  0.00    -0.213 NA
ATOM      6  C   UNL     1       3.610  -6.601   1.817  0.00  0.00    +0.124 A 
ATOM      7  C   UNL     1       1.148  -6.852  -1.040  0.00  0.00    +0.066 C 
ENDROOT
BRANCH   4   8
ATOM      8  C   UNL     1       5.911  -7.852  -0.735  0.00  0.00    +0.019 A 
ATOM      9  C   UNL     1       5.894  -8.222  -2.079  0.00  0.00    +0.012 A 
ATOM     10  C   UNL     1       7.054  -8.658  -2.686  0.00  0.00    +0.004 A 
ATOM     11  C   UNL     1       8.232  -8.729  -1.964  0.00  0.00    -0.050 A 
ATOM     12  C   UNL     1       8.254  -8.364  -0.630  0.00  0.00    +0.004 A 
ATOM     13  C   UNL     1       7.101  -7.920  -0.014  0.00  0.00    +0.012 A 
ATOM     14  C   UNL     1       9.495  -9.207  -2.633  0.00  0.00    +0.044 C 
ENDBRANCH   4   8
BRANCH   6  15
ATOM     15  N   UNL     1       3.654  -6.230   3.151  0.00  0.00    -0.343 N 
ATOM     16  H   UNL     1       2.849  -5.921   3.595  0.00  0.00    +0.144 HD
ATOM     17  H   UNL     1       4.490  -6.278   3.641  0.00  0.00    +0.144 HD
ENDBRANCH   6  15
BRANCH   1  18
ATOM     18  C   UNL     1       1.144  -6.059   1.764  0.00  0.00    +0.075 C 
BRANCH  18  22
ATOM     19  C   UNL     1       0.802  -1.824   1.306  0.00  0.00    +0.121 A 
ATOM     20  C   UNL     1       0.260  -2.673   0.351  0.00  0.00    +0.046 A 
ATOM     21  C   UNL     1       0.372  -4.041   0.502  0.00  0.00    +0.007 A 
ATOM     22  C   UNL     1       1.024  -4.566   1.603  0.00  0.00    -0.043 A 
ATOM     23  C   UNL     1       1.565  -3.722   2.555  0.00  0.00    +0.007 A 
ATOM     24  C   UNL     1       1.460  -2.353   2.406  0.00  0.00    +0.046 A 
BRANCH  19  25
ATOM     25  O   UNL     1       0.693  -0.477   1.160  0.00  0.00    -0.492 OA
BRANCH  25  27
ATOM     26  C   UNL     1      -0.019   1.526   0.010  0.00  0.00    +0.048 C 
ATOM     27  C   UNL     1       0.002  -0.004   0.002  0.00  0.00    +0.225 C 
ENDBRANCH  25  27
ENDBRANCH  19  25
ENDBRANCH  18  22
ENDBRANCH   1  18
TORSDOF 6
