REMARK  Name = ZINC03271655
REMARK  9 active torsions:
REMARK  status: ('A' for Active; 'I' for Inactive)
REMARK    1  A    between atoms: C_7  and  C_11
REMARK    2  A    between atoms: C_11  and  C_12
REMARK    3  A    between atoms: C_12  and  C_14
REMARK    4  A    between atoms: C_12  and  N_28
REMARK    5  A    between atoms: C_14  and  O_16
REMARK    6  A    between atoms: O_16  and  C_17
REMARK    7  A    between atoms: C_17  and  C_18
REMARK    8  A    between atoms: N_20  and  C_21
REMARK    9  A    between atoms: C_29  and  C_31
REMARK                            x       y       z     vdW  Elec       q    Type
REMARK                         _______ _______ _______ _____ _____    ______ ____
ROOT
ATOM      1  C   UNL     1       4.173   0.621   1.358  0.00  0.00    +0.186 C 
ENDROOT
BRANCH   1   2
ATOM      2  N   UNL     1       3.846   1.942   1.900  0.00  0.00    -0.298 N 
ATOM      3  C   UNL     1       4.317   3.053   1.298  0.00  0.00    +0.246 C 
ATOM      4  O   UNL     1       5.012   2.958   0.305  0.00  0.00    -0.270 OA
ATOM      5  H   UNL     1       3.292   2.018   2.692  0.00  0.00    +0.150 HD
BRANCH   3   6
ATOM      6  C   UNL     1       3.987   4.386   1.844  0.00  0.00    +0.055 A 
ATOM      7  C   UNL     1       3.184   4.498   2.981  0.00  0.00    +0.014 A 
ATOM      8  C   UNL     1       2.885   5.745   3.489  0.00  0.00    +0.001 A 
ATOM      9  C   UNL     1       3.369   6.884   2.869  0.00  0.00    +0.001 A 
ATOM     10  C   UNL     1       4.160   6.781   1.740  0.00  0.00    +0.021 A 
ATOM     11  C   UNL     1       4.473   5.538   1.223  0.00  0.00    +0.053 A 
ATOM     12 CL   UNL     1       5.466   5.410  -0.195  0.00  0.00    -0.083 Cl
ENDBRANCH   3   6
ENDBRANCH   1   2
BRANCH   1  13
ATOM     13  C   UNL     1       5.668   0.432   1.363  0.00  0.00    +0.328 C 
ATOM     14  O   UNL     1       6.399   1.393   1.422  0.00  0.00    -0.249 OA
BRANCH  13  15
ATOM     15  O   UNL     1       6.189  -0.804   1.300  0.00  0.00    -0.454 OA
BRANCH  15  16
ATOM     16  C   UNL     1       7.637  -0.910   1.309  0.00  0.00    +0.328 C 
BRANCH  16  17
ATOM     17  C   UNL     1       8.034  -2.362   1.234  0.00  0.00    +0.255 C 
ATOM     18  O   UNL     1       7.181  -3.222   1.179  0.00  0.00    -0.272 OA
ATOM     19  N   UNL     1       9.338  -2.704   1.228  0.00  0.00    -0.280 N 
ATOM     20  H   UNL     1      10.020  -2.015   1.207  0.00  0.00    +0.155 HD
BRANCH  19  21
ATOM     21  C   UNL     1       9.707  -4.055   1.252  0.00  0.00    +0.069 A 
ATOM     22  C   UNL     1       8.930  -5.001   0.597  0.00  0.00    +0.026 A 
ATOM     23  C   UNL     1       9.300  -6.332   0.618  0.00  0.00    +0.002 A 
ATOM     24  C   UNL     1      10.436  -6.725   1.300  0.00  0.00    +0.003 A 
ATOM     25  C   UNL     1      11.210  -5.788   1.960  0.00  0.00    +0.040 A 
ATOM     26  C   UNL     1      10.849  -4.453   1.938  0.00  0.00    +0.144 A 
ATOM     27  F   UNL     1      11.605  -3.537   2.583  0.00  0.00    -0.204 F 
ENDBRANCH  19  21
ENDBRANCH  16  17
ENDBRANCH  15  16
ENDBRANCH  13  15
ENDBRANCH   1  13
BRANCH   1  28
ATOM     28  C   UNL     1       3.650   0.514  -0.075  0.00  0.00    +0.071 C 
BRANCH  28  35
ATOM     29  C   UNL     1       0.596   4.071  -0.066  0.00  0.00    +0.001 A 
ATOM     30  C   UNL     1      -0.726   3.648  -0.057  0.00  0.00    +0.002 A 
ATOM     31  C   UNL     1      -1.035   2.305  -0.047  0.00  0.00    +0.026 A 
ATOM     32  C   UNL     1      -0.013   1.361  -0.056  0.00  0.00    +0.047 A 
ATOM     33  C   UNL     1       1.326   1.795  -0.065  0.00  0.00    +0.003 A 
ATOM     34  C   UNL     1       1.615   3.161  -0.070  0.00  0.00    +0.010 A 
ATOM     35  C   UNL     1       2.144   0.580  -0.067  0.00  0.00    -0.020 A 
ATOM     36  C   UNL     1       1.299  -0.463  -0.060  0.00  0.00    +0.087 A 
ATOM     37  N   UNL     1       0.006  -0.015  -0.053  0.00  0.00    -0.360 N 
ATOM     38  H   UNL     1      -0.780  -0.583  -0.048  0.00  0.00    +0.165 HD
ENDBRANCH  28  35
ENDBRANCH   1  28
TORSDOF 9
