REMARK  Name = ZINC44173510
REMARK  7 active torsions:
REMARK  status: ('A' for Active; 'I' for Inactive)
REMARK    1  A    between atoms: C_1  and  C_2
REMARK    2  A    between atoms: C_2  and  C_4
REMARK    3  A    between atoms: C_7  and  N_10
REMARK    4  A    between atoms: C_15  and  C_32
REMARK    5  A    between atoms: C_18  and  C_23
REMARK    6  A    between atoms: C_18  and  C_29
REMARK    7  A    between atoms: C_33  and  C_34
REMARK                            x       y       z     vdW  Elec       q    Type
REMARK                         _______ _______ _______ _____ _____    ______ ____
ROOT
ATOM      1  N   UNL     1       0.358  -3.337  -4.433  0.00  0.00    -0.210 N 
ATOM      2  C   UNL     1       0.368  -2.496  -5.518  0.00  0.00    +0.229 C 
ATOM      3  O   UNL     1       0.691  -1.328  -5.545  0.00  0.00    -0.275 OA
ATOM      4  C   UNL     1      -0.090  -3.308  -6.618  0.00  0.00    +0.077 C 
ATOM      5  C   UNL     1      -0.059  -3.351  -8.090  0.00  0.00    -0.034 C 
ATOM      6  N   UNL     1      -0.593  -4.727  -8.377  0.00  0.00    +0.398 N 
ATOM      7  C   UNL     1      -0.364  -5.567  -7.163  0.00  0.00    +0.074 C 
ATOM      8  C   UNL     1       0.535  -4.714  -6.256  0.00  0.00    +0.090 C 
ATOM      9  C   UNL     1       0.226  -4.651  -4.786  0.00  0.00    +0.229 C 
ATOM     10  O   UNL     1      -0.079  -5.575  -4.063  0.00  0.00    -0.275 OA
ATOM     11  H   UNL     1      -1.581  -4.676  -8.576  0.00  0.00    -0.083 HD
ATOM     12  H   UNL     1      -0.105  -5.125  -9.165  0.00  0.00    -0.083 HD
ENDROOT
BRANCH   1  16
ATOM     13  C   UNL     1       0.711  -2.028  -0.491  0.00  0.00    +0.017 A 
ATOM     14  C   UNL     1       0.724  -1.103  -1.542  0.00  0.00    +0.013 A 
ATOM     15  C   UNL     1       0.608  -1.540  -2.842  0.00  0.00    +0.024 A 
ATOM     16  C   UNL     1       0.477  -2.899  -3.112  0.00  0.00    +0.044 A 
ATOM     17  C   UNL     1       0.463  -3.822  -2.071  0.00  0.00    +0.024 A 
ATOM     18  C   UNL     1       0.585  -3.395  -0.769  0.00  0.00    +0.013 A 
BRANCH  13  20
ATOM     19  C   UNL     1       0.970  -0.095   1.194  0.00  0.00    +0.091 C 
ATOM     20  C   UNL     1       0.835  -1.567   0.898  0.00  0.00    +0.160 C 
ATOM     21  O   UNL     1       0.828  -2.370   1.807  0.00  0.00    -0.292 OA
ENDBRANCH  13  20
ENDBRANCH   1  16
BRANCH   7  22
ATOM     22  C   UNL     1      -1.677  -5.882  -6.492  0.00  0.00    -0.047 A 
ATOM     23  C   UNL     1      -1.779  -6.976  -5.654  0.00  0.00    +0.003 A 
ATOM     24  C   UNL     1      -2.983  -7.265  -5.038  0.00  0.00    +0.000 A 
ATOM     25  C   UNL     1      -4.084  -6.459  -5.261  0.00  0.00    +0.000 A 
ATOM     26  C   UNL     1      -3.981  -5.364  -6.098  0.00  0.00    +0.000 A 
ATOM     27  C   UNL     1      -2.776  -5.073  -6.710  0.00  0.00    +0.003 A 
ENDBRANCH   7  22
BRANCH   7  28
ATOM     28  C   UNL     1       0.350  -6.840  -7.537  0.00  0.00    +0.350 C 
ATOM     29  O   UNL     1       0.628  -7.064  -8.703  0.00  0.00    -0.248 OA
ATOM     30  O   UNL     1       0.650  -7.647  -6.674  0.00  0.00    -0.248 OA
ENDBRANCH   7  28
BRANCH   5  31
ATOM     31  C   UNL     1      -0.956  -2.292  -8.678  0.00  0.00    -0.041 C 
ATOM     32  C   UNL     1      -0.468  -1.416  -9.545  0.00  0.00    +0.002 C 
BRANCH  32  33
ATOM     33  C   UNL     1      -1.348  -0.378 -10.122  0.00  0.00    -0.025 A 
ATOM     34  C   UNL     1      -2.692  -0.313  -9.751  0.00  0.00    +0.008 A 
ATOM     35  C   UNL     1      -3.508   0.658 -10.293  0.00  0.00    +0.001 A 
ATOM     36  C   UNL     1      -2.997   1.567 -11.202  0.00  0.00    +0.000 A 
ATOM     37  C   UNL     1      -1.665   1.508 -11.575  0.00  0.00    +0.001 A 
ATOM     38  C   UNL     1      -0.837   0.545 -11.035  0.00  0.00    +0.008 A 
ENDBRANCH  32  33
ENDBRANCH   5  31
TORSDOF 6
