REMARK  Name = ZINC09115872
REMARK  5 active torsions:
REMARK  status: ('A' for Active; 'I' for Inactive)
REMARK    1  A    between atoms: C_1  and  C_2
REMARK    2  A    between atoms: C_8  and  C_14
REMARK    3  A    between atoms: C_11  and  C_13
REMARK    4  A    between atoms: N_16  and  C_17
REMARK    5  A    between atoms: C_17  and  C_18
REMARK                            x       y       z     vdW  Elec       q    Type
REMARK                         _______ _______ _______ _____ _____    ______ ____
ROOT
ATOM      1  C   UNL     1       3.042   8.258  -1.607  0.00  0.00    +0.248 C 
ATOM      2  O   UNL     1       3.503   8.906  -0.687  0.00  0.00    -0.270 OA
ATOM      3  N   UNL     1       2.422   7.086  -1.361  0.00  0.00    -0.306 N 
ATOM      4  H   UNL     1       2.054   6.569  -2.095  0.00  0.00    +0.149 HD
ENDROOT
BRANCH   1  11
ATOM      5  C   UNL     1       3.709  12.912  -4.709  0.00  0.00    +0.016 C 
ATOM      6  C   UNL     1       4.664  11.729  -4.534  0.00  0.00    +0.060 C 
ATOM      7  C   UNL     1       3.909  10.414  -4.562  0.00  0.00    +0.001 A 
ATOM      8  C   UNL     1       3.380   9.675  -5.596  0.00  0.00    +0.007 A 
ATOM      9  C   UNL     1       2.740   8.472  -5.341  0.00  0.00    +0.001 A 
ATOM     10  C   UNL     1       2.632   8.011  -4.047  0.00  0.00    +0.017 A 
ATOM     11  C   UNL     1       3.160   8.754  -2.991  0.00  0.00    +0.079 A 
ATOM     12  C   UNL     1       3.801   9.979  -3.248  0.00  0.00    +0.137 A 
ATOM     13  O   UNL     1       4.362  10.867  -2.386  0.00  0.00    -0.487 OA
ATOM     14  C   UNL     1       5.261  11.726  -3.110  0.00  0.00    +0.178 C 
ATOM     15  C   UNL     1       5.264  13.134  -2.512  0.00  0.00    +0.052 C 
ENDBRANCH   1  11
BRANCH   3  16
ATOM     16  C   UNL     1       2.304   6.594   0.014  0.00  0.00    +0.161 C 
BRANCH  16  17
ATOM     17  C   UNL     1       1.576   5.274   0.014  0.00  0.00    +0.077 A 
ATOM     18  C   UNL     1       2.156   4.054   0.002  0.00  0.00    +0.117 A 
ATOM     19  N   UNL     1       1.148   3.128   0.007  0.00  0.00    -0.306 N 
ATOM     20  C   UNL     1       1.149   1.763   0.001  0.00  0.00    +0.092 A 
ATOM     21  C   UNL     1      -0.013   1.076   0.008  0.00  0.00    +0.018 A 
ATOM     22  C   UNL     1      -1.240   1.758   0.018  0.00  0.00    +0.005 A 
ATOM     23  C   UNL     1      -1.255   3.119   0.031  0.00  0.00    +0.047 A 
ATOM     24  C   UNL     1      -0.034   3.822   0.022  0.00  0.00    +0.138 A 
ATOM     25  N   UNL     1       0.250   5.117   0.026  0.00  0.00    -0.231 NA
ENDBRANCH  16  17
ENDBRANCH   3  16
TORSDOF 3
