REMARK  Name = ZINC01464508
REMARK  7 active torsions:
REMARK  status: ('A' for Active; 'I' for Inactive)
REMARK    1  A    between atoms: C_4  and  N_35
REMARK    2  A    between atoms: C_5  and  C_7
REMARK    3  A    between atoms: C_10  and  C_12
REMARK    4  A    between atoms: C_14  and  C_26
REMARK    5  A    between atoms: C_16  and  C_21
REMARK    6  A    between atoms: C_16  and  O_25
REMARK    7  A    between atoms: C_26  and  C_28
REMARK                            x       y       z     vdW  Elec       q    Type
REMARK                         _______ _______ _______ _____ _____    ______ ____
ROOT
ATOM      1  C   UNL     1       4.642   2.776   0.549  0.00  0.00    +0.156 C 
ATOM      2  C   UNL     1       4.117   2.790  -0.891  0.00  0.00    +0.147 C 
ATOM      3  C   UNL     1       5.185   2.179  -1.805  0.00  0.00    +0.243 C 
ATOM      4  N   UNL     1       5.530   0.844  -1.315  0.00  0.00    -0.264 N 
ATOM      5  C   UNL     1       5.437   0.532  -0.013  0.00  0.00    +0.302 C 
ATOM      6  O   UNL     1       5.746  -0.588   0.343  0.00  0.00    -0.253 OA
ATOM      7  N   UNL     1       5.017   1.409   0.911  0.00  0.00    -0.289 N 
ATOM      8  H   UNL     1       5.832   0.170  -1.944  0.00  0.00    +0.153 HD
ATOM      9  H   UNL     1       4.961   1.131   1.839  0.00  0.00    +0.151 HD
ENDROOT
BRANCH   1  13
ATOM     10  C   UNL     1       2.350   4.605   2.729  0.00  0.00    +0.137 A 
ATOM     11  C   UNL     1       1.807   3.363   2.829  0.00  0.00    +0.050 A 
ATOM     12  C   UNL     1       2.589   2.512   2.022  0.00  0.00    +0.047 A 
ATOM     13  C   UNL     1       3.565   3.268   1.482  0.00  0.00    +0.127 A 
ATOM     14  O   UNL     1       3.416   4.532   1.909  0.00  0.00    -0.458 OA
BRANCH  10  19
ATOM     15  C   UNL     1       0.081   7.379   3.852  0.00  0.00    +0.001 A 
ATOM     16  C   UNL     1       0.931   8.109   4.665  0.00  0.00    +0.002 A 
ATOM     17  C   UNL     1       2.240   7.702   4.851  0.00  0.00    +0.033 A 
ATOM     18  C   UNL     1       2.707   6.565   4.224  0.00  0.00    +0.137 A 
ATOM     19  C   UNL     1       1.856   5.824   3.403  0.00  0.00    +0.047 A 
ATOM     20  C   UNL     1       0.538   6.244   3.216  0.00  0.00    +0.014 A 
BRANCH  18  21
ATOM     21  N   UNL     1       4.109   6.131   4.423  0.00  0.00    +0.057 N 
ATOM     22  O   UNL     1       4.883   6.839   5.043  0.00  0.00    -0.126 OA
ATOM     23  O   UNL     1       4.488   5.067   3.967  0.00  0.00    -0.126 OA
ENDBRANCH  18  21
ENDBRANCH  10  19
ENDBRANCH   1  13
BRANCH   3  24
ATOM     24  C   UNL     1       6.432   3.065  -1.796  0.00  0.00    +0.436 C 
ATOM     25  F   UNL     1       6.932   3.155  -0.492  0.00  0.00    -0.166 F 
ATOM     26  F   UNL     1       7.406   2.507  -2.631  0.00  0.00    -0.166 F 
ATOM     27  F   UNL     1       6.100   4.343  -2.258  0.00  0.00    -0.166 F 
ENDBRANCH   3  24
BRANCH   3  28
ATOM     28  O   UNL     1       4.675   2.083  -3.136  0.00  0.00    -0.364 OA
ATOM     29  H   UNL     1       5.300   1.704  -3.770  0.00  0.00    +0.212 HD
ENDBRANCH   3  28
BRANCH   2  30
ATOM     30  C   UNL     1       2.852   1.975  -0.976  0.00  0.00    +0.173 C 
ATOM     31  O   UNL     1       2.914   0.768  -1.072  0.00  0.00    -0.292 OA
BRANCH  30  32
ATOM     32  C   UNL     1       1.543   2.644  -0.942  0.00  0.00    +0.018 A 
ATOM     33  C   UNL     1       0.368   1.886  -0.900  0.00  0.00    +0.014 A 
ATOM     34  C   UNL     1      -0.855   2.519  -0.875  0.00  0.00    +0.039 A 
ATOM     35  C   UNL     1      -0.923   3.905  -0.880  0.00  0.00    +0.123 A 
ATOM     36  C   UNL     1       0.238   4.662  -0.922  0.00  0.00    +0.039 A 
ATOM     37  C   UNL     1       1.468   4.041  -0.953  0.00  0.00    +0.014 A 
ATOM     38  F   UNL     1      -2.126   4.519  -0.850  0.00  0.00    -0.205 F 
ENDBRANCH  30  32
ENDBRANCH   2  30
TORSDOF 7
