REMARK  Name = ZINC43167860
REMARK  6 active torsions:
REMARK  status: ('A' for Active; 'I' for Inactive)
REMARK    1  A    between atoms: C_1  and  C_2
REMARK    2  A    between atoms: C_2  and  C_3
REMARK    3  A    between atoms: N_15  and  C_16
REMARK    4  A    between atoms: C_16  and  C_17
REMARK    5  A    between atoms: C_17  and  C_19
REMARK    6  A    between atoms: C_17  and  N_24
REMARK                            x       y       z     vdW  Elec       q    Type
REMARK                         _______ _______ _______ _____ _____    ______ ____
ROOT
ATOM      1  C   UNL     1      -1.453  -0.587  -2.568  0.00  0.00    +0.108 C 
ATOM      2  C   UNL     1       0.068  -0.482  -2.656  0.00  0.00    -0.017 A 
ATOM      3  C   UNL     1       0.785  -0.739  -3.824  0.00  0.00    +0.013 A 
ATOM      4  C   UNL     1       2.133  -0.629  -3.829  0.00  0.00    +0.046 A 
ATOM      5  S   UNL     1       2.468  -0.145  -2.142  0.00  0.00    -0.101 S 
ATOM      6  C   UNL     1       0.792  -0.123  -1.562  0.00  0.00    -0.004 A 
ATOM      7  C   UNL     1       0.287   0.214  -0.197  0.00  0.00    +0.062 C 
ATOM      8  C   UNL     1      -1.160  -0.287  -0.069  0.00  0.00    +0.115 C 
ATOM      9  N   UNL     1      -1.876   0.045  -1.311  0.00  0.00    -0.278 N 
ATOM     10  C   UNL     1      -2.903   0.917  -1.296  0.00  0.00    +0.303 C 
ATOM     11  O   UNL     1      -3.305   1.366  -0.240  0.00  0.00    -0.253 OA
ATOM     12  N   UNL     1      -3.486   1.292  -2.453  0.00  0.00    -0.300 N 
ATOM     13  H   UNL     1      -3.215   0.880  -3.288  0.00  0.00    +0.150 HD
ENDROOT
BRANCH   1  15
ATOM     14  C   UNL     1      -3.399  -2.155  -2.591  0.00  0.00    +0.006 C 
ATOM     15  C   UNL     1      -1.872  -2.059  -2.574  0.00  0.00    +0.024 C 
ENDBRANCH   1  15
BRANCH  12  16
ATOM     16  C   UNL     1      -4.528   2.322  -2.448  0.00  0.00    +0.098 C 
BRANCH  16  17
ATOM     17  C   UNL     1      -5.102   2.473  -3.858  0.00  0.00    +0.016 C 
BRANCH  17  18
ATOM     18  N   UNL     1      -6.054   3.591  -3.882  0.00  0.00    +0.387 N 
ATOM     19  C   UNL     1      -5.339   4.877  -3.676  0.00  0.00    -0.078 C 
ATOM     20  C   UNL     1      -6.313   5.923  -4.274  0.00  0.00    -0.020 C 
ATOM     21  C   UNL     1      -6.896   5.190  -5.504  0.00  0.00    -0.020 C 
ATOM     22  C   UNL     1      -6.689   3.692  -5.214  0.00  0.00    -0.078 C 
ATOM     23  H   UNL     1      -6.757   3.465  -3.170  0.00  0.00    -0.081 HD
ENDBRANCH  17  18
BRANCH  17  24
ATOM     24  C   UNL     1      -5.810   1.202  -4.251  0.00  0.00    +0.093 A 
ATOM     25  C   UNL     1      -5.306   0.230  -5.033  0.00  0.00    +0.043 A 
ATOM     26  C   UNL     1      -6.301  -0.768  -5.139  0.00  0.00    +0.041 A 
ATOM     27  C   UNL     1      -7.354  -0.347  -4.415  0.00  0.00    +0.195 A 
ATOM     28  O   UNL     1      -7.048   0.844  -3.875  0.00  0.00    -0.469 OA
ENDBRANCH  17  24
ENDBRANCH  16  17
ENDBRANCH  12  16
TORSDOF 5
