REMARK  Name = ZINC63216936
REMARK  4 active torsions:
REMARK  status: ('A' for Active; 'I' for Inactive)
REMARK    1  A    between atoms: C_1  and  C_2
REMARK    2  A    between atoms: C_2  and  C_3
REMARK    3  A    between atoms: C_2  and  C_4
REMARK    4  A    between atoms: C_7  and  C_10
REMARK                            x       y       z     vdW  Elec       q    Type
REMARK                         _______ _______ _______ _____ _____    ______ ____
ROOT
ATOM      1  C   UNL     1       2.797  -1.919   4.683  0.00  0.00    +0.070 C 
ATOM      2  C   UNL     1       2.816  -3.428   4.680  0.00  0.00    -0.010 A 
ATOM      3  C   UNL     1       3.905  -4.116   4.122  0.00  0.00    -0.012 A 
ATOM      4  C   UNL     1       4.988  -3.425   3.551  0.00  0.00    +0.009 A 
ATOM      5  C   UNL     1       6.028  -4.125   3.020  0.00  0.00    +0.001 A 
ATOM      6  C   UNL     1       6.036  -5.518   3.033  0.00  0.00    +0.001 A 
ATOM      7  C   UNL     1       5.005  -6.220   3.576  0.00  0.00    +0.008 A 
ATOM      8  C   UNL     1       3.913  -5.533   4.135  0.00  0.00    -0.017 A 
ATOM      9  C   UNL     1       2.832  -6.226   4.707  0.00  0.00    +0.010 A 
ATOM     10  C   UNL     1       1.789  -5.536   5.237  0.00  0.00    +0.024 A 
ATOM     11  C   UNL     1       1.768  -4.134   5.227  0.00  0.00    +0.036 A 
ATOM     12  N   UNL     1       0.666  -3.461   5.766  0.00  0.00    -0.304 N 
ATOM     13  C   UNL     1       0.743  -2.138   6.046  0.00  0.00    +0.106 C 
ATOM     14  N   UNL     1      -0.332  -1.483   6.393  0.00  0.00    -0.151 NA
ATOM     15  C   UNL     1      -0.338  -0.157   6.569  0.00  0.00    +0.331 C 
ATOM     16  O   UNL     1      -1.343   0.377   7.000  0.00  0.00    -0.250 OA
ATOM     17  N   UNL     1       0.732   0.603   6.284  0.00  0.00    -0.238 N 
ATOM     18  C   UNL     1       1.909   0.042   5.952  0.00  0.00    +0.231 C 
ATOM     19  O   UNL     1       2.848   0.751   5.658  0.00  0.00    -0.275 OA
ATOM     20  C   UNL     1       2.077  -1.442   5.943  0.00  0.00    +0.148 C 
ATOM     21  H   UNL     1      -0.157  -3.944   5.939  0.00  0.00    +0.153 HD
ATOM     22  H   UNL     1       0.656   1.569   6.318  0.00  0.00    +0.159 HD
ENDROOT
BRANCH   1  26
ATOM     23  C   UNL     1       0.731  -0.503   1.223  0.00  0.00    -0.045 A 
ATOM     24  C   UNL     1       2.050  -0.148   1.434  0.00  0.00    +0.004 A 
ATOM     25  C   UNL     1       2.719  -0.606   2.554  0.00  0.00    +0.004 A 
ATOM     26  C   UNL     1       2.068  -1.419   3.463  0.00  0.00    -0.039 A 
ATOM     27  C   UNL     1       0.749  -1.773   3.252  0.00  0.00    +0.004 A 
ATOM     28  C   UNL     1       0.079  -1.312   2.135  0.00  0.00    +0.004 A 
BRANCH  23  30
ATOM     29  C   UNL     1      -0.019   1.526   0.010  0.00  0.00    +0.012 C 
ATOM     30  C   UNL     1       0.002  -0.004   0.002  0.00  0.00    +0.013 C 
ATOM     31  C   UNL     1       0.718  -0.497  -1.257  0.00  0.00    +0.012 C 
ENDBRANCH  23  30
ENDBRANCH   1  26
TORSDOF 2
