REMARK  Name = ZINC13634845
REMARK  3 active torsions:
REMARK  status: ('A' for Active; 'I' for Inactive)
REMARK    1  A    between atoms: C_4  and  N_26
REMARK    2  A    between atoms: C_5  and  C_7
REMARK    3  A    between atoms: C_20  and  N_23
REMARK                            x       y       z     vdW  Elec       q    Type
REMARK                         _______ _______ _______ _____ _____    ______ ____
ROOT
ATOM      1  C   UNL     1       0.268   3.421  -1.394  0.00  0.00    +0.107 C 
ATOM      2  C   UNL     1      -0.999   2.952  -0.673  0.00  0.00    +0.029 C 
ATOM      3  C   UNL     1      -2.209   3.242  -1.605  0.00  0.00    +0.033 C 
ATOM      4  C   UNL     1      -2.209   2.064  -2.564  0.00  0.00    -0.030 C 
ATOM      5  C   UNL     1      -1.561   1.051  -2.045  0.00  0.00    -0.023 C 
ATOM      6  C   UNL     1      -1.030   1.408  -0.676  0.00  0.00    +0.049 C 
ATOM      7  C   UNL     1       0.339   0.830  -0.472  0.00  0.00    -0.017 A 
ATOM      8  C   UNL     1       0.446  -0.542  -0.285  0.00  0.00    +0.006 A 
ATOM      9  C   UNL     1       1.679  -1.133  -0.101  0.00  0.00    +0.003 A 
ATOM     10  C   UNL     1       2.825  -0.358  -0.100  0.00  0.00    +0.034 A 
ATOM     11  C   UNL     1       2.729   1.005  -0.283  0.00  0.00    +0.147 A 
ATOM     12  C   UNL     1       1.484   1.606  -0.468  0.00  0.00    +0.062 A 
ATOM     13  N   UNL     1       1.445   2.990  -0.640  0.00  0.00    -0.335 N 
ATOM     14  H   UNL     1       2.294   3.325  -1.072  0.00  0.00    +0.147 HD
ENDROOT
BRANCH   1  19
ATOM     15  C   UNL     1      -0.612   7.045  -0.807  0.00  0.00    +0.000 A 
ATOM     16  C   UNL     1       0.245   7.683  -1.685  0.00  0.00    +0.002 A 
ATOM     17  C   UNL     1       1.108   6.941  -2.469  0.00  0.00    +0.033 A 
ATOM     18  C   UNL     1       1.116   5.562  -2.375  0.00  0.00    +0.131 A 
ATOM     19  C   UNL     1       0.260   4.924  -1.497  0.00  0.00    +0.003 A 
ATOM     20  C   UNL     1      -0.608   5.666  -0.716  0.00  0.00    +0.008 A 
BRANCH  18  21
ATOM     21  N   UNL     1       2.041   4.767  -3.215  0.00  0.00    +0.057 N 
ATOM     22  O   UNL     1       2.868   5.330  -3.909  0.00  0.00    -0.126 OA
ATOM     23  O   UNL     1       1.974   3.551  -3.211  0.00  0.00    -0.126 OA
ENDBRANCH  18  21
ENDBRANCH   1  19
BRANCH  11  24
ATOM     24  N   UNL     1       3.954   1.835  -0.282  0.00  0.00    +0.058 N 
ATOM     25  O   UNL     1       4.977   1.413  -0.791  0.00  0.00    -0.126 OA
ATOM     26  O   UNL     1       3.940   2.942   0.228  0.00  0.00    -0.126 OA
ENDBRANCH  11  24
TORSDOF 3
