REMARK  Name = ZINC31933832
REMARK  5 active torsions:
REMARK  status: ('A' for Active; 'I' for Inactive)
REMARK    1  A    between atoms: C_1  and  C_2
REMARK    2  A    between atoms: C_5  and  C_20
REMARK    3  A    between atoms: N_8  and  C_10
REMARK    4  A    between atoms: C_13  and  C_15
REMARK    5  A    between atoms: C_16  and  C_17
REMARK                            x       y       z     vdW  Elec       q    Type
REMARK                         _______ _______ _______ _____ _____    ______ ____
ROOT
ATOM      1  C   UNL     1       1.282   1.814  -0.000  0.00  0.00    +0.189 A 
ATOM      2  C   UNL     1      -0.017   1.392   0.010  0.00  0.00    +0.066 A 
ATOM      3  C   UNL     1       0.002  -0.004   0.002  0.00  0.00    +0.051 A 
ATOM      4  C   UNL     1       1.334  -0.384  -0.013  0.00  0.00    +0.130 A 
ATOM      5  O   UNL     1       2.087   0.740  -0.014  0.00  0.00    -0.442 OA
ENDROOT
BRANCH   1  11
ATOM      6  C   UNL     1       5.115   4.773  -0.147  0.00  0.00    +0.009 C 
ATOM      7  C   UNL     1       3.588   4.680  -0.154  0.00  0.00    +0.004 C 
ATOM      8  C   UNL     1       3.021   5.487   1.017  0.00  0.00    +0.009 C 
ATOM      9  C   UNL     1       1.497   5.340   1.037  0.00  0.00    +0.004 C 
ATOM     10  C   UNL     1       1.134   3.857   1.146  0.00  0.00    +0.111 C 
ATOM     11  N   UNL     1       1.699   3.129   0.003  0.00  0.00    -0.301 N 
ATOM     12  C   UNL     1       3.165   3.216  -0.011  0.00  0.00    +0.111 C 
ATOM     13  C   UNL     1       0.926   6.095   2.239  0.00  0.00    +0.009 C 
ENDBRANCH   1  11
BRANCH   4  14
ATOM     14  C   UNL     1       1.818  -1.705  -0.025  0.00  0.00    +0.053 C 
ATOM     15  C   UNL     1       3.161  -1.939  -0.038  0.00  0.00    +0.099 C 
BRANCH  15  16
ATOM     16  C   UNL     1       3.645  -3.260  -0.050  0.00  0.00    +0.380 C 
ATOM     17  O   UNL     1       2.865  -4.195  -0.048  0.00  0.00    -0.241 OA
ATOM     18  O   UNL     1       4.976  -3.491  -0.064  0.00  0.00    -0.241 OA
ENDBRANCH  15  16
ENDBRANCH   4  14
TORSDOF 3
