REMARK  Name = ZINC24227919
REMARK  6 active torsions:
REMARK  status: ('A' for Active; 'I' for Inactive)
REMARK    1  A    between atoms: C_4  and  C_7
REMARK    2  A    between atoms: C_7  and  N_8
REMARK    3  A    between atoms: N_8  and  C_9
REMARK    4  A    between atoms: N_8  and  C_20
REMARK    5  A    between atoms: C_9  and  C_10
REMARK    6  A    between atoms: C_15  and  O_16
REMARK                            x       y       z     vdW  Elec       q    Type
REMARK                         _______ _______ _______ _____ _____    ______ ____
ROOT
ATOM      1  N   UNL     1       4.251  -0.849   1.351  0.00  0.00    +0.388 N 
ATOM      2  H   UNL     1       4.470  -0.125   2.019  0.00  0.00    -0.080 HD
ENDROOT
BRANCH   1   3
ATOM      3  C   UNL     1       3.372  -1.845   1.978  0.00  0.00    -0.045 C 
ATOM      4  C   UNL     1       3.389  -3.137   1.145  0.00  0.00    +0.009 C 
ATOM      5  C   UNL     1       2.716  -4.262   1.982  0.00  0.00    +0.164 C 
ATOM      6  S   UNL     1       3.408  -3.901   3.651  0.00  0.00    -0.033 S 
ATOM      7  O   UNL     1       4.591  -4.667   3.836  0.00  0.00    -0.174 OA
ATOM      8  O   UNL     1       2.365  -3.983   4.612  0.00  0.00    -0.174 OA
ATOM      9  C   UNL     1       3.870  -2.137   3.414  0.00  0.00    +0.151 C 
ENDBRANCH   1   3
BRANCH   1  10
ATOM     10  C   UNL     1       3.571  -0.255   0.192  0.00  0.00    -0.042 C 
BRANCH  10  14
ATOM     11  C   UNL     1       0.188   1.990   1.520  0.00  0.00    +0.000 A 
ATOM     12  C   UNL     1       1.444   2.567   1.519  0.00  0.00    +0.000 A 
ATOM     13  C   UNL     1       2.539   1.841   1.090  0.00  0.00    +0.002 A 
ATOM     14  C   UNL     1       2.378   0.536   0.661  0.00  0.00    -0.064 A 
ATOM     15  C   UNL     1       1.122  -0.041   0.662  0.00  0.00    +0.002 A 
ATOM     16  C   UNL     1       0.027   0.686   1.091  0.00  0.00    +0.000 A 
ENDBRANCH  10  14
ENDBRANCH   1  10
BRANCH   1  17
ATOM     17  C   UNL     1       5.492  -1.499   0.910  0.00  0.00    -0.038 C 
BRANCH  17  18
ATOM     18  C   UNL     1       6.286  -1.935   2.115  0.00  0.00    -0.019 A 
ATOM     19  C   UNL     1       6.433  -3.281   2.394  0.00  0.00    +0.055 A 
ATOM     20  C   UNL     1       7.162  -3.685   3.500  0.00  0.00    +0.167 A 
ATOM     21  C   UNL     1       7.748  -2.734   4.332  0.00  0.00    +0.170 A 
ATOM     22  C   UNL     1       7.600  -1.386   4.049  0.00  0.00    +0.095 A 
ATOM     23  C   UNL     1       6.873  -0.986   2.938  0.00  0.00    +0.122 A 
ATOM     24  O   UNL     1       8.404  -3.380   5.340  0.00  0.00    -0.452 OA
ATOM     25  C   UNL     1       7.873  -4.718   5.349  0.00  0.00    +0.466 C 
ATOM     26  O   UNL     1       7.452  -4.928   3.988  0.00  0.00    -0.453 OA
BRANCH  23  27
ATOM     27  O   UNL     1       6.732   0.337   2.658  0.00  0.00    -0.506 OA
ATOM     28  H   UNL     1       5.959   0.746   3.069  0.00  0.00    +0.292 HD
ENDBRANCH  23  27
ENDBRANCH  17  18
ENDBRANCH   1  17
TORSDOF 6
