REMARK  Name = ZINC12376345
REMARK  9 active torsions:
REMARK  status: ('A' for Active; 'I' for Inactive)
REMARK    1  A    between atoms: C_4  and  C_7
REMARK    2  A    between atoms: C_7  and  C_8
REMARK    3  A    between atoms: C_8  and  C_9
REMARK    4  A    between atoms: C_12  and  S_20
REMARK    5  A    between atoms: N_13  and  C_14
REMARK    6  A    between atoms: S_20  and  C_21
REMARK    7  A    between atoms: C_21  and  C_22
REMARK    8  A    between atoms: C_25  and  C_27
REMARK    9  A    between atoms: C_30  and  N_33
REMARK                            x       y       z     vdW  Elec       q    Type
REMARK                         _______ _______ _______ _____ _____    ______ ____
ROOT
ATOM      1  C   UNL     1      -1.412  -0.526   0.013  0.00  0.00    +0.139 A 
ATOM      2  N   UNL     1      -2.124  -0.804   1.068  0.00  0.00    -0.133 NA
ATOM      3  N   UNL     1      -3.288  -1.224   0.718  0.00  0.00    -0.122 NA
ATOM      4  C   UNL     1      -3.380  -1.246  -0.592  0.00  0.00    +0.196 A 
ATOM      5  N   UNL     1      -2.184  -0.801  -1.085  0.00  0.00    -0.274 N 
ENDROOT
BRANCH   5   6
ATOM      6  C   UNL     1      -1.824  -0.656  -2.432  0.00  0.00    +0.050 A 
ATOM      7  C   UNL     1      -1.569   0.605  -2.953  0.00  0.00    +0.026 A 
ATOM      8  C   UNL     1      -1.208   0.744  -4.279  0.00  0.00    +0.002 A 
ATOM      9  C   UNL     1      -1.113  -0.371  -5.091  0.00  0.00    +0.000 A 
ATOM     10  C   UNL     1      -1.372  -1.629  -4.577  0.00  0.00    +0.002 A 
ATOM     11  C   UNL     1      -1.727  -1.774  -3.250  0.00  0.00    +0.026 A 
ENDBRANCH   5   6
BRANCH   1  12
ATOM     12  C   UNL     1       0.002  -0.004   0.002  0.00  0.00    +0.081 C 
BRANCH  12  13
ATOM     13  C   UNL     1      -0.019   1.526   0.010  0.00  0.00    +0.043 C 
BRANCH  13  17
ATOM     14  C   UNL     1       3.989   3.005  -0.020  0.00  0.00    +0.000 A 
ATOM     15  C   UNL     1       3.329   2.772  -1.212  0.00  0.00    +0.000 A 
ATOM     16  C   UNL     1       2.032   2.293  -1.202  0.00  0.00    +0.003 A 
ATOM     17  C   UNL     1       1.395   2.047  -0.000  0.00  0.00    -0.047 A 
ATOM     18  C   UNL     1       2.053   2.285   1.192  0.00  0.00    +0.003 A 
ATOM     19  C   UNL     1       3.352   2.759   1.182  0.00  0.00    +0.000 A 
ENDBRANCH  13  17
ENDBRANCH  12  13
ENDBRANCH   1  12
BRANCH   4  20
ATOM     20  S   UNL     1      -4.779  -1.754  -1.535  0.00  0.00    -0.079 S 
BRANCH  20  21
ATOM     21  C   UNL     1      -5.919  -2.187  -0.198  0.00  0.00    +0.133 C 
BRANCH  21  22
ATOM     22  C   UNL     1      -7.223  -2.662  -0.785  0.00  0.00    +0.059 A 
ATOM     23  C   UNL     1      -7.405  -3.981  -1.060  0.00  0.00    +0.071 A 
ATOM     24  S   UNL     1      -9.071  -3.956  -1.711  0.00  0.00    -0.075 S 
ATOM     25  C   UNL     1      -9.342  -2.196  -1.546  0.00  0.00    +0.109 A 
ATOM     26  N   UNL     1      -8.187  -1.805  -1.026  0.00  0.00    -0.243 NA
BRANCH  25  27
ATOM     27  C   UNL     1     -10.535  -1.394  -1.892  0.00  0.00    +0.007 A 
ATOM     28  C   UNL     1     -10.540  -0.016  -1.675  0.00  0.00    +0.013 A 
ATOM     29  C   UNL     1     -11.655   0.728  -2.004  0.00  0.00    +0.033 A 
ATOM     30  C   UNL     1     -12.770   0.108  -2.538  0.00  0.00    +0.126 A 
ATOM     31  C   UNL     1     -12.774  -1.259  -2.750  0.00  0.00    +0.033 A 
ATOM     32  C   UNL     1     -11.664  -2.013  -2.430  0.00  0.00    +0.013 A 
BRANCH  30  33
ATOM     33  N   UNL     1     -13.965   0.910  -2.883  0.00  0.00    +0.056 N 
ATOM     34  O   UNL     1     -14.949   0.367  -3.353  0.00  0.00    -0.126 OA
ATOM     35  O   UNL     1     -13.964   2.114  -2.697  0.00  0.00    -0.126 OA
ENDBRANCH  30  33
ENDBRANCH  25  27
ENDBRANCH  21  22
ENDBRANCH  20  21
ENDBRANCH   4  20
TORSDOF 9
