REMARK  Name = ZINC21346314
REMARK  13 active torsions:
REMARK  status: ('A' for Active; 'I' for Inactive)
REMARK    1  A    between atoms: C_1  and  C_2
REMARK    2  A    between atoms: C_2  and  N_3
REMARK    3  A    between atoms: N_3  and  C_4
REMARK    4  A    between atoms: N_3  and  S_6
REMARK    5  A    between atoms: C_4  and  C_5
REMARK    6  A    between atoms: S_6  and  C_9
REMARK    7  A    between atoms: C_13  and  N_15
REMARK    8  A    between atoms: C_16  and  C_18
REMARK    9  A    between atoms: C_18  and  C_20
REMARK   10  A    between atoms: C_18  and  O_21
REMARK   11  A    between atoms: O_21  and  C_22
REMARK   12  A    between atoms: C_22  and  C_24
REMARK   13  A    between atoms: C_28  and  N_30
REMARK                            x       y       z     vdW  Elec       q    Type
REMARK                         _______ _______ _______ _____ _____    ______ ____
ROOT
ATOM      1  N   UNL     1       5.867   6.288  -0.940  0.00  0.00    -0.281 N 
ATOM      2  C   UNL     1       5.010   5.286  -1.220  0.00  0.00    +0.258 C 
ATOM      3  O   UNL     1       4.134   5.449  -2.042  0.00  0.00    -0.271 OA
ATOM      4  H   UNL     1       6.614   6.167  -0.142  0.00  0.00    +0.155 HD
ENDROOT
BRANCH   1   9
ATOM      5  C   UNL     1       4.523   9.151  -2.817  0.00  0.00    +0.107 A 
ATOM      6  C   UNL     1       5.683   9.849  -3.098  0.00  0.00    +0.030 A 
ATOM      7  C   UNL     1       6.905   9.368  -2.664  0.00  0.00    +0.024 A 
ATOM      8  C   UNL     1       6.969   8.190  -1.943  0.00  0.00    +0.062 A 
ATOM      9  C   UNL     1       5.805   7.484  -1.665  0.00  0.00    +0.054 A 
ATOM     10  C   UNL     1       4.580   7.970  -2.103  0.00  0.00    +0.053 A 
ATOM     11 CL   UNL     1       8.502   7.591  -1.393  0.00  0.00    -0.082 Cl
BRANCH   5  12
ATOM     12  S   UNL     1       2.969   9.768  -3.373  0.00  0.00    +0.061 S 
ATOM     13  O   UNL     1       3.240  10.606  -4.488  0.00  0.00    -0.153 OA
ATOM     14  O   UNL     1       2.094   8.652  -3.453  0.00  0.00    -0.153 OA
BRANCH  12  15
ATOM     15  N   UNL     1       2.377  10.749  -2.177  0.00  0.00    -0.177 NA
BRANCH  15  17
ATOM     16  C   UNL     1       1.575  12.955  -2.865  0.00  0.00    +0.022 C 
ATOM     17  C   UNL     1       2.698  12.178  -2.175  0.00  0.00    +0.106 C 
ENDBRANCH  15  17
BRANCH  15  18
ATOM     18  C   UNL     1       1.531  10.188  -1.121  0.00  0.00    +0.106 C 
ATOM     19  C   UNL     1       2.394   9.842   0.094  0.00  0.00    +0.022 C 
ENDBRANCH  15  18
ENDBRANCH  12  15
ENDBRANCH   5  12
ENDBRANCH   1   9
BRANCH   2  20
ATOM     20  C   UNL     1       5.141   3.963  -0.510  0.00  0.00    +0.259 C 
ATOM     21  C   UNL     1       4.859   4.155   0.982  0.00  0.00    +0.062 C 
BRANCH  20  22
ATOM     22  O   UNL     1       4.187   3.020  -1.065  0.00  0.00    -0.449 OA
BRANCH  22  23
ATOM     23  C   UNL     1       4.530   1.717  -1.042  0.00  0.00    +0.340 C 
ATOM     24  O   UNL     1       5.598   1.379  -0.571  0.00  0.00    -0.245 OA
BRANCH  23  25
ATOM     25  C   UNL     1       3.609   0.701  -1.589  0.00  0.00    +0.061 A 
ATOM     26  C   UNL     1       2.381   1.087  -2.131  0.00  0.00    +0.016 A 
ATOM     27  C   UNL     1       1.522   0.136  -2.641  0.00  0.00    +0.022 A 
ATOM     28  C   UNL     1       1.873  -1.202  -2.618  0.00  0.00    +0.062 A 
ATOM     29  C   UNL     1       3.094  -1.597  -2.081  0.00  0.00    +0.044 A 
ATOM     30  C   UNL     1       3.963  -0.649  -1.566  0.00  0.00    +0.039 A 
ATOM     31 CL   UNL     1       0.785  -2.392  -3.263  0.00  0.00    -0.082 Cl
BRANCH  29  32
ATOM     32  N   UNL     1       3.443  -2.951  -2.060  0.00  0.00    -0.357 N 
ATOM     33  H   UNL     1       4.409  -3.263  -1.635  0.00  0.00    +0.142 HD
ATOM     34  H   UNL     1       2.753  -3.703  -2.469  0.00  0.00    +0.142 HD
ENDBRANCH  29  32
ENDBRANCH  23  25
ENDBRANCH  22  23
ENDBRANCH  20  22
ENDBRANCH   2  20
TORSDOF 10
