REMARK  Name = ZINC37866175
REMARK  9 active torsions:
REMARK  status: ('A' for Active; 'I' for Inactive)
REMARK    1  A    between atoms: C_1  and  C_2
REMARK    2  A    between atoms: C_5  and  N_9
REMARK    3  A    between atoms: C_6  and  C_8
REMARK    4  A    between atoms: C_10  and  C_31
REMARK    5  A    between atoms: C_13  and  S_14
REMARK    6  A    between atoms: S_14  and  C_15
REMARK    7  A    between atoms: C_15  and  C_16
REMARK    8  A    between atoms: C_18  and  O_19
REMARK    9  A    between atoms: C_28  and  C_30
REMARK                            x       y       z     vdW  Elec       q    Type
REMARK                         _______ _______ _______ _____ _____    ______ ____
ROOT
ATOM      1  N   UNL     1      -0.018  -4.944  -0.182  0.00  0.00    -0.270 N 
ATOM      2  C   UNL     1      -0.988  -5.919  -0.275  0.00  0.00    +0.171 A 
ATOM      3  N   UNL     1      -0.366  -7.074  -0.338  0.00  0.00    -0.128 NA
ATOM      4  N   UNL     1       0.905  -6.894  -0.291  0.00  0.00    -0.122 NA
ATOM      5  C   UNL     1       1.176  -5.611  -0.200  0.00  0.00    +0.197 A 
ENDROOT
BRANCH   1  10
ATOM      6  C   UNL     1      -0.817   0.663   0.179  0.00  0.00    +0.044 C 
ATOM      7  C   UNL     1      -0.605  -0.826   0.083  0.00  0.00    -0.050 A 
ATOM      8  C   UNL     1      -0.480  -1.427  -1.156  0.00  0.00    +0.005 A 
ATOM      9  C   UNL     1      -0.286  -2.791  -1.247  0.00  0.00    +0.027 A 
ATOM     10  C   UNL     1      -0.215  -3.559  -0.093  0.00  0.00    +0.053 A 
ATOM     11  C   UNL     1      -0.341  -2.953   1.150  0.00  0.00    -0.026 A 
ATOM     12  C   UNL     1      -0.530  -1.587   1.235  0.00  0.00    +0.008 A 
ATOM     13  C   UNL     1      -0.266  -3.784   2.405  0.00  0.00    +0.046 C 
ENDBRANCH   1  10
BRANCH   2  14
ATOM     14  C   UNL     1      -2.450  -5.705  -0.300  0.00  0.00    +0.038 A 
ATOM     15  C   UNL     1      -3.329  -6.772  -0.079  0.00  0.00    +0.014 A 
ATOM     16  C   UNL     1      -4.689  -6.519  -0.113  0.00  0.00    +0.020 A 
ATOM     17  C   UNL     1      -5.132  -5.232  -0.361  0.00  0.00    +0.111 A 
ATOM     18  N   UNL     1      -4.280  -4.246  -0.566  0.00  0.00    -0.263 NA
ATOM     19  C   UNL     1      -2.977  -4.435  -0.538  0.00  0.00    +0.122 A 
ENDBRANCH   2  14
BRANCH   5  20
ATOM     20  S   UNL     1       2.780  -4.885  -0.114  0.00  0.00    -0.081 S 
BRANCH  20  21
ATOM     21  C   UNL     1       3.908  -6.303  -0.185  0.00  0.00    +0.113 C 
BRANCH  21  22
ATOM     22  C   UNL     1       5.332  -5.816  -0.120  0.00  0.00    -0.020 A 
ATOM     23  C   UNL     1       5.923  -5.215  -1.213  0.00  0.00    +0.092 A 
ATOM     24  C   UNL     1       7.236  -4.773  -1.134  0.00  0.00    +0.285 A 
ATOM     25  O   UNL     1       7.952  -4.914  -0.014  0.00  0.00    -0.425 OA
ATOM     26  C   UNL     1       7.424  -5.494   1.084  0.00  0.00    +0.141 A 
ATOM     27  C   UNL     1       6.090  -5.958   1.062  0.00  0.00    +0.022 A 
ATOM     28  C   UNL     1       5.534  -6.559   2.205  0.00  0.00    +0.013 A 
ATOM     29  C   UNL     1       6.279  -6.687   3.334  0.00  0.00    +0.024 A 
ATOM     30  C   UNL     1       7.606  -6.223   3.367  0.00  0.00    +0.037 A 
ATOM     31  C   UNL     1       8.176  -5.635   2.237  0.00  0.00    +0.070 A 
ATOM     32  N   UNL     1       8.342  -6.357   4.504  0.00  0.00    -0.286 N 
ATOM     33  C   UNL     1       9.451  -5.661   4.658  0.00  0.00    +0.214 C 
ATOM     34  O   UNL     1       9.754  -4.809   3.841  0.00  0.00    -0.276 OA
ATOM     35  C   UNL     1      10.345  -5.918   5.844  0.00  0.00    +0.109 C 
ATOM     36  H   UNL     1       8.051  -6.966   5.201  0.00  0.00    +0.155 HD
BRANCH  24  37
ATOM     37  O   UNL     1       7.801  -4.188  -2.208  0.00  0.00    -0.480 OA
ATOM     38  H   UNL     1       8.716  -3.909  -2.068  0.00  0.00    +0.295 HD
ENDBRANCH  24  37
ENDBRANCH  21  22
ENDBRANCH  20  21
ENDBRANCH   5  20
TORSDOF 6
