REMARK  Name = ZINC14748629
REMARK  7 active torsions:
REMARK  status: ('A' for Active; 'I' for Inactive)
REMARK    1  A    between atoms: C_1  and  N_2
REMARK    2  A    between atoms: C_5  and  C_7
REMARK    3  A    between atoms: N_9  and  C_10
REMARK    4  A    between atoms: C_10  and  C_11
REMARK    5  A    between atoms: C_18  and  N_66
REMARK    6  A    between atoms: C_22  and  C_23
REMARK    7  A    between atoms: C_22  and  N_66
REMARK                            x       y       z     vdW  Elec       q    Type
REMARK                         _______ _______ _______ _____ _____    ______ ____
ROOT
ATOM      1  C   UNL     1       1.313  -1.360   6.839  0.00  0.00    +0.172 C 
ATOM      2  N   UNL     1       0.881  -0.081   6.270  0.00  0.00    -0.270 N 
ATOM      3  C   UNL     1       0.481   0.102   5.001  0.00  0.00    +0.043 A 
ATOM      4  C   UNL     1       0.167   1.413   4.864  0.00  0.00    +0.004 A 
ATOM      5  C   UNL     1       0.400   1.999   6.120  0.00  0.00    +0.150 A 
ATOM      6  N   UNL     1       0.829   1.034   6.914  0.00  0.00    -0.166 NA
ATOM      7  C   UNL     1      -0.323   2.046   3.591  0.00  0.00    +0.023 C 
ATOM      8  C   UNL     1      -0.016   1.091   2.429  0.00  0.00    -0.067 C 
ATOM      9  C   UNL     1      -0.507  -0.316   2.781  0.00  0.00    -0.009 C 
ATOM     10  C   UNL     1       0.374  -0.908   3.887  0.00  0.00    +0.054 C 
ENDROOT
BRANCH   5  11
ATOM     11  C   UNL     1       0.203   3.418   6.481  0.00  0.00    +0.265 C 
ATOM     12  O   UNL     1      -0.199   4.207   5.649  0.00  0.00    -0.268 OA
ATOM     13  N   UNL     1       0.470   3.837   7.734  0.00  0.00    -0.306 N 
ATOM     14  H   UNL     1       0.791   3.207   8.398  0.00  0.00    +0.149 HD
BRANCH  13  15
ATOM     15  C   UNL     1       0.276   5.244   8.093  0.00  0.00    +0.140 C 
BRANCH  15  16
ATOM     16  C   UNL     1       0.643   5.448   9.540  0.00  0.00    -0.027 A 
ATOM     17  C   UNL     1      -0.309   5.314  10.540  0.00  0.00    +0.025 A 
ATOM     18  C   UNL     1       0.066   5.504  11.857  0.00  0.00    +0.111 A 
ATOM     19  N   UNL     1       1.309   5.820  12.165  0.00  0.00    -0.263 NA
ATOM     20  C   UNL     1       2.238   5.962  11.241  0.00  0.00    +0.111 A 
ATOM     21  C   UNL     1       1.939   5.781   9.903  0.00  0.00    +0.025 A 
ENDBRANCH  15  16
ENDBRANCH  13  15
ENDBRANCH   5  11
BRANCH   8  22
ATOM     22  N   UNL     1      -0.709   1.566   1.217  0.00  0.00    +0.381 N 
ATOM     23  H   UNL     1      -0.723   2.592   1.214  0.00  0.00    -0.086 HD
ATOM     24  H   UNL     1      -1.672   1.210   1.216  0.00  0.00    -0.086 HD
BRANCH  22  25
ATOM     25  C   UNL     1      -0.013   1.086   0.008  0.00  0.00    -0.078 C 
BRANCH  25  26
ATOM     26  C   UNL     1      -0.753   1.593  -1.232  0.00  0.00    -0.022 C 
ATOM     27  C   UNL     1      -2.147   0.964  -1.286  0.00  0.00    -0.009 C 
ATOM     28  C   UNL     1      -2.886   1.471  -2.526  0.00  0.00    +0.007 C 
ATOM     29  C   UNL     1      -2.103   1.083  -3.781  0.00  0.00    -0.010 C 
ATOM     30  C   UNL     1      -1.973  -0.439  -3.852  0.00  0.00    +0.007 C 
ATOM     31  C   UNL     1      -1.233  -0.946  -2.612  0.00  0.00    -0.010 C 
ATOM     32  C   UNL     1      -2.017  -0.559  -1.357  0.00  0.00    +0.007 C 
ATOM     33  C   UNL     1       0.161  -0.318  -2.558  0.00  0.00    +0.007 C 
ATOM     34  C   UNL     1       0.031   1.205  -2.487  0.00  0.00    -0.009 C 
ATOM     35  C   UNL     1      -0.709   1.712  -3.727  0.00  0.00    +0.007 C 
ENDBRANCH  25  26
ENDBRANCH  22  25
ENDBRANCH   8  22
TORSDOF 6
