REMARK  Name = ZINC04729587
REMARK  6 active torsions:
REMARK  status: ('A' for Active; 'I' for Inactive)
REMARK    1  A    between atoms: C_1  and  O_2
REMARK    2  A    between atoms: O_2  and  C_3
REMARK    3  A    between atoms: C_8  and  C_9
REMARK    4  A    between atoms: C_12  and  C_26
REMARK    5  A    between atoms: C_15  and  C_17
REMARK    6  A    between atoms: C_31  and  O_32
REMARK                            x       y       z     vdW  Elec       q    Type
REMARK                         _______ _______ _______ _____ _____    ______ ____
ROOT
ATOM      1  C   UNL     1       0.018  -2.829  -0.013  0.00  0.00    +0.084 C 
ATOM      2  N   UNL     1      -0.243  -4.157   0.554  0.00  0.00    +0.401 N 
ATOM      3  C   UNL     1       1.033  -4.878   0.690  0.00  0.00    -0.028 C 
ATOM      4  C   UNL     1       1.857  -4.193   1.785  0.00  0.00    +0.044 C 
ATOM      5  C   UNL     1       1.861  -2.707   1.551  0.00  0.00    +0.040 C 
ATOM      6  N   UNL     1       1.038  -2.129   0.758  0.00  0.00    -0.298 NA
ATOM      7  H   UNL     1      -0.674  -4.058   1.461  0.00  0.00    -0.081 HD
ATOM      8  H   UNL     1      -0.858  -4.670  -0.060  0.00  0.00    -0.081 HD
ENDROOT
BRANCH   5   9
ATOM      9  C   UNL     1       2.852  -1.882   2.266  0.00  0.00    -0.001 A 
ATOM     10  C   UNL     1       3.767  -2.482   3.134  0.00  0.00    +0.013 A 
ATOM     11  C   UNL     1       4.693  -1.710   3.801  0.00  0.00    +0.050 A 
ATOM     12  C   UNL     1       4.721  -0.335   3.613  0.00  0.00    +0.166 A 
ATOM     13  C   UNL     1       3.810   0.271   2.747  0.00  0.00    +0.167 A 
ATOM     14  C   UNL     1       2.883  -0.499   2.071  0.00  0.00    +0.059 A 
ATOM     15  O   UNL     1       4.045   1.616   2.739  0.00  0.00    -0.453 OA
ATOM     16  C   UNL     1       4.835   1.875   3.914  0.00  0.00    +0.466 C 
ATOM     17  O   UNL     1       5.524   0.632   4.144  0.00  0.00    -0.453 OA
ENDBRANCH   5   9
BRANCH   1  23
ATOM     18  C   UNL     1      -1.200  -0.637   0.010  0.00  0.00    +0.123 A 
ATOM     19  C   UNL     1      -2.375   0.101   0.019  0.00  0.00    +0.046 A 
ATOM     20  C   UNL     1      -3.596  -0.545   0.027  0.00  0.00    +0.004 A 
ATOM     21  C   UNL     1      -3.648  -1.927   0.026  0.00  0.00    +0.000 A 
ATOM     22  C   UNL     1      -2.479  -2.665   0.017  0.00  0.00    +0.007 A 
ATOM     23  C   UNL     1      -1.255  -2.023   0.003  0.00  0.00    +0.001 A 
BRANCH  18  25
ATOM     24  C   UNL     1      -0.017   1.425   0.010  0.00  0.00    +0.277 C 
ATOM     25  O   UNL     1       0.002  -0.004   0.002  0.00  0.00    -0.495 OA
ENDBRANCH  18  25
ENDBRANCH   1  23
BRANCH   3  26
ATOM     26  C   UNL     1       0.769  -6.311   1.073  0.00  0.00    -0.019 A 
ATOM     27  C   UNL     1      -0.445  -6.665   1.631  0.00  0.00    +0.005 A 
ATOM     28  C   UNL     1      -0.688  -7.980   1.982  0.00  0.00    +0.000 A 
ATOM     29  C   UNL     1       0.282  -8.944   1.777  0.00  0.00    +0.004 A 
ATOM     30  C   UNL     1       1.497  -8.595   1.219  0.00  0.00    +0.045 A 
ATOM     31  C   UNL     1       1.741  -7.277   0.860  0.00  0.00    +0.118 A 
BRANCH  31  32
ATOM     32  O   UNL     1       2.933  -6.932   0.306  0.00  0.00    -0.507 OA
ATOM     33  H   UNL     1       3.608  -6.678   0.950  0.00  0.00    +0.292 HD
ENDBRANCH  31  32
ENDBRANCH   3  26
TORSDOF 5
