REMARK  Name = ZINC08790444
REMARK  5 active torsions:
REMARK  status: ('A' for Active; 'I' for Inactive)
REMARK    1  A    between atoms: C_16  and  C_18
REMARK    2  A    between atoms: C_18  and  C_19
REMARK    3  A    between atoms: C_19  and  C_20
REMARK    4  A    between atoms: N_24  and  C_27
REMARK    5  A    between atoms: C_27  and  C_28
REMARK                            x       y       z     vdW  Elec       q    Type
REMARK                         _______ _______ _______ _____ _____    ______ ____
ROOT
ATOM      1  C   UNL     1      -6.784   0.133   0.063  0.00  0.00    +0.002 A 
ATOM      2  C   UNL     1      -5.927  -0.082   1.129  0.00  0.00    +0.004 A 
ATOM      3  C   UNL     1      -6.124   0.585   2.317  0.00  0.00    -0.026 A 
ATOM      4  C   UNL     1      -7.179   1.481   2.461  0.00  0.00    +0.054 A 
ATOM      5  C   UNL     1      -8.036   1.693   1.383  0.00  0.00    +0.062 A 
ATOM      6  C   UNL     1      -7.836   1.021   0.194  0.00  0.00    +0.022 A 
ATOM      7 CL   UNL     1      -9.360   2.805   1.536  0.00  0.00    -0.082 Cl
ATOM      8  N   UNL     1      -7.174   2.032   3.745  0.00  0.00    -0.285 N 
ATOM      9  C   UNL     1      -6.163   1.556   4.497  0.00  0.00    +0.211 C 
ATOM     10  O   UNL     1      -5.913   1.854   5.646  0.00  0.00    -0.277 OA
ATOM     11  C   UNL     1      -5.403   0.584   3.635  0.00  0.00    +0.050 C 
ATOM     12  C   UNL     1      -3.937   1.002   3.479  0.00  0.00    +0.088 C 
ATOM     13  C   UNL     1      -3.146  -0.336   3.466  0.00  0.00    +0.073 C 
ATOM     14  C   UNL     1      -4.225  -1.433   3.586  0.00  0.00    -0.057 C 
ATOM     15  C   UNL     1      -2.557  -0.377   2.074  0.00  0.00    +0.224 C 
ATOM     16  O   UNL     1      -1.857  -1.265   1.636  0.00  0.00    -0.275 OA
ATOM     17  N   UNL     1      -2.925   0.719   1.401  0.00  0.00    -0.237 N 
ATOM     18  C   UNL     1      -3.707   1.558   2.092  0.00  0.00    +0.225 C 
ATOM     19  O   UNL     1      -4.159   2.601   1.671  0.00  0.00    -0.275 OA
ATOM     20  H   UNL     1      -7.823   2.682   4.058  0.00  0.00    +0.155 HD
ATOM     21  N   UNL     1      -5.357  -0.748   4.213  0.00  0.00    +0.394 N 
ATOM     22  H   UNL     1      -6.230  -1.251   4.015  0.00  0.00    -0.083 HD
ATOM     23  H   UNL     1      -5.218  -0.690   5.229  0.00  0.00    -0.083 HD
ENDROOT
BRANCH  14  24
ATOM     24  C   UNL     1      -3.719  -2.587   4.455  0.00  0.00    -0.004 C 
BRANCH  24  25
ATOM     25  C   UNL     1      -4.786  -3.682   4.520  0.00  0.00    +0.123 C 
BRANCH  25  26
ATOM     26  C   UNL     1      -4.289  -4.818   5.376  0.00  0.00    +0.356 C 
ATOM     27  O   UNL     1      -3.193  -4.758   5.882  0.00  0.00    -0.246 OA
ATOM     28  O   UNL     1      -5.062  -5.896   5.576  0.00  0.00    -0.246 OA
ENDBRANCH  25  26
ENDBRANCH  24  25
ENDBRANCH  14  24
BRANCH  17  29
ATOM     29  C   UNL     1      -2.513   0.977   0.019  0.00  0.00    +0.151 C 
BRANCH  29  30
ATOM     30  C   UNL     1      -1.219   1.750   0.017  0.00  0.00    -0.026 A 
ATOM     31  C   UNL     1      -1.242   3.133   0.028  0.00  0.00    +0.009 A 
ATOM     32  C   UNL     1      -0.058   3.846   0.022  0.00  0.00    +0.050 A 
ATOM     33  C   UNL     1       1.155   3.177   0.008  0.00  0.00    +0.166 A 
ATOM     34  C   UNL     1       1.178   1.784   0.000  0.00  0.00    +0.167 A 
ATOM     35  C   UNL     1      -0.013   1.076   0.008  0.00  0.00    +0.054 A 
ATOM     36  O   UNL     1       2.478   1.369  -0.014  0.00  0.00    -0.453 OA
ATOM     37  C   UNL     1       3.244   2.517  -0.427  0.00  0.00    +0.466 C 
ATOM     38  O   UNL     1       2.441   3.634  -0.002  0.00  0.00    -0.453 OA
ENDBRANCH  29  30
ENDBRANCH  17  29
TORSDOF 5
