REMARK  Name = ZINC03329559
REMARK  3 active torsions:
REMARK  status: ('A' for Active; 'I' for Inactive)
REMARK    1  A    between atoms: C_1  and  C_2
REMARK    2  A    between atoms: N_11  and  C_15
REMARK    3  A    between atoms: C_15  and  C_16
REMARK                            x       y       z     vdW  Elec       q    Type
REMARK                         _______ _______ _______ _____ _____    ______ ____
ROOT
ATOM      1  C   UNL     1      -0.019   1.526   0.010  0.00  0.00    +0.010 C 
ATOM      2  C   UNL     1       0.002  -0.004   0.002  0.00  0.00    +0.018 C 
ATOM      3  C   UNL     1       0.718  -0.498  -1.258  0.00  0.00    +0.006 C 
ATOM      4  C   UNL     1       0.756  -2.027  -1.255  0.00  0.00    +0.000 C 
ATOM      5  C   UNL     1       1.516  -2.519  -0.021  0.00  0.00    +0.003 C 
ATOM      6  C   UNL     1       0.803  -2.032   1.243  0.00  0.00    +0.035 C 
ATOM      7  C   UNL     1       0.739  -0.509   1.238  0.00  0.00    +0.115 C 
ATOM      8  C   UNL     1       0.069  -0.004   2.495  0.00  0.00    +0.247 C 
ATOM      9  O   UNL     1      -1.064  -0.228   2.863  0.00  0.00    -0.273 OA
ATOM     10  N   UNL     1       0.998   0.746   3.122  0.00  0.00    -0.215 N 
ATOM     11  C   UNL     1       2.148   0.781   2.437  0.00  0.00    +0.310 C 
ATOM     12  O   UNL     1       3.133   1.393   2.801  0.00  0.00    -0.252 OA
ATOM     13  N   UNL     1       2.091   0.063   1.300  0.00  0.00    -0.285 N 
ATOM     14  H   UNL     1       2.801  -0.054   0.650  0.00  0.00    +0.151 HD
ENDROOT
BRANCH  10  15
ATOM     15  C   UNL     1       0.777   1.438   4.394  0.00  0.00    +0.214 C 
BRANCH  15  16
ATOM     16  C   UNL     1       1.154   0.526   5.534  0.00  0.00    +0.238 C 
ATOM     17  O   UNL     1       1.567  -0.591   5.305  0.00  0.00    -0.274 OA
ATOM     18  N   UNL     1       1.032   0.953   6.806  0.00  0.00    -0.270 N 
ATOM     19  C   UNL     1       1.371   0.163   7.993  0.00  0.00    +0.118 C 
ATOM     20  C   UNL     1       1.060   1.077   9.189  0.00  0.00    +0.056 C 
ATOM     21  C   UNL     1       0.552   2.358   8.566  0.00  0.00    -0.024 A 
ATOM     22  C   UNL     1       0.569   2.216   7.188  0.00  0.00    +0.040 A 
ATOM     23  C   UNL     1       0.144   3.280   6.391  0.00  0.00    +0.024 A 
ATOM     24  C   UNL     1      -0.281   4.457   6.971  0.00  0.00    +0.002 A 
ATOM     25  C   UNL     1      -0.290   4.590   8.347  0.00  0.00    +0.000 A 
ATOM     26  C   UNL     1       0.121   3.537   9.143  0.00  0.00    +0.005 A 
ENDBRANCH  15  16
ENDBRANCH  10  15
TORSDOF 2
