REMARK  Name = ZINC15830186
REMARK  9 active torsions:
REMARK  status: ('A' for Active; 'I' for Inactive)
REMARK    1  A    between atoms: C_1  and  C_2
REMARK    2  A    between atoms: C_2  and  O_3
REMARK    3  A    between atoms: O_3  and  C_4
REMARK    4  A    between atoms: C_12  and  C_24
REMARK    5  A    between atoms: C_15  and  C_17
REMARK    6  A    between atoms: C_22  and  O_23
REMARK    7  A    between atoms: C_28  and  O_31
REMARK    8  A    between atoms: C_29  and  O_30
REMARK    9  A    between atoms: O_31  and  C_32
REMARK                            x       y       z     vdW  Elec       q    Type
REMARK                         _______ _______ _______ _____ _____    ______ ____
ROOT
ATOM      1  C   UNL     1      -2.364   4.841   0.049  0.00  0.00    +0.403 C 
ATOM      2  O   UNL     1      -2.838   5.239  -0.997  0.00  0.00    -0.226 OA
ATOM      3  N   UNL     1      -1.335   3.972   0.035  0.00  0.00    -0.267 N 
ATOM      4  C   UNL     1      -0.774   3.495  -1.236  0.00  0.00    +0.111 C 
ATOM      5  C   UNL     1      -0.768   1.963  -1.230  0.00  0.00    +0.029 C 
ATOM      6  C   UNL     1      -0.018   1.466   0.010  0.00  0.00    +0.032 C 
ATOM      7  C   UNL     1      -0.744   1.950   1.269  0.00  0.00    +0.029 C 
ATOM      8  C   UNL     1      -0.751   3.482   1.291  0.00  0.00    +0.111 C 
ATOM      9  C   UNL     1       0.855  -0.494  -1.094  0.00  0.00    -0.028 C 
ATOM     10  C   UNL     1       2.306  -0.126  -0.771  0.00  0.00    +0.044 C 
ATOM     11  C   UNL     1       2.374   1.314  -0.343  0.00  0.00    +0.044 C 
ATOM     12  N   UNL     1       1.343   1.992  -0.000  0.00  0.00    -0.300 NA
ATOM     13  N   UNL     1      -0.000  -0.007   0.005  0.00  0.00    +0.401 N 
ATOM     14  H   UNL     1      -0.956  -0.359  -0.125  0.00  0.00    -0.081 HD
ATOM     15  H   UNL     1       0.370  -0.346   0.901  0.00  0.00    -0.081 HD
ENDROOT
BRANCH  11  16
ATOM     16  C   UNL     1       3.690   1.977  -0.317  0.00  0.00    +0.037 A 
ATOM     17  C   UNL     1       4.839   1.273  -0.684  0.00  0.00    +0.013 A 
ATOM     18  C   UNL     1       6.066   1.899  -0.658  0.00  0.00    +0.001 A 
ATOM     19  C   UNL     1       6.166   3.224  -0.269  0.00  0.00    +0.004 A 
ATOM     20  C   UNL     1       5.038   3.932   0.097  0.00  0.00    +0.046 A 
ATOM     21  C   UNL     1       3.795   3.320   0.071  0.00  0.00    +0.126 A 
BRANCH  21  22
ATOM     22  O   UNL     1       2.685   4.016   0.424  0.00  0.00    -0.506 OA
ATOM     23  H   UNL     1       2.473   3.967   1.367  0.00  0.00    +0.292 HD
ENDBRANCH  21  22
ENDBRANCH  11  16
BRANCH   9  24
ATOM     24  C   UNL     1       0.724  -1.991  -1.211  0.00  0.00    -0.016 A 
ATOM     25  C   UNL     1       0.252  -2.729  -0.141  0.00  0.00    +0.006 A 
ATOM     26  C   UNL     1       0.126  -4.101  -0.246  0.00  0.00    +0.004 A 
ATOM     27  C   UNL     1       0.480  -4.743  -1.418  0.00  0.00    +0.049 A 
ATOM     28  C   UNL     1       0.959  -4.011  -2.492  0.00  0.00    +0.161 A 
ATOM     29  C   UNL     1       1.081  -2.628  -2.388  0.00  0.00    +0.160 A 
BRANCH  29  30
ATOM     30  O   UNL     1       1.550  -1.904  -3.439  0.00  0.00    -0.503 OA
ATOM     31  H   UNL     1       2.510  -1.790  -3.441  0.00  0.00    +0.292 HD
ENDBRANCH  29  30
BRANCH  28  32
ATOM     32  O   UNL     1       1.309  -4.641  -3.645  0.00  0.00    -0.491 OA
ATOM     33  C   UNL     1       1.157  -6.061  -3.680  0.00  0.00    +0.277 C 
ENDBRANCH  28  32
ENDBRANCH   9  24
BRANCH   1  34
ATOM     34  O   UNL     1      -2.868   5.269   1.222  0.00  0.00    -0.451 OA
BRANCH  34  36
ATOM     35  C   UNL     1      -4.410   6.575   2.581  0.00  0.00    +0.048 C 
ATOM     36  C   UNL     1      -3.976   6.205   1.161  0.00  0.00    +0.230 C 
ENDBRANCH  34  36
ENDBRANCH   1  34
TORSDOF 7
