REMARK  Name = ZINC20214582
REMARK  15 active torsions:
REMARK  status: ('A' for Active; 'I' for Inactive)
REMARK    1  A    between atoms: C_1  and  C_2
REMARK    2  A    between atoms: C_2  and  C_3
REMARK    3  A    between atoms: C_3  and  C_5
REMARK    4  A    between atoms: C_3  and  N_6
REMARK    5  A    between atoms: N_9  and  C_12
REMARK    6  A    between atoms: C_12  and  C_13
REMARK    7  A    between atoms: C_14  and  C_31
REMARK    8  A    between atoms: C_15  and  C_21
REMARK    9  A    between atoms: C_24  and  O_27
REMARK   10  A    between atoms: O_27  and  C_28
REMARK   11  A    between atoms: C_28  and  C_29
REMARK   12  A    between atoms: C_28  and  C_30
REMARK   13  A    between atoms: C_31  and  O_33
REMARK   14  A    between atoms: O_33  and  C_34
REMARK   15  A    between atoms: C_34  and  C_35
REMARK                            x       y       z     vdW  Elec       q    Type
REMARK                         _______ _______ _______ _____ _____    ______ ____
ROOT
ATOM      1  C   UNL     1      -2.548   2.747  -0.071  0.00  0.00    +0.038 C 
ATOM      2  C   UNL     1      -1.609   3.570   0.445  0.00  0.00    +0.079 C 
ATOM      3  C   UNL     1      -2.074   4.881   1.045  0.00  0.00    +0.144 C 
ATOM      4  N   UNL     1      -3.522   5.149   1.022  0.00  0.00    -0.288 N 
ATOM      5  C   UNL     1      -4.337   4.225   0.476  0.00  0.00    +0.304 C 
ATOM      6  O   UNL     1      -5.534   4.438   0.452  0.00  0.00    -0.252 OA
ATOM      7  N   UNL     1      -3.871   3.081  -0.041  0.00  0.00    -0.271 N 
ATOM      8  H   UNL     1      -3.914   6.086   1.444  0.00  0.00    +0.151 HD
ATOM      9  H   UNL     1      -4.622   2.393  -0.458  0.00  0.00    +0.156 HD
ENDROOT
BRANCH   3  10
ATOM     10  C   UNL     1      -1.617   4.923   2.481  0.00  0.00    -0.022 A 
ATOM     11  C   UNL     1      -2.333   4.247   3.452  0.00  0.00    +0.009 A 
ATOM     12  C   UNL     1      -1.913   4.279   4.768  0.00  0.00    +0.046 A 
ATOM     13  C   UNL     1      -0.779   4.999   5.116  0.00  0.00    +0.121 A 
ATOM     14  C   UNL     1      -0.066   5.680   4.140  0.00  0.00    +0.046 A 
ATOM     15  C   UNL     1      -0.487   5.640   2.825  0.00  0.00    +0.009 A 
BRANCH  13  16
ATOM     16  O   UNL     1      -0.367   5.036   6.411  0.00  0.00    -0.489 OA
BRANCH  16  17
ATOM     17  C   UNL     1       0.873   5.694   6.678  0.00  0.00    +0.167 C 
ATOM     18  C   UNL     1       0.627   7.194   6.852  0.00  0.00    +0.051 C 
ATOM     19  C   UNL     1       1.485   5.126   7.960  0.00  0.00    +0.051 C 
ENDBRANCH  16  17
ENDBRANCH  13  16
ENDBRANCH   3  10
BRANCH   2  20
ATOM     20  C   UNL     1      -0.238   3.222   0.420  0.00  0.00    +0.339 C 
ATOM     21  O   UNL     1       0.293   2.772   1.418  0.00  0.00    -0.245 OA
BRANCH  20  22
ATOM     22  O   UNL     1       0.479   3.385  -0.711  0.00  0.00    -0.462 OA
BRANCH  22  23
ATOM     23  C   UNL     1       1.856   3.007  -0.666  0.00  0.00    +0.229 C 
ATOM     24  C   UNL     1       2.500   3.262  -2.031  0.00  0.00    +0.048 C 
ENDBRANCH  22  23
ENDBRANCH  20  22
ENDBRANCH   2  20
BRANCH   1  25
ATOM     25  C   UNL     1      -2.128   1.436  -0.683  0.00  0.00    +0.135 C 
BRANCH  25  29
ATOM     26  N   UNL     1      -2.515  -2.104   1.589  0.00  0.00    +0.383 N 
ATOM     27  C   UNL     1      -3.125  -2.074   0.253  0.00  0.00    -0.063 C 
ATOM     28  C   UNL     1      -2.482  -0.958  -0.574  0.00  0.00    +0.066 C 
ATOM     29  N   UNL     1      -2.666   0.327   0.116  0.00  0.00    -0.300 NA
ATOM     30  C   UNL     1      -2.056   0.296   1.452  0.00  0.00    +0.066 C 
ATOM     31  C   UNL     1      -2.699  -0.820   2.279  0.00  0.00    -0.063 C 
ATOM     32  H   UNL     1      -1.435  -2.272   1.466  0.00  0.00    -0.081 HD
BRANCH  26  33
ATOM     33  C   UNL     1      -3.053  -3.213   2.389  0.00  0.00    -0.072 C 
ATOM     34  C   UNL     1      -2.719  -4.542   1.708  0.00  0.00    -0.013 C 
BRANCH  33  36
ATOM     35  C   UNL     1      -3.029  -4.307   4.635  0.00  0.00    +0.002 C 
ATOM     36  C   UNL     1      -2.430  -3.184   3.786  0.00  0.00    -0.019 C 
ENDBRANCH  33  36
ENDBRANCH  26  33
ENDBRANCH  25  29
ENDBRANCH   1  25
TORSDOF 10
