REMARK  Name = ZINC37930714
REMARK  4 active torsions:
REMARK  status: ('A' for Active; 'I' for Inactive)
REMARK    1  A    between atoms: C_3  and  N_11
REMARK    2  A    between atoms: C_4  and  C_8
REMARK    3  A    between atoms: C_6  and  N_7
REMARK    4  A    between atoms: N_11  and  C_12
REMARK                            x       y       z     vdW  Elec       q    Type
REMARK                         _______ _______ _______ _____ _____    ______ ____
ROOT
ATOM      1  C   UNL     1       0.638   0.196   1.121  0.00  0.00    +0.024 A 
ATOM      2  C   UNL     1       1.817   0.909   1.190  0.00  0.00    +0.026 A 
ATOM      3  C   UNL     1       2.386   1.430   0.035  0.00  0.00    +0.046 A 
ATOM      4  C   UNL     1       1.757   1.230  -1.205  0.00  0.00    +0.086 A 
ATOM      5  C   UNL     1       0.562   0.506  -1.264  0.00  0.00    +0.039 A 
ATOM      6  C   UNL     1       0.009  -0.006  -0.104  0.00  0.00    +0.025 A 
ENDROOT
BRANCH   6   7
ATOM      7  N   UNL     1      -1.187  -0.732  -0.163  0.00  0.00    -0.358 N 
ATOM      8  H   UNL     1      -1.576  -1.092   0.650  0.00  0.00    +0.142 HD
ATOM      9  H   UNL     1      -1.627  -0.874  -1.015  0.00  0.00    +0.142 HD
ENDBRANCH   6   7
BRANCH   4  10
ATOM     10  C   UNL     1       2.351   1.778  -2.433  0.00  0.00    +0.388 C 
ATOM     11  O   UNL     1       1.757   1.678  -3.498  0.00  0.00    -0.241 OA
ATOM     12  O   UNL     1       3.441   2.334  -2.390  0.00  0.00    -0.241 OA
ENDBRANCH   4  10
BRANCH   3  13
ATOM     13  N   UNL     1       3.574   2.149   0.107  0.00  0.00    -0.314 N 
ATOM     14  H   UNL     1       4.418   1.682   0.210  0.00  0.00    +0.152 HD
BRANCH  13  15
ATOM     15  C   UNL     1       3.553   3.546   0.029  0.00  0.00    +0.035 A 
ATOM     16  C   UNL     1       2.340   4.222   0.008  0.00  0.00    +0.027 A 
ATOM     17  C   UNL     1       2.317   5.601  -0.068  0.00  0.00    +0.051 A 
ATOM     18  C   UNL     1       3.504   6.314  -0.123  0.00  0.00    +0.166 A 
ATOM     19  C   UNL     1       4.722   5.639  -0.102  0.00  0.00    +0.168 A 
ATOM     20  C   UNL     1       4.745   4.257  -0.021  0.00  0.00    +0.072 A 
ATOM     21  O   UNL     1       5.731   6.557  -0.167  0.00  0.00    -0.453 OA
ATOM     22  C   UNL     1       5.117   7.771  -0.639  0.00  0.00    +0.466 C 
ATOM     23  O   UNL     1       3.750   7.655  -0.201  0.00  0.00    -0.453 OA
ENDBRANCH  13  15
ENDBRANCH   3  13
TORSDOF 4
