REMARK  Name = ZINC03878285
REMARK  11 active torsions:
REMARK  status: ('A' for Active; 'I' for Inactive)
REMARK    1  A    between atoms: C_1  and  C_2
REMARK    2  A    between atoms: C_2  and  O_3
REMARK    3  A    between atoms: O_3  and  C_4
REMARK    4  A    between atoms: C_4  and  C_6
REMARK    5  A    between atoms: C_9  and  O_22
REMARK    6  A    between atoms: N_13  and  C_20
REMARK    7  A    between atoms: C_14  and  C_15
REMARK    8  A    between atoms: C_15  and  S_16
REMARK    9  A    between atoms: S_16  and  C_17
REMARK   10  A    between atoms: O_22  and  C_23
REMARK   11  A    between atoms: C_23  and  C_25
REMARK                            x       y       z     vdW  Elec       q    Type
REMARK                         _______ _______ _______ _____ _____    ______ ____
ROOT
ATOM      1  C   UNL     1       1.544  -2.309   2.526  0.00  0.00    +0.088 A 
ATOM      2  C   UNL     1       0.926  -2.702   3.806  0.00  0.00    +0.018 A 
ATOM      3  C   UNL     1      -0.369  -2.636   4.314  0.00  0.00    +0.058 A 
ATOM      4  C   UNL     1      -0.628  -3.104   5.588  0.00  0.00    +0.146 A 
ATOM      5  C   UNL     1       0.401  -3.637   6.360  0.00  0.00    +0.062 A 
ATOM      6  C   UNL     1       1.685  -3.706   5.865  0.00  0.00    +0.045 A 
ATOM      7  C   UNL     1       1.963  -3.240   4.584  0.00  0.00    +0.051 A 
ATOM      8  N   UNL     1       3.120  -3.177   3.833  0.00  0.00    -0.345 N 
ATOM      9  C   UNL     1       2.867  -2.633   2.620  0.00  0.00    +0.044 A 
ATOM     10  C   UNL     1       4.435  -3.639   4.284  0.00  0.00    +0.149 C 
ATOM     11 BR   UNL     1       0.033  -4.272   8.103  0.00  0.00    -0.046 Br
ENDROOT
BRANCH   1  12
ATOM     12  C   UNL     1       0.870  -1.696   1.376  0.00  0.00    +0.342 C 
ATOM     13  O   UNL     1       0.384  -2.399   0.511  0.00  0.00    -0.245 OA
BRANCH  12  14
ATOM     14  O   UNL     1       0.789  -0.353   1.278  0.00  0.00    -0.461 OA
BRANCH  14  16
ATOM     15  C   UNL     1       0.127   1.703   0.196  0.00  0.00    +0.048 C 
ATOM     16  C   UNL     1       0.119   0.175   0.133  0.00  0.00    +0.229 C 
ENDBRANCH  14  16
ENDBRANCH  12  14
ENDBRANCH   1  12
BRANCH   9  17
ATOM     17  C   UNL     1       3.892  -2.414   1.537  0.00  0.00    +0.131 C 
BRANCH  17  18
ATOM     18  S   UNL     1       3.967  -3.880   0.470  0.00  0.00    -0.087 S 
BRANCH  18  19
ATOM     19  C   UNL     1       5.193  -3.472  -0.728  0.00  0.00    +0.123 C 
ATOM     20  N   UNL     1       5.934  -4.435  -1.277  0.00  0.00    -0.382 N 
ATOM     21  N   UNL     1       5.381  -2.202  -1.085  0.00  0.00    -0.340 N 
ATOM     22  H   UNL     1       5.798  -5.360  -1.017  0.00  0.00    +0.158 HD
ATOM     23  H   UNL     1       4.842  -1.501  -0.685  0.00  0.00    +0.144 HD
ATOM     24  H   UNL     1       6.056  -1.978  -1.744  0.00  0.00    +0.144 HD
ATOM     25  H   UNL     1       6.609  -4.211  -1.937  0.00  0.00    +0.158 HD
ENDBRANCH  18  19
ENDBRANCH  17  18
ENDBRANCH   9  17
BRANCH   4  26
ATOM     26  O   UNL     1      -1.890  -3.042   6.090  0.00  0.00    -0.425 OA
BRANCH  26  27
ATOM     27  C   UNL     1      -2.198  -2.015   6.898  0.00  0.00    +0.309 C 
ATOM     28  O   UNL     1      -1.397  -1.128   7.079  0.00  0.00    -0.251 OA
ATOM     29  C   UNL     1      -3.541  -1.968   7.579  0.00  0.00    +0.136 C 
ENDBRANCH  26  27
ENDBRANCH   4  26
TORSDOF 8
