REMARK  Name = ZINC10214481
REMARK  7 active torsions:
REMARK  status: ('A' for Active; 'I' for Inactive)
REMARK    1  A    between atoms: C_1  and  C_2
REMARK    2  A    between atoms: C_2  and  N_59
REMARK    3  A    between atoms: C_12  and  C_14
REMARK    4  A    between atoms: C_19  and  O_20
REMARK    5  A    between atoms: C_25  and  O_28
REMARK    6  A    between atoms: O_28  and  C_29
REMARK    7  A    between atoms: C_29  and  C_30
REMARK                            x       y       z     vdW  Elec       q    Type
REMARK                         _______ _______ _______ _____ _____    ______ ____
ROOT
ATOM      1  C   UNL     1      -0.754   1.593  -1.231  0.00  0.00    -0.073 C 
ATOM      2  C   UNL     1      -0.013   1.086   0.008  0.00  0.00    +0.052 C 
ATOM      3  C   UNL     1      -0.729   1.579   1.264  0.00  0.00    +0.190 C 
ATOM      4  C   UNL     1      -0.821   3.104   1.242  0.00  0.00    +0.052 C 
ATOM      5  C   UNL     1      -1.538   3.550  -0.035  0.00  0.00    -0.073 C 
ATOM      6  N   UNL     1      -2.071   0.997   1.337  0.00  0.00    -0.207 N 
ATOM      7  C   UNL     1      -2.932   1.225   2.521  0.00  0.00    +0.136 C 
ATOM      8  C   UNL     1      -4.005   0.138   2.374  0.00  0.00    +0.086 C 
ATOM      9  C   UNL     1      -3.796  -0.383   0.967  0.00  0.00    +0.072 C 
ATOM     10  N   UNL     1      -2.730   0.149   0.464  0.00  0.00    -0.184 NA
ATOM     11  C   UNL     1      -2.062   1.002   3.730  0.00  0.00    +0.020 A 
ATOM     12  C   UNL     1      -2.659   0.795   4.961  0.00  0.00    +0.009 A 
ATOM     13  C   UNL     1      -1.886   0.605   6.090  0.00  0.00    +0.004 A 
ATOM     14  C   UNL     1      -0.507   0.622   5.989  0.00  0.00    +0.049 A 
ATOM     15  C   UNL     1       0.094   0.821   4.760  0.00  0.00    +0.162 A 
ATOM     16  C   UNL     1      -0.683   1.004   3.611  0.00  0.00    +0.170 A 
ATOM     17  O   UNL     1      -0.026   1.146   2.430  0.00  0.00    -0.463 OA
ATOM     18  N   UNL     1      -0.772   3.072  -1.206  0.00  0.00    +0.380 N 
ATOM     19  H   UNL     1       0.193   3.415  -1.137  0.00  0.00    -0.082 HD
ENDROOT
BRANCH   9  20
ATOM     20  C   UNL     1      -4.671  -1.349   0.278  0.00  0.00    +0.039 A 
ATOM     21  C   UNL     1      -5.800  -1.858   0.923  0.00  0.00    +0.013 A 
ATOM     22  C   UNL     1      -6.615  -2.761   0.273  0.00  0.00    +0.001 A 
ATOM     23  C   UNL     1      -6.319  -3.164  -1.018  0.00  0.00    +0.004 A 
ATOM     24  C   UNL     1      -5.204  -2.667  -1.667  0.00  0.00    +0.046 A 
ATOM     25  C   UNL     1      -4.379  -1.755  -1.031  0.00  0.00    +0.126 A 
BRANCH  25  26
ATOM     26  O   UNL     1      -3.287  -1.261  -1.671  0.00  0.00    -0.506 OA
ATOM     27  H   UNL     1      -2.485  -1.784  -1.540  0.00  0.00    +0.292 HD
ENDBRANCH  25  26
ENDBRANCH   9  20
BRANCH  18  29
ATOM     28  C   UNL     1      -1.641   5.089  -2.293  0.00  0.00    -0.017 C 
ATOM     29  C   UNL     1      -1.378   3.590  -2.450  0.00  0.00    -0.082 C 
ENDBRANCH  18  29
BRANCH  15  30
ATOM     30  O   UNL     1       1.451   0.838   4.667  0.00  0.00    -0.489 OA
BRANCH  30  31
ATOM     31  C   UNL     1       2.186   0.645   5.877  0.00  0.00    +0.226 C 
ATOM     32  C   UNL     1       3.686   0.695   5.577  0.00  0.00    +0.048 C 
ENDBRANCH  30  31
ENDBRANCH  15  30
TORSDOF 5
