REMARK  Name = ZINC06022002
REMARK  12 active torsions:
REMARK  status: ('A' for Active; 'I' for Inactive)
REMARK    1  A    between atoms: C_6  and  C_9
REMARK    2  A    between atoms: C_9  and  C_10
REMARK    3  A    between atoms: C_10  and  C_11
REMARK    4  A    between atoms: C_11  and  C_12
REMARK    5  A    between atoms: C_12  and  C_13
REMARK    6  A    between atoms: N_15  and  C_16
REMARK    7  A    between atoms: C_16  and  C_17
REMARK    8  A    between atoms: C_17  and  N_18
REMARK    9  A    between atoms: C_19  and  C_21
REMARK   10  A    between atoms: C_21  and  C_23
REMARK   11  A    between atoms: C_21  and  N_52
REMARK   12  A    between atoms: C_23  and  S_24
REMARK                            x       y       z     vdW  Elec       q    Type
REMARK                         _______ _______ _______ _____ _____    ______ ____
ROOT
ATOM      1  C   UNL     1      -2.332   5.629   0.044  0.00  0.00    +0.213 C 
ATOM      2  O   UNL     1      -1.290   6.250   0.042  0.00  0.00    -0.276 OA
ATOM      3  N   UNL     1      -2.314   4.282   0.036  0.00  0.00    -0.314 N 
ATOM      4  H   UNL     1      -3.147   3.785   0.038  0.00  0.00    +0.149 HD
ENDROOT
BRANCH   1   5
ATOM      5  C   UNL     1      -3.648   6.365   0.054  0.00  0.00    +0.096 C 
BRANCH   5   6
ATOM      6  C   UNL     1      -3.389   7.873   0.061  0.00  0.00    +0.009 C 
BRANCH   6   7
ATOM      7  C   UNL     1      -4.724   8.620   0.071  0.00  0.00    +0.002 C 
BRANCH   7   8
ATOM      8  C   UNL     1      -4.465  10.128   0.078  0.00  0.00    +0.016 C 
BRANCH   8  12
ATOM      9  C   UNL     1      -6.851  12.606  -1.875  0.00  0.00    +0.093 C 
ATOM     10  C   UNL     1      -6.808  13.092  -0.429  0.00  0.00    +0.105 C 
ATOM     11  C   UNL     1      -5.591  12.362   0.218  0.00  0.00    +0.108 C 
ATOM     12  C   UNL     1      -5.800  10.875   0.089  0.00  0.00    +0.069 C 
ATOM     13  S   UNL     1      -6.628  10.789  -1.567  0.00  0.00    -0.154 S 
ATOM     14  N   UNL     1      -5.450  13.103   1.437  0.00  0.00    -0.294 N 
ATOM     15  C   UNL     1      -5.833  14.379   1.123  0.00  0.00    +0.300 C 
ATOM     16  O   UNL     1      -5.626  15.340   1.838  0.00  0.00    -0.253 OA
ATOM     17  N   UNL     1      -6.473  14.455  -0.083  0.00  0.00    -0.294 N 
ATOM     18  H   UNL     1      -5.148  12.772   2.297  0.00  0.00    +0.151 HD
ATOM     19  H   UNL     1      -6.663  15.255  -0.597  0.00  0.00    +0.151 HD
ENDBRANCH   8  12
ENDBRANCH   7   8
ENDBRANCH   6   7
ENDBRANCH   5   6
ENDBRANCH   1   5
BRANCH   3  20
ATOM     20  C   UNL     1      -1.036   3.567   0.026  0.00  0.00    +0.123 C 
BRANCH  20  21
ATOM     21  C   UNL     1      -1.295   2.059   0.019  0.00  0.00    +0.123 C 
BRANCH  21  22
ATOM     22  N   UNL     1      -0.016   1.344   0.009  0.00  0.00    -0.315 N 
ATOM     23  C   UNL     1       0.002  -0.004   0.002  0.00  0.00    +0.199 C 
ATOM     24  O   UNL     1      -1.040  -0.625   0.009  0.00  0.00    -0.278 OA
ATOM     25  H   UNL     1       0.817   1.840   0.004  0.00  0.00    +0.149 HD
BRANCH  23  26
ATOM     26  C   UNL     1       1.317  -0.740  -0.015  0.00  0.00    +0.022 C 
BRANCH  26  29
ATOM     27  H   UNL     1       1.980  -2.606  -0.575  0.00  0.00    -0.089 HD
ATOM     28  H   UNL     1       0.463  -2.609   0.106  0.00  0.00    -0.089 HD
ATOM     29  N   UNL     1       1.095  -2.107  -0.516  0.00  0.00    +0.386 N 
ATOM     30  H   UNL     1       0.674  -2.059  -1.452  0.00  0.00    -0.089 HD
ENDBRANCH  26  29
BRANCH  26  31
ATOM     31  C   UNL     1       1.898  -0.778   1.400  0.00  0.00    +0.058 C 
BRANCH  31  32
ATOM     32  S   UNL     1       3.547  -1.532   1.357  0.00  0.00    -0.179 S 
ATOM     33  H   UNL     1       3.949  -1.510   2.640  0.00  0.00    +0.102 HD
ENDBRANCH  31  32
ENDBRANCH  26  31
ENDBRANCH  23  26
ENDBRANCH  21  22
ENDBRANCH  20  21
ENDBRANCH   3  20
TORSDOF 12
