REMARK  Name = ZINC08973064
REMARK  5 active torsions:
REMARK  status: ('A' for Active; 'I' for Inactive)
REMARK    1  A    between atoms: C_1  and  C_2
REMARK    2  A    between atoms: C_5  and  C_8
REMARK    3  A    between atoms: C_11  and  C_22
REMARK    4  A    between atoms: C_17  and  N_21
REMARK    5  A    between atoms: C_18  and  C_19
REMARK                            x       y       z     vdW  Elec       q    Type
REMARK                         _______ _______ _______ _____ _____    ______ ____
ROOT
ATOM      1  C   UNL     1       0.059  -4.275  -0.021  0.00  0.00    +0.102 C 
ATOM      2  C   UNL     1       1.291  -4.772   0.691  0.00  0.00    +0.054 A 
ATOM      3  C   UNL     1       2.625  -4.742   0.276  0.00  0.00    +0.100 A 
ATOM      4  N   UNL     1       3.359  -5.288   1.228  0.00  0.00    -0.171 NA
ATOM      5  N   UNL     1       2.507  -5.679   2.273  0.00  0.00    -0.246 N 
ATOM      6  H   UNL     1       2.778  -6.107   3.100  0.00  0.00    +0.192 HD
ATOM      7  C   UNL     1       1.244  -5.355   1.925  0.00  0.00    +0.223 A 
ATOM      8  O   UNL     1       0.086  -5.536   2.606  0.00  0.00    -0.423 OA
ATOM      9  C   UNL     1      -1.069  -5.377   1.927  0.00  0.00    +0.200 C 
ATOM     10  C   UNL     1      -1.152  -4.804   0.705  0.00  0.00    +0.098 C 
ENDROOT
BRANCH   1  15
ATOM     11  C   UNL     1      -0.018   1.503   0.010  0.00  0.00    +0.044 C 
ATOM     12  C   UNL     1       0.002  -0.004   0.002  0.00  0.00    -0.050 A 
ATOM     13  C   UNL     1       0.006  -0.689  -1.199  0.00  0.00    +0.003 A 
ATOM     14  C   UNL     1       0.025  -2.071  -1.206  0.00  0.00    +0.005 A 
ATOM     15  C   UNL     1       0.040  -2.768  -0.013  0.00  0.00    -0.035 A 
ATOM     16  C   UNL     1       0.037  -2.084   1.188  0.00  0.00    +0.005 A 
ATOM     17  C   UNL     1       0.023  -0.702   1.195  0.00  0.00    +0.003 A 
ENDBRANCH   1  15
BRANCH   3  18
ATOM     18  C   UNL     1       3.129  -4.195  -1.008  0.00  0.00    +0.003 A 
ATOM     19  C   UNL     1       2.363  -4.313  -2.166  0.00  0.00    +0.010 A 
ATOM     20  C   UNL     1       2.836  -3.802  -3.358  0.00  0.00    +0.001 A 
ATOM     21  C   UNL     1       4.067  -3.174  -3.404  0.00  0.00    +0.000 A 
ATOM     22  C   UNL     1       4.832  -3.054  -2.257  0.00  0.00    +0.001 A 
ATOM     23  C   UNL     1       4.366  -3.556  -1.059  0.00  0.00    +0.010 A 
ENDBRANCH   3  18
BRANCH   9  24
ATOM     24  N   UNL     1      -2.228  -5.825   2.511  0.00  0.00    -0.328 N 
ATOM     25  H   UNL     1      -2.201  -6.241   3.387  0.00  0.00    +0.145 HD
ATOM     26  H   UNL     1      -3.075  -5.724   2.048  0.00  0.00    +0.145 HD
ENDBRANCH   9  24
BRANCH  10  27
ATOM     27  C   UNL     1      -2.435  -4.694   0.079  0.00  0.00    +0.101 C 
ATOM     28  N   UNL     1      -3.453  -4.607  -0.418  0.00  0.00    -0.191 NA
ENDBRANCH  10  27
TORSDOF 4
