REMARK  Name = ZINC14270823
REMARK  7 active torsions:
REMARK  status: ('A' for Active; 'I' for Inactive)
REMARK    1  A    between atoms: C_1  and  C_2
REMARK    2  A    between atoms: C_5  and  C_31
REMARK    3  A    between atoms: N_11  and  C_12
REMARK    4  A    between atoms: C_12  and  N_14
REMARK    5  A    between atoms: C_15  and  C_17
REMARK    6  A    between atoms: C_20  and  C_22
REMARK    7  A    between atoms: C_26  and  N_28
REMARK                            x       y       z     vdW  Elec       q    Type
REMARK                         _______ _______ _______ _____ _____    ______ ____
ROOT
ATOM      1  N   UNL     1       2.833   8.416   0.022  0.00  0.00    -0.260 N 
ATOM      2  C   UNL     1       1.495   8.580   0.035  0.00  0.00    +0.285 C 
ATOM      3  O   UNL     1       1.019   9.700   0.046  0.00  0.00    -0.266 OA
ATOM      4  H   UNL     1       3.263   7.404   0.013  0.00  0.00    +0.157 HD
ENDROOT
BRANCH   2   5
ATOM      5  C   UNL     1       0.614   7.410   0.036  0.00  0.00    +0.190 A 
ATOM      6  C   UNL     1      -0.764   7.434   0.049  0.00  0.00    +0.055 A 
ATOM      7  C   UNL     1      -1.190   6.103   0.045  0.00  0.00    +0.050 A 
ATOM      8  C   UNL     1      -0.070   5.322   0.030  0.00  0.00    +0.136 A 
ATOM      9  O   UNL     1       1.011   6.120   0.031  0.00  0.00    -0.450 OA
BRANCH   8  10
ATOM     10  C   UNL     1      -0.050   3.845   0.022  0.00  0.00    +0.019 A 
ATOM     11  C   UNL     1      -1.248   3.127   0.030  0.00  0.00    +0.012 A 
ATOM     12  C   UNL     1      -1.222   1.748   0.017  0.00  0.00    +0.003 A 
ATOM     13  C   UNL     1      -0.013   1.076   0.008  0.00  0.00    +0.033 A 
ATOM     14  C   UNL     1       1.178   1.781   0.000  0.00  0.00    +0.127 A 
ATOM     15  C   UNL     1       1.167   3.160   0.007  0.00  0.00    +0.044 A 
BRANCH  14  16
ATOM     16  N   UNL     1       2.467   1.053  -0.015  0.00  0.00    +0.056 N 
ATOM     17  O   UNL     1       2.478  -0.165  -0.021  0.00  0.00    -0.126 OA
ATOM     18  O   UNL     1       3.516   1.672  -0.021  0.00  0.00    -0.126 OA
ENDBRANCH  14  16
ENDBRANCH   8  10
ENDBRANCH   2   5
BRANCH   1  19
ATOM     19  C   UNL     1       3.643   9.493   0.022  0.00  0.00    +0.163 C 
ATOM     20  S   UNL     1       2.973  11.069   0.037  0.00  0.00    -0.016 S 
BRANCH  19  31
ATOM     21  C   UNL     1       4.801  14.631   0.038  0.00  0.00    +0.046 C 
ATOM     22  C   UNL     1       6.207  14.089   0.023  0.00  0.00    -0.026 A 
ATOM     23  C   UNL     1       7.268  14.957   0.018  0.00  0.00    +0.006 A 
ATOM     24  C   UNL     1       8.578  14.501   0.004  0.00  0.00    +0.005 A 
ATOM     25  C   UNL     1       8.821  13.140  -0.005  0.00  0.00    -0.035 A 
ATOM     26  C   UNL     1       7.765  12.263   0.000  0.00  0.00    +0.042 A 
ATOM     27  C   UNL     1       6.418  12.691   0.015  0.00  0.00    +0.058 A 
ATOM     28  N   UNL     1       5.491  11.708   0.013  0.00  0.00    -0.335 N 
ATOM     29  C   UNL     1       5.813  10.436   0.008  0.00  0.00    +0.163 A 
ATOM     30  S   UNL     1       7.599  10.494  -0.008  0.00  0.00    -0.052 S 
ATOM     31  N   UNL     1       4.981   9.330   0.009  0.00  0.00    -0.169 NA
ATOM     32  C   UNL     1      10.236  12.622  -0.020  0.00  0.00    +0.045 C 
ATOM     33  H   UNL     1       4.421  11.961   0.015  0.00  0.00    +0.168 HD
ENDBRANCH  19  31
ENDBRANCH   1  19
TORSDOF 5
