REMARK  Name = ZINC61721003
REMARK  5 active torsions:
REMARK  status: ('A' for Active; 'I' for Inactive)
REMARK    1  A    between atoms: C_4  and  C_7
REMARK    2  A    between atoms: N_18  and  C_19
REMARK    3  A    between atoms: C_19  and  C_20
REMARK    4  A    between atoms: N_22  and  C_23
REMARK    5  A    between atoms: C_28  and  O_29
REMARK                            x       y       z     vdW  Elec       q    Type
REMARK                         _______ _______ _______ _____ _____    ______ ____
ROOT
ATOM      1  C   UNL     1       3.713  -0.694  -0.007  0.00  0.00    +0.193 C 
ATOM      2  N   UNL     1       4.684   0.070  -0.801  0.00  0.00    -0.321 N 
ATOM      3  C   UNL     1       4.575   0.047  -2.186  0.00  0.00    +0.041 A 
ATOM      4  C   UNL     1       4.978   1.113  -2.972  0.00  0.00    +0.024 A 
ATOM      5  C   UNL     1       4.843   1.040  -4.345  0.00  0.00    +0.002 A 
ATOM      6  C   UNL     1       4.308  -0.091  -4.941  0.00  0.00    +0.001 A 
ATOM      7  C   UNL     1       3.902  -1.163  -4.173  0.00  0.00    +0.015 A 
ATOM      8  C   UNL     1       4.033  -1.103  -2.788  0.00  0.00    +0.058 A 
ATOM      9  C   UNL     1       3.623  -2.222  -1.921  0.00  0.00    +0.250 C 
ATOM     10  O   UNL     1       3.388  -3.316  -2.398  0.00  0.00    -0.270 OA
ATOM     11  N   UNL     1       3.514  -2.018  -0.595  0.00  0.00    -0.266 N 
ATOM     12  H   UNL     1       5.387   0.580  -0.368  0.00  0.00    +0.148 HD
ENDROOT
BRANCH   1  16
ATOM     13  C   UNL     1      -0.010   1.398   0.068  0.00  0.00    +0.000 A 
ATOM     14  C   UNL     1       0.006   0.016   0.055  0.00  0.00    +0.000 A 
ATOM     15  C   UNL     1       1.211  -0.661   0.030  0.00  0.00    +0.007 A 
ATOM     16  C   UNL     1       2.400   0.044   0.018  0.00  0.00    -0.009 A 
ATOM     17  C   UNL     1       2.384   1.427   0.030  0.00  0.00    +0.007 A 
ATOM     18  C   UNL     1       1.179   2.103   0.057  0.00  0.00    +0.000 A 
ENDBRANCH   1  16
BRANCH  11  19
ATOM     19  C   UNL     1       3.185  -3.149   0.276  0.00  0.00    +0.206 C 
BRANCH  19  20
ATOM     20  C   UNL     1       4.455  -3.743   0.829  0.00  0.00    +0.235 C 
ATOM     21  O   UNL     1       5.522  -3.215   0.598  0.00  0.00    -0.274 OA
ATOM     22  N   UNL     1       4.405  -4.862   1.579  0.00  0.00    -0.281 N 
ATOM     23  H   UNL     1       3.548  -5.249   1.816  0.00  0.00    +0.155 HD
BRANCH  22  24
ATOM     24  C   UNL     1       5.591  -5.466   2.015  0.00  0.00    +0.075 A 
ATOM     25  C   UNL     1       6.691  -4.686   2.340  0.00  0.00    +0.027 A 
ATOM     26  C   UNL     1       7.860  -5.284   2.771  0.00  0.00    +0.002 A 
ATOM     27  C   UNL     1       7.937  -6.660   2.879  0.00  0.00    +0.004 A 
ATOM     28  C   UNL     1       6.845  -7.445   2.557  0.00  0.00    +0.047 A 
ATOM     29  C   UNL     1       5.668  -6.853   2.130  0.00  0.00    +0.138 A 
BRANCH  29  30
ATOM     30  O   UNL     1       4.591  -7.623   1.818  0.00  0.00    -0.505 OA
ATOM     31  H   UNL     1       4.560  -7.899   0.892  0.00  0.00    +0.292 HD
ENDBRANCH  29  30
ENDBRANCH  22  24
ENDBRANCH  19  20
ENDBRANCH  11  19
TORSDOF 5
