REMARK  Name = ZINC16661207
REMARK  5 active torsions:
REMARK  status: ('A' for Active; 'I' for Inactive)
REMARK    1  A    between atoms: C_1  and  C_2
REMARK    2  A    between atoms: C_2  and  C_10
REMARK    3  A    between atoms: C_3  and  C_4
REMARK    4  A    between atoms: C_15  and  N_17
REMARK    5  A    between atoms: N_17  and  C_18
REMARK                            x       y       z     vdW  Elec       q    Type
REMARK                         _______ _______ _______ _____ _____    ______ ____
ROOT
ATOM      1  C   UNL     1       0.141  -0.664  -1.843  0.00  0.00    +0.023 C 
ATOM      2  C   UNL     1      -0.079  -0.137  -3.082  0.00  0.00    +0.079 C 
ATOM      3  C   UNL     1       0.057   1.259  -3.555  0.00  0.00    +0.276 C 
ATOM      4  O   UNL     1       0.412   2.160  -2.811  0.00  0.00    -0.267 OA
ATOM      5  N   UNL     1      -0.226   1.477  -4.821  0.00  0.00    -0.152 NA
ATOM      6  C   UNL     1      -0.612   0.510  -5.638  0.00  0.00    +0.175 C 
ATOM      7  S   UNL     1      -0.603  -0.938  -4.592  0.00  0.00    -0.050 S 
ENDROOT
BRANCH   1   9
ATOM      8  C   UNL     1       1.688   0.002   0.038  0.00  0.00    +0.044 C 
ATOM      9  C   UNL     1       0.420   0.185  -0.755  0.00  0.00    -0.049 C 
ATOM     10  C   UNL     1      -0.452   1.167  -0.421  0.00  0.00    +0.011 C 
BRANCH  10  11
ATOM     11  C   UNL     1      -0.247   1.945   0.809  0.00  0.00    -0.025 A 
ATOM     12  C   UNL     1      -0.483   3.325   0.817  0.00  0.00    +0.008 A 
ATOM     13  C   UNL     1      -0.289   4.047   1.975  0.00  0.00    +0.001 A 
ATOM     14  C   UNL     1       0.139   3.412   3.128  0.00  0.00    +0.000 A 
ATOM     15  C   UNL     1       0.376   2.047   3.129  0.00  0.00    +0.001 A 
ATOM     16  C   UNL     1       0.180   1.310   1.980  0.00  0.00    +0.008 A 
ENDBRANCH  10  11
ENDBRANCH   1   9
BRANCH   6  17
ATOM     17  N   UNL     1      -0.934   0.597  -6.968  0.00  0.00    -0.192 NA
BRANCH  17  18
ATOM     18  C   UNL     1      -0.749   1.801  -7.655  0.00  0.00    +0.056 A 
ATOM     19  C   UNL     1       0.260   2.674  -7.268  0.00  0.00    +0.025 A 
ATOM     20  C   UNL     1       0.441   3.862  -7.948  0.00  0.00    +0.002 A 
ATOM     21  C   UNL     1      -0.380   4.183  -9.014  0.00  0.00    +0.000 A 
ATOM     22  C   UNL     1      -1.385   3.315  -9.402  0.00  0.00    +0.002 A 
ATOM     23  C   UNL     1      -1.568   2.123  -8.729  0.00  0.00    +0.025 A 
ENDBRANCH  17  18
ENDBRANCH   6  17
TORSDOF 4
