REMARK  Name = ZINC64097904
REMARK  8 active torsions:
REMARK  status: ('A' for Active; 'I' for Inactive)
REMARK    1  A    between atoms: C_1  and  O_2
REMARK    2  A    between atoms: O_2  and  C_3
REMARK    3  A    between atoms: C_10  and  C_18
REMARK    4  A    between atoms: C_20  and  O_36
REMARK    5  A    between atoms: C_22  and  O_35
REMARK    6  A    between atoms: N_24  and  C_27
REMARK    7  A    between atoms: C_32  and  O_33
REMARK    8  A    between atoms: O_33  and  C_34
REMARK                            x       y       z     vdW  Elec       q    Type
REMARK                         _______ _______ _______ _____ _____    ______ ____
ROOT
ATOM      1  C   UNL     1      -4.603  -4.206   2.414  0.00  0.00    +0.179 C 
ATOM      2  C   UNL     1      -5.188  -5.018   3.532  0.00  0.00    +0.200 C 
ATOM      3  N   UNL     1      -6.297  -4.728   4.093  0.00  0.00    -0.204 NA
ATOM      4  C   UNL     1      -7.127  -3.593   3.724  0.00  0.00    +0.339 C 
ATOM      5  N   UNL     1      -6.374  -2.574   3.006  0.00  0.00    -0.222 N 
ATOM      6  C   UNL     1      -5.219  -2.836   2.389  0.00  0.00    +0.237 C 
ATOM      7  O   UNL     1      -4.654  -1.943   1.794  0.00  0.00    -0.274 OA
ENDROOT
BRANCH   1  14
ATOM      8  C   UNL     1      -0.155  -1.729   0.371  0.00  0.00    +0.121 A 
ATOM      9  C   UNL     1      -1.094  -0.697   0.196  0.00  0.00    +0.047 A 
ATOM     10  C   UNL     1      -2.415  -0.934   0.052  0.00  0.00    +0.029 A 
ATOM     11  C   UNL     1      -2.916  -2.311   0.076  0.00  0.00    +0.043 A 
ATOM     12  N   UNL     1      -4.130  -2.804  -0.017  0.00  0.00    -0.376 N 
ATOM     13  C   UNL     1      -4.037  -4.260  -0.023  0.00  0.00    +0.124 C 
ATOM     14  C   UNL     1      -4.875  -4.908   1.083  0.00  0.00    +0.101 C 
ATOM     15  N   UNL     1      -4.494  -6.326   1.181  0.00  0.00    -0.310 NA
ATOM     16  C   UNL     1      -3.123  -6.524   1.660  0.00  0.00    +0.085 C 
ATOM     17  C   UNL     1      -2.119  -5.968   0.633  0.00  0.00    +0.048 C 
ATOM     18  C   UNL     1      -2.580  -4.572   0.278  0.00  0.00    -0.036 C 
ATOM     19  C   UNL     1      -1.928  -3.403   0.270  0.00  0.00    +0.003 A 
ATOM     20  C   UNL     1      -0.514  -3.034   0.407  0.00  0.00    +0.055 A 
ATOM     21  H   UNL     1      -5.152  -6.839   1.748  0.00  0.00    +0.122 HD
ATOM     22  H   UNL     1      -4.949  -2.287  -0.072  0.00  0.00    +0.160 HD
BRANCH   8  24
ATOM     23  C   UNL     1       1.492  -0.017   0.461  0.00  0.00    +0.277 C 
ATOM     24  O   UNL     1       1.158  -1.405   0.504  0.00  0.00    -0.495 OA
ENDBRANCH   8  24
ENDBRANCH   1  14
BRANCH   5  25
ATOM     25  C   UNL     1      -6.883  -1.269   2.960  0.00  0.00    +0.082 A 
ATOM     26  C   UNL     1      -6.535  -0.351   3.940  0.00  0.00    +0.027 A 
ATOM     27  C   UNL     1      -7.038   0.935   3.891  0.00  0.00    +0.002 A 
ATOM     28  C   UNL     1      -7.888   1.310   2.868  0.00  0.00    +0.004 A 
ATOM     29  C   UNL     1      -8.240   0.401   1.888  0.00  0.00    +0.047 A 
ATOM     30  C   UNL     1      -7.736  -0.889   1.926  0.00  0.00    +0.142 A 
BRANCH  30  31
ATOM     31  O   UNL     1      -8.076  -1.783   0.959  0.00  0.00    -0.493 OA
ATOM     32  C   UNL     1      -8.955  -1.323  -0.070  0.00  0.00    +0.277 C 
ENDBRANCH  30  31
ENDBRANCH   5  25
BRANCH   4  33
ATOM     33  O   UNL     1      -8.196  -4.049   2.893  0.00  0.00    -0.356 OA
ATOM     34  H   UNL     1      -8.770  -4.703   3.315  0.00  0.00    +0.214 HD
ENDBRANCH   4  33
BRANCH   2  35
ATOM     35  O   UNL     1      -4.512  -6.103   3.964  0.00  0.00    -0.495 OA
ATOM     36  H   UNL     1      -4.948  -6.577   4.685  0.00  0.00    +0.293 HD
ENDBRANCH   2  35
TORSDOF 6
