REMARK  Name = ZINC35743235
REMARK  11 active torsions:
REMARK  status: ('A' for Active; 'I' for Inactive)
REMARK    1  A    between atoms: C_4  and  O_7
REMARK    2  A    between atoms: O_7  and  C_8
REMARK    3  A    between atoms: C_8  and  C_9
REMARK    4  A    between atoms: C_9  and  C_11
REMARK    5  A    between atoms: C_9  and  O_37
REMARK    6  A    between atoms: C_11  and  N_12
REMARK    7  A    between atoms: N_12  and  C_13
REMARK    8  A    between atoms: N_12  and  C_21
REMARK    9  A    between atoms: C_13  and  C_14
REMARK   10  A    between atoms: C_21  and  C_22
REMARK   11  A    between atoms: C_25  and  C_28
REMARK                            x       y       z     vdW  Elec       q    Type
REMARK                         _______ _______ _______ _____ _____    ______ ____
ROOT
ATOM      1  N   UNL     1       6.799  -4.372   0.119  0.00  0.00    +0.387 N 
ATOM      2  H   UNL     1       7.461  -3.753  -0.325  0.00  0.00    -0.081 HD
ENDROOT
BRANCH   1   3
ATOM      3  C   UNL     1       5.444  -4.061  -0.355  0.00  0.00    -0.043 C 
BRANCH   3   4
ATOM      4  C   UNL     1       5.250  -2.543  -0.384  0.00  0.00    +0.135 C 
BRANCH   4   5
ATOM      5  O   UNL     1       5.188  -2.045   0.954  0.00  0.00    -0.390 OA
ATOM      6  H   UNL     1       4.437  -2.380   1.464  0.00  0.00    +0.210 HD
ENDBRANCH   4   5
BRANCH   4   7
ATOM      7  C   UNL     1       3.947  -2.210  -1.114  0.00  0.00    +0.258 C 
BRANCH   7   8
ATOM      8  O   UNL     1       3.824  -0.792  -1.244  0.00  0.00    -0.489 OA
BRANCH   8  12
ATOM      9  C   UNL     1       0.455   0.627  -3.157  0.00  0.00    +0.000 A 
ATOM     10  C   UNL     1       1.401   1.514  -2.675  0.00  0.00    +0.004 A 
ATOM     11  C   UNL     1       2.530   1.041  -2.035  0.00  0.00    +0.045 A 
ATOM     12  C   UNL     1       2.714  -0.325  -1.873  0.00  0.00    +0.121 A 
ATOM     13  C   UNL     1       1.764  -1.212  -2.357  0.00  0.00    +0.045 A 
ATOM     14  C   UNL     1       0.637  -0.735  -2.997  0.00  0.00    +0.004 A 
ENDBRANCH   8  12
ENDBRANCH   7   8
ENDBRANCH   4   7
ENDBRANCH   3   4
ENDBRANCH   1   3
BRANCH   1  15
ATOM     15  C   UNL     1       6.862  -4.193   1.575  0.00  0.00    -0.043 C 
BRANCH  15  16
ATOM     16  C   UNL     1       5.867  -5.109   2.238  0.00  0.00    -0.064 A 
ATOM     17  C   UNL     1       4.586  -4.662   2.504  0.00  0.00    +0.004 A 
ATOM     18  C   UNL     1       3.672  -5.502   3.111  0.00  0.00    +0.038 A 
ATOM     19  C   UNL     1       4.039  -6.792   3.453  0.00  0.00    +0.123 A 
ATOM     20  C   UNL     1       5.322  -7.239   3.187  0.00  0.00    +0.038 A 
ATOM     21  C   UNL     1       6.233  -6.399   2.575  0.00  0.00    +0.004 A 
ATOM     22  F   UNL     1       3.147  -7.614   4.047  0.00  0.00    -0.205 F 
ENDBRANCH  15  16
ENDBRANCH   1  15
BRANCH   1  23
ATOM     23  C   UNL     1       7.128  -5.764  -0.218  0.00  0.00    -0.030 C 
BRANCH  23  24
ATOM     24  C   UNL     1       8.618  -6.010   0.028  0.00  0.00    +0.194 C 
ATOM     25  C   UNL     1       8.990  -7.484  -0.257  0.00  0.00    +0.104 C 
ATOM     26  C   UNL     1      10.007  -7.783   0.829  0.00  0.00    +0.091 C 
ATOM     27  N   UNL     1       9.923  -6.859   1.727  0.00  0.00    -0.089 NA
ATOM     28  O   UNL     1       8.936  -5.891   1.430  0.00  0.00    -0.392 OA
BRANCH  26  29
ATOM     29  C   UNL     1      10.931  -8.933   0.854  0.00  0.00    +0.003 A 
ATOM     30  C   UNL     1      10.922  -9.862  -0.188  0.00  0.00    +0.013 A 
ATOM     31  C   UNL     1      11.787 -10.935  -0.163  0.00  0.00    +0.050 A 
ATOM     32  C   UNL     1      12.669 -11.097   0.897  0.00  0.00    +0.166 A 
ATOM     33  C   UNL     1      12.683 -10.172   1.941  0.00  0.00    +0.167 A 
ATOM     34  C   UNL     1      11.822  -9.091   1.919  0.00  0.00    +0.059 A 
ATOM     35  O   UNL     1      13.629 -10.554   2.848  0.00  0.00    -0.453 OA
ATOM     36  C   UNL     1      13.908 -11.936   2.554  0.00  0.00    +0.466 C 
ATOM     37  O   UNL     1      13.607 -12.055   1.151  0.00  0.00    -0.453 OA
ENDBRANCH  26  29
ENDBRANCH  23  24
ENDBRANCH   1  23
TORSDOF 11
