REMARK  Name = ZINC55333972
REMARK  6 active torsions:
REMARK  status: ('A' for Active; 'I' for Inactive)
REMARK    1  A    between atoms: C_5  and  C_7
REMARK    2  A    between atoms: C_8  and  C_14
REMARK    3  A    between atoms: C_12  and  N_13
REMARK    4  A    between atoms: C_14  and  C_15
REMARK    5  A    between atoms: C_15  and  C_16
REMARK    6  A    between atoms: C_16  and  C_17
REMARK                            x       y       z     vdW  Elec       q    Type
REMARK                         _______ _______ _______ _____ _____    ______ ____
ROOT
ATOM      1  C   UNL     1       1.246  -2.165  -0.021  0.00  0.00    +0.045 A 
ATOM      2  C   UNL     1       1.267  -3.006   1.108  0.00  0.00    +0.072 A 
ATOM      3  N   UNL     1       1.287  -4.245   0.695  0.00  0.00    -0.177 NA
ATOM      4  N   UNL     1       1.281  -4.258  -0.704  0.00  0.00    -0.264 N 
ATOM      5  H   UNL     1       1.292  -5.050  -1.265  0.00  0.00    +0.190 HD
ATOM      6  C   UNL     1       1.250  -2.979  -1.140  0.00  0.00    +0.120 A 
ENDROOT
BRANCH   1  11
ATOM      7  C   UNL     1      -0.017   1.376   0.010  0.00  0.00    +0.001 A 
ATOM      8  C   UNL     1       1.170   2.087   0.002  0.00  0.00    +0.001 A 
ATOM      9  C   UNL     1       2.382   1.420  -0.013  0.00  0.00    +0.016 A 
ATOM     10  C   UNL     1       2.413   0.040  -0.021  0.00  0.00    +0.026 A 
ATOM     11  C   UNL     1       1.220  -0.682  -0.013  0.00  0.00    +0.001 A 
ATOM     12  C   UNL     1       0.002  -0.004   0.002  0.00  0.00    +0.010 A 
ATOM     13 BR   UNL     1       4.071  -0.871  -0.043  0.00  0.00    -0.050 Br
ENDBRANCH   1  11
BRANCH   6  14
ATOM     14  N   UNL     1       1.228  -2.561  -2.464  0.00  0.00    -0.343 N 
ATOM     15  H   UNL     1       1.209  -1.614  -2.673  0.00  0.00    +0.144 HD
ATOM     16  H   UNL     1       1.233  -3.216  -3.180  0.00  0.00    +0.144 HD
ENDBRANCH   6  14
BRANCH   2  17
ATOM     17  C   UNL     1       1.266  -2.554   2.546  0.00  0.00    +0.058 C 
BRANCH  17  18
ATOM     18  C   UNL     1      -0.176  -2.427   3.039  0.00  0.00    +0.011 C 
BRANCH  18  19
ATOM     19  C   UNL     1      -0.177  -1.968   4.499  0.00  0.00    +0.043 C 
BRANCH  19  20
ATOM     20  C   UNL     1      -1.598  -1.842   4.985  0.00  0.00    -0.010 A 
ATOM     21  C   UNL     1      -2.381  -2.774   5.582  0.00  0.00    +0.011 A 
ATOM     22  C   UNL     1      -3.669  -2.431   5.948  0.00  0.00    +0.008 A 
ATOM     23  C   UNL     1      -4.110  -1.174   5.701  0.00  0.00    +0.045 A 
ATOM     24  S   UNL     1      -2.683  -0.426   4.933  0.00  0.00    -0.102 S 
ENDBRANCH  19  20
ENDBRANCH  18  19
ENDBRANCH  17  18
ENDBRANCH   2  17
TORSDOF 6
