REMARK  Name = ZINC13535288
REMARK  13 active torsions:
REMARK  status: ('A' for Active; 'I' for Inactive)
REMARK    1  A    between atoms: C_1  and  C_2
REMARK    2  A    between atoms: C_2  and  O_3
REMARK    3  A    between atoms: O_3  and  C_4
REMARK    4  A    between atoms: C_4  and  C_6
REMARK    5  A    between atoms: C_7  and  O_27
REMARK    6  A    between atoms: C_8  and  C_12
REMARK    7  A    between atoms: N_10  and  C_11
REMARK    8  A    between atoms: N_14  and  C_15
REMARK    9  A    between atoms: C_20  and  C_21
REMARK   10  A    between atoms: C_20  and  N_69
REMARK   11  A    between atoms: O_27  and  C_28
REMARK   12  A    between atoms: C_28  and  C_29
REMARK   13  A    between atoms: C_32  and  C_35
REMARK                            x       y       z     vdW  Elec       q    Type
REMARK                         _______ _______ _______ _____ _____    ______ ____
ROOT
ATOM      1  C   UNL     1       1.172  -6.252  -3.024  0.00  0.00    +0.170 A 
ATOM      2  C   UNL     1       1.143  -4.955  -3.502  0.00  0.00    +0.165 A 
ATOM      3  C   UNL     1       1.011  -4.107  -2.373  0.00  0.00    +0.097 A 
ATOM      4  C   UNL     1       0.972  -4.917  -1.256  0.00  0.00    +0.103 A 
ATOM      5  N   UNL     1       1.062  -6.199  -1.645  0.00  0.00    -0.341 N 
ATOM      6  C   UNL     1       1.052  -7.359  -0.750  0.00  0.00    +0.149 C 
ENDROOT
BRANCH   3   7
ATOM      7  C   UNL     1       0.937  -2.637  -2.389  0.00  0.00    +0.249 C 
ATOM      8  O   UNL     1       0.989  -2.037  -3.446  0.00  0.00    -0.270 OA
ATOM      9  N   UNL     1       0.811  -1.956  -1.233  0.00  0.00    -0.308 N 
ATOM     10  H   UNL     1       0.770  -2.434  -0.390  0.00  0.00    +0.149 HD
BRANCH   9  11
ATOM     11  C   UNL     1       0.738  -0.493  -1.249  0.00  0.00    +0.070 C 
ATOM     12  C   UNL     1       0.002  -0.004   0.002  0.00  0.00    +0.004 C 
ATOM     13  C   UNL     1      -0.019   1.526   0.010  0.00  0.00    -0.077 C 
ATOM     14  C   UNL     1       2.070   1.619  -1.215  0.00  0.00    -0.077 C 
ATOM     15  C   UNL     1       2.153   0.091  -1.260  0.00  0.00    +0.004 C 
ATOM     16  N   UNL     1       1.373   2.025   0.024  0.00  0.00    +0.382 N 
ATOM     17  H   UNL     1       1.864   1.620   0.830  0.00  0.00    -0.081 HD
BRANCH  16  18
ATOM     18  C   UNL     1       1.380   3.497   0.147  0.00  0.00    -0.043 C 
BRANCH  18  19
ATOM     19  C   UNL     1       2.796   3.958   0.378  0.00  0.00    -0.064 A 
ATOM     20  C   UNL     1       3.289   4.058   1.666  0.00  0.00    +0.002 A 
ATOM     21  C   UNL     1       4.590   4.475   1.878  0.00  0.00    +0.000 A 
ATOM     22  C   UNL     1       5.394   4.803   0.802  0.00  0.00    +0.000 A 
ATOM     23  C   UNL     1       4.900   4.708  -0.485  0.00  0.00    +0.000 A 
ATOM     24  C   UNL     1       3.601   4.286  -0.697  0.00  0.00    +0.002 A 
ENDBRANCH  18  19
ENDBRANCH  16  18
ENDBRANCH   9  11
ENDBRANCH   3   7
BRANCH   1  25
ATOM     25  C   UNL     1       1.293  -7.426  -3.806  0.00  0.00    +0.360 C 
ATOM     26  O   UNL     1       1.383  -7.345  -5.016  0.00  0.00    -0.243 OA
BRANCH  25  27
ATOM     27  O   UNL     1       1.309  -8.636  -3.208  0.00  0.00    -0.460 OA
BRANCH  27  29
ATOM     28  C   UNL     1       1.433 -11.050  -3.207  0.00  0.00    +0.048 C 
ATOM     29  C   UNL     1       1.433  -9.778  -4.058  0.00  0.00    +0.229 C 
ENDBRANCH  27  29
ENDBRANCH  25  27
ENDBRANCH   1  25
BRANCH   2  30
ATOM     30  O   UNL     1       1.225  -4.569  -4.799  0.00  0.00    -0.484 OA
BRANCH  30  31
ATOM     31  C   UNL     1       2.532  -4.319  -5.320  0.00  0.00    +0.264 C 
BRANCH  31  32
ATOM     32  C   UNL     1       2.426  -3.904  -6.765  0.00  0.00    -0.010 A 
ATOM     33  C   UNL     1       2.469  -4.862  -7.762  0.00  0.00    +0.008 A 
ATOM     34  C   UNL     1       2.367  -4.489  -9.086  0.00  0.00    +0.019 A 
ATOM     35  C   UNL     1       2.232  -3.140  -9.420  0.00  0.00    +0.052 A 
ATOM     36  C   UNL     1       2.195  -2.178  -8.409  0.00  0.00    +0.019 A 
ATOM     37  C   UNL     1       2.292  -2.565  -7.089  0.00  0.00    +0.008 A 
BRANCH  35  38
ATOM     38  C   UNL     1       2.131  -2.745 -10.793  0.00  0.00    +0.099 C 
ATOM     39  N   UNL     1       2.051  -2.432 -11.882  0.00  0.00    -0.191 NA
ENDBRANCH  35  38
ENDBRANCH  31  32
ENDBRANCH  30  31
ENDBRANCH   2  30
TORSDOF 11
