REMARK  Name = ZINC20727056
REMARK  9 active torsions:
REMARK  status: ('A' for Active; 'I' for Inactive)
REMARK    1  A    between atoms: C_1  and  C_2
REMARK    2  A    between atoms: C_2  and  C_3
REMARK    3  A    between atoms: C_3  and  C_5
REMARK    4  A    between atoms: C_3  and  C_6
REMARK    5  A    between atoms: C_6  and  C_8
REMARK    6  A    between atoms: C_6  and  N_12
REMARK    7  A    between atoms: C_8  and  O_10
REMARK    8  A    between atoms: O_10  and  C_11
REMARK    9  A    between atoms: C_24  and  C_26
REMARK                            x       y       z     vdW  Elec       q    Type
REMARK                         _______ _______ _______ _____ _____    ______ ____
ROOT
ATOM      1  N   UNL     1      -0.535  -2.178  -4.201  0.00  0.00    -0.286 N 
ATOM      2  C   UNL     1      -1.137  -2.401  -3.016  0.00  0.00    +0.304 C 
ATOM      3  O   UNL     1      -0.484  -2.381  -1.990  0.00  0.00    -0.253 OA
ATOM      4  N   UNL     1      -2.461  -2.644  -2.967  0.00  0.00    -0.273 N 
ATOM      5  C   UNL     1      -3.158  -2.771  -1.679  0.00  0.00    +0.116 C 
ATOM      6  C   UNL     1      -3.703  -4.198  -1.538  0.00  0.00    +0.076 C 
ATOM      7  C   UNL     1      -4.365  -4.596  -2.833  0.00  0.00    +0.066 A 
ATOM      8  C   UNL     1      -4.162  -3.976  -4.016  0.00  0.00    +0.064 A 
ATOM      9  N   UNL     1      -4.924  -4.617  -4.943  0.00  0.00    -0.346 N 
ATOM     10  H   UNL     1      -4.987  -4.401  -5.887  0.00  0.00    +0.167 HD
ATOM     11  C   UNL     1      -5.576  -5.612  -4.298  0.00  0.00    +0.197 A 
ATOM     12  N   UNL     1      -5.236  -5.590  -3.037  0.00  0.00    -0.240 NA
ATOM     13  C   UNL     1      -3.250  -2.785  -4.205  0.00  0.00    +0.156 C 
ATOM     14  H   UNL     1      -1.040  -2.264  -5.025  0.00  0.00    +0.151 HD
ENDROOT
BRANCH  13  15
ATOM     15  C   UNL     1      -4.067  -1.540  -4.437  0.00  0.00    -0.020 A 
ATOM     16  C   UNL     1      -5.050  -1.180  -3.534  0.00  0.00    +0.006 A 
ATOM     17  C   UNL     1      -5.800  -0.038  -3.746  0.00  0.00    +0.002 A 
ATOM     18  C   UNL     1      -5.566   0.745  -4.862  0.00  0.00    +0.020 A 
ATOM     19  C   UNL     1      -4.583   0.386  -5.765  0.00  0.00    +0.041 A 
ATOM     20  C   UNL     1      -3.829  -0.754  -5.549  0.00  0.00    +0.025 A 
ATOM     21 CL   UNL     1      -4.289   1.368  -7.166  0.00  0.00    -0.084 Cl
ENDBRANCH  13  15
BRANCH   1  22
ATOM     22  C   UNL     1       0.881  -1.806  -4.246  0.00  0.00    +0.186 C 
BRANCH  22  23
ATOM     23  C   UNL     1       1.742  -3.071  -4.213  0.00  0.00    +0.017 C 
ATOM     24  C   UNL     1       3.219  -2.681  -4.134  0.00  0.00    +0.010 C 
BRANCH  23  26
ATOM     25  C   UNL     1       2.261  -5.210  -5.396  0.00  0.00    +0.004 C 
ATOM     26  C   UNL     1       1.497  -3.887  -5.484  0.00  0.00    +0.002 C 
ENDBRANCH  23  26
ENDBRANCH  22  23
BRANCH  22  27
ATOM     27  C   UNL     1       1.160  -1.041  -5.514  0.00  0.00    +0.328 C 
ATOM     28  O   UNL     1       0.267  -0.829  -6.300  0.00  0.00    -0.249 OA
BRANCH  27  29
ATOM     29  O   UNL     1       2.400  -0.597  -5.771  0.00  0.00    -0.467 OA
ATOM     30  C   UNL     1       2.592   0.121  -6.992  0.00  0.00    +0.280 C 
ENDBRANCH  27  29
ENDBRANCH  22  27
ENDBRANCH   1  22
TORSDOF 6
