REMARK  Name = ZINC12348497
REMARK  8 active torsions:
REMARK  status: ('A' for Active; 'I' for Inactive)
REMARK    1  A    between atoms: C_1  and  O_2
REMARK    2  A    between atoms: O_2  and  C_3
REMARK    3  A    between atoms: C_6  and  C_13
REMARK    4  A    between atoms: C_7  and  O_11
REMARK    5  A    between atoms: C_8  and  O_9
REMARK    6  A    between atoms: O_9  and  C_10
REMARK    7  A    between atoms: O_11  and  C_12
REMARK    8  A    between atoms: N_19  and  C_22
REMARK                            x       y       z     vdW  Elec       q    Type
REMARK                         _______ _______ _______ _____ _____    ______ ____
ROOT
ATOM      1  C   UNL     1       2.595  -2.541   4.320  0.00  0.00    +0.096 C 
ATOM      2  C   UNL     1       1.918  -2.155   5.605  0.00  0.00    +0.070 A 
ATOM      3  C   UNL     1       2.481  -1.280   6.500  0.00  0.00    +0.125 A 
ATOM      4  N   UNL     1       1.626  -1.137   7.549  0.00  0.00    -0.277 N 
ATOM      5  H   UNL     1       1.766  -0.575   8.327  0.00  0.00    +0.189 HD
ATOM      6  N   UNL     1       0.504  -1.945   7.304  0.00  0.00    -0.218 N 
ATOM      7  C   UNL     1       0.687  -2.565   6.117  0.00  0.00    +0.278 A 
ATOM      8  O   UNL     1      -0.087  -3.345   5.588  0.00  0.00    -0.265 OA
ATOM      9  N   UNL     1       3.710  -0.711   6.269  0.00  0.00    -0.303 N 
ATOM     10  C   UNL     1       4.514  -1.251   5.292  0.00  0.00    +0.017 C 
ATOM     11  C   UNL     1       4.044  -2.106   4.361  0.00  0.00    +0.024 C 
ATOM     12  C   UNL     1       4.895  -2.637   3.372  0.00  0.00    +0.162 C 
ATOM     13  O   UNL     1       4.445  -3.423   2.562  0.00  0.00    -0.292 OA
ATOM     14  C   UNL     1       6.346  -2.255   3.297  0.00  0.00    +0.080 C 
ATOM     15  C   UNL     1       6.519  -0.847   3.877  0.00  0.00    +0.014 C 
ATOM     16  C   UNL     1       5.971  -0.846   5.304  0.00  0.00    +0.051 C 
ATOM     17  H   UNL     1       4.005   0.056   6.785  0.00  0.00    +0.153 HD
ENDROOT
BRANCH   1  21
ATOM     18  C   UNL     1       0.626  -0.619   1.042  0.00  0.00    +0.165 A 
ATOM     19  C   UNL     1       1.202   0.138   2.051  0.00  0.00    +0.050 A 
ATOM     20  C   UNL     1       1.837  -0.486   3.109  0.00  0.00    +0.012 A 
ATOM     21  C   UNL     1       1.901  -1.866   3.165  0.00  0.00    +0.010 A 
ATOM     22  C   UNL     1       1.327  -2.630   2.160  0.00  0.00    +0.169 A 
ATOM     23  C   UNL     1       0.683  -2.006   1.098  0.00  0.00    +0.204 A 
BRANCH  18  25
ATOM     24  C   UNL     1      -0.017   1.425   0.010  0.00  0.00    +0.277 C 
ATOM     25  O   UNL     1       0.002  -0.004   0.002  0.00  0.00    -0.491 OA
ENDBRANCH  18  25
BRANCH  23  26
ATOM     26  O   UNL     1       0.114  -2.752   0.113  0.00  0.00    -0.488 OA
ATOM     27  C   UNL     1       0.939  -3.090  -1.004  0.00  0.00    +0.277 C 
ENDBRANCH  23  26
BRANCH  22  28
ATOM     28  O   UNL     1       1.391  -3.987   2.216  0.00  0.00    -0.491 OA
ATOM     29  C   UNL     1       0.325  -4.659   2.888  0.00  0.00    +0.277 C 
ENDBRANCH  22  28
ENDBRANCH   1  21
BRANCH   6  30
ATOM     30  C   UNL     1      -0.608  -2.084   8.141  0.00  0.00    +0.067 A 
ATOM     31  C   UNL     1      -1.651  -2.926   7.779  0.00  0.00    +0.028 A 
ATOM     32  C   UNL     1      -2.747  -3.061   8.608  0.00  0.00    +0.002 A 
ATOM     33  C   UNL     1      -2.807  -2.358   9.797  0.00  0.00    +0.000 A 
ATOM     34  C   UNL     1      -1.770  -1.518  10.161  0.00  0.00    +0.002 A 
ATOM     35  C   UNL     1      -0.668  -1.383   9.339  0.00  0.00    +0.028 A 
ENDBRANCH   6  30
TORSDOF 5
