REMARK  Name = ZINC33686806
REMARK  7 active torsions:
REMARK  status: ('A' for Active; 'I' for Inactive)
REMARK    1  A    between atoms: C_4  and  C_28
REMARK    2  A    between atoms: C_5  and  C_7
REMARK    3  A    between atoms: C_7  and  O_8
REMARK    4  A    between atoms: O_8  and  C_9
REMARK    5  A    between atoms: C_12  and  C_16
REMARK    6  A    between atoms: N_17  and  N_18
REMARK    7  A    between atoms: C_22  and  N_25
REMARK                            x       y       z     vdW  Elec       q    Type
REMARK                         _______ _______ _______ _____ _____    ______ ____
ROOT
ATOM      1  C   UNL     1      -9.628   4.144  -0.030  0.00  0.00    +0.134 A 
ATOM      2  C   UNL     1      -8.457   3.425   0.170  0.00  0.00    +0.047 A 
ATOM      3  C   UNL     1      -7.239   4.070   0.164  0.00  0.00    +0.013 A 
ATOM      4  C   UNL     1      -7.184   5.453  -0.033  0.00  0.00    -0.004 A 
ATOM      5  C   UNL     1      -8.365   6.173  -0.233  0.00  0.00    +0.027 A 
ATOM      6  C   UNL     1      -9.578   5.518  -0.231  0.00  0.00    +0.056 A 
ATOM      7  I   UNL     1     -11.349   6.596  -0.531  0.00  0.00    -0.040 I 
ENDROOT
BRANCH   4   8
ATOM      8  C   UNL     1      -5.884   6.148  -0.035  0.00  0.00    +0.138 C 
ATOM      9  N   UNL     1      -4.783   5.466  -0.116  0.00  0.00    -0.189 NA
BRANCH   9  10
ATOM     10  N   UNL     1      -4.800   4.168  -0.643  0.00  0.00    -0.221 N 
ATOM     11  C   UNL     1      -3.649   3.390  -0.613  0.00  0.00    +0.138 A 
ATOM     12  C   UNL     1      -3.673   2.102  -1.139  0.00  0.00    +0.047 A 
ATOM     13  C   UNL     1      -2.520   1.339  -1.103  0.00  0.00    +0.037 A 
ATOM     14  C   UNL     1      -1.377   1.892  -0.540  0.00  0.00    +0.144 A 
ATOM     15  C   UNL     1      -1.426   3.175  -0.031  0.00  0.00    +0.145 A 
ATOM     16  N   UNL     1      -2.539   3.882  -0.084  0.00  0.00    -0.237 NA
ATOM     17  H   UNL     1      -5.725   3.765  -1.081  0.00  0.00    +0.176 HD
BRANCH  14  18
ATOM     18  N   UNL     1      -0.121   1.111  -0.480  0.00  0.00    +0.058 N 
ATOM     19  O   UNL     1      -0.086  -0.021  -0.925  0.00  0.00    -0.126 OA
ATOM     20  O   UNL     1       0.879   1.604   0.011  0.00  0.00    -0.126 OA
ENDBRANCH  14  18
ENDBRANCH   9  10
ENDBRANCH   4   8
BRANCH   1  21
ATOM     21  O   UNL     1     -10.825   3.503  -0.029  0.00  0.00    -0.486 OA
BRANCH  21  22
ATOM     22  C   UNL     1     -10.804   2.090   0.183  0.00  0.00    +0.265 C 
BRANCH  22  27
ATOM     23  C   UNL     1     -14.567   1.925  -0.089  0.00  0.00    +0.000 A 
ATOM     24  C   UNL     1     -14.808   0.575   0.093  0.00  0.00    +0.001 A 
ATOM     25  C   UNL     1     -13.758  -0.294   0.305  0.00  0.00    +0.019 A 
ATOM     26  C   UNL     1     -12.449   0.192   0.336  0.00  0.00    +0.058 A 
ATOM     27  C   UNL     1     -12.213   1.556   0.151  0.00  0.00    +0.007 A 
ATOM     28  C   UNL     1     -13.273   2.414  -0.055  0.00  0.00    +0.008 A 
BRANCH  26  29
ATOM     29  C   UNL     1     -11.354  -0.704   0.556  0.00  0.00    +0.100 C 
ATOM     30  N   UNL     1     -10.485  -1.415   0.731  0.00  0.00    -0.191 NA
ENDBRANCH  26  29
ENDBRANCH  22  27
ENDBRANCH  21  22
ENDBRANCH   1  21
TORSDOF 7
