REMARK  Name = ZINC35711383
REMARK  11 active torsions:
REMARK  status: ('A' for Active; 'I' for Inactive)
REMARK    1  A    between atoms: C_1  and  C_2
REMARK    2  A    between atoms: C_2  and  C_3
REMARK    3  A    between atoms: C_3  and  N_4
REMARK    4  A    between atoms: C_5  and  C_34
REMARK    5  A    between atoms: C_6  and  C_29
REMARK    6  A    between atoms: C_7  and  C_12
REMARK    7  A    between atoms: C_15  and  N_18
REMARK    8  A    between atoms: N_21  and  C_22
REMARK    9  A    between atoms: C_29  and  O_31
REMARK   10  A    between atoms: O_31  and  C_32
REMARK   11  A    between atoms: C_32  and  C_33
REMARK                            x       y       z     vdW  Elec       q    Type
REMARK                         _______ _______ _______ _____ _____    ______ ____
ROOT
ATOM      1  C   UNL     1       1.630  -5.644  -2.559  0.00  0.00    -0.022 A 
ATOM      2  C   UNL     1       1.831  -5.086  -3.808  0.00  0.00    +0.007 A 
ATOM      3  C   UNL     1       2.372  -5.845  -4.827  0.00  0.00    +0.024 A 
ATOM      4  C   UNL     1       2.716  -7.171  -4.596  0.00  0.00    +0.035 A 
ATOM      5  C   UNL     1       2.513  -7.729  -3.340  0.00  0.00    +0.024 A 
ATOM      6  C   UNL     1       1.976  -6.962  -2.324  0.00  0.00    +0.007 A 
ENDROOT
BRANCH   1  10
ATOM      7  N   UNL     1       0.831  -2.055  -1.414  0.00  0.00    -0.259 N 
ATOM      8  C   UNL     1       1.966  -2.610  -0.893  0.00  0.00    +0.024 C 
ATOM      9  C   UNL     1       2.141  -3.949  -0.875  0.00  0.00    +0.078 C 
ATOM     10  C   UNL     1       1.038  -4.813  -1.450  0.00  0.00    +0.143 C 
ATOM     11  N   UNL     1      -0.144  -4.117  -1.987  0.00  0.00    -0.288 N 
ATOM     12  C   UNL     1      -0.176  -2.771  -1.930  0.00  0.00    +0.307 C 
ATOM     13  O   UNL     1      -1.149  -2.187  -2.367  0.00  0.00    -0.252 OA
ATOM     14  C   UNL     1       3.038  -1.713  -0.331  0.00  0.00    +0.061 C 
ATOM     15  H   UNL     1      -0.883  -4.616  -2.368  0.00  0.00    +0.151 HD
BRANCH   9  16
ATOM     16  C   UNL     1       3.316  -4.524  -0.337  0.00  0.00    +0.339 C 
ATOM     17  O   UNL     1       4.189  -3.811   0.120  0.00  0.00    -0.245 OA
BRANCH  16  18
ATOM     18  O   UNL     1       3.468  -5.865  -0.329  0.00  0.00    -0.462 OA
BRANCH  18  19
ATOM     19  C   UNL     1       4.679  -6.378   0.230  0.00  0.00    +0.229 C 
ATOM     20  C   UNL     1       4.671  -7.906   0.150  0.00  0.00    +0.048 C 
ENDBRANCH  18  19
ENDBRANCH  16  18
ENDBRANCH   9  16
BRANCH   7  21
ATOM     21  C   UNL     1       0.707  -0.596  -1.402  0.00  0.00    +0.114 C 
BRANCH  21  23
ATOM     22  C   UNL     1       1.288   1.511  -2.613  0.00  0.00    +0.005 C 
ATOM     23  C   UNL     1       1.418  -0.013  -2.625  0.00  0.00    +0.016 C 
ENDBRANCH  21  23
ENDBRANCH   7  21
ENDBRANCH   1  10
BRANCH   4  24
ATOM     24  N   UNL     1       3.264  -7.943  -5.626  0.00  0.00    -0.269 N 
ATOM     25  C   UNL     1       4.090  -7.375  -6.527  0.00  0.00    +0.308 C 
ATOM     26  O   UNL     1       4.296  -6.177  -6.493  0.00  0.00    -0.252 OA
ATOM     27  N   UNL     1       4.686  -8.135  -7.467  0.00  0.00    -0.268 N 
ATOM     28  H   UNL     1       3.051  -8.887  -5.691  0.00  0.00    +0.156 HD
ATOM     29  H   UNL     1       4.459  -9.074  -7.548  0.00  0.00    +0.156 HD
BRANCH  27  30
ATOM     30  C   UNL     1       5.634  -7.568  -8.327  0.00  0.00    +0.049 A 
ATOM     31  C   UNL     1       6.473  -6.560  -7.871  0.00  0.00    +0.024 A 
ATOM     32  C   UNL     1       7.407  -6.003  -8.722  0.00  0.00    +0.002 A 
ATOM     33  C   UNL     1       7.508  -6.448 -10.028  0.00  0.00    +0.001 A 
ATOM     34  C   UNL     1       6.675  -7.451 -10.486  0.00  0.00    +0.017 A 
ATOM     35  C   UNL     1       5.741  -8.017  -9.638  0.00  0.00    +0.039 A 
ATOM     36 BR   UNL     1       4.607  -9.395 -10.262  0.00  0.00    -0.048 Br
ENDBRANCH  27  30
ENDBRANCH   4  24
TORSDOF 8
