REMARK  Name = ZINC12499596
REMARK  10 active torsions:
REMARK  status: ('A' for Active; 'I' for Inactive)
REMARK    1  A    between atoms: C_1  and  C_2
REMARK    2  A    between atoms: C_5  and  C_31
REMARK    3  A    between atoms: C_6  and  O_8
REMARK    4  A    between atoms: O_8  and  C_9
REMARK    5  A    between atoms: C_9  and  C_10
REMARK    6  A    between atoms: N_12  and  C_13
REMARK    7  A    between atoms: C_13  and  N_15
REMARK    8  A    between atoms: N_15  and  C_16
REMARK    9  A    between atoms: C_19  and  S_22
REMARK   10  A    between atoms: S_22  and  N_25
REMARK                            x       y       z     vdW  Elec       q    Type
REMARK                         _______ _______ _______ _____ _____    ______ ____
ROOT
ATOM      1  N   UNL     1       1.162   3.485   0.009  0.00  0.00    -0.297 N 
ATOM      2  H   UNL     1       0.320   3.961  -0.062  0.00  0.00    +0.154 HD
ENDROOT
BRANCH   1   3
ATOM      3  C   UNL     1       1.177   2.086   0.013  0.00  0.00    +0.033 A 
ATOM      4  C   UNL     1       2.010   1.401   0.888  0.00  0.00    +0.025 A 
ATOM      5  C   UNL     1       2.022   0.020   0.890  0.00  0.00    +0.030 A 
ATOM      6  C   UNL     1       1.205  -0.681   0.022  0.00  0.00    +0.109 A 
ATOM      7  C   UNL     1       0.374  -0.002  -0.851  0.00  0.00    +0.030 A 
ATOM      8  C   UNL     1       0.357   1.379  -0.857  0.00  0.00    +0.025 A 
BRANCH   6   9
ATOM      9  S   UNL     1       1.223  -2.443   0.027  0.00  0.00    +0.074 S 
ATOM     10  O   UNL     1       0.771  -2.857  -1.254  0.00  0.00    -0.150 OA
ATOM     11  O   UNL     1       2.483  -2.834   0.554  0.00  0.00    -0.150 OA
BRANCH   9  12
ATOM     12  N   UNL     1       0.079  -2.940   1.116  0.00  0.00    -0.194 N 
ATOM     13  C   UNL     1      -1.262  -2.675   0.883  0.00  0.00    +0.177 A 
ATOM     14  N   UNL     1      -1.817  -2.042  -0.132  0.00  0.00    -0.232 NA
ATOM     15  C   UNL     1      -3.125  -1.877  -0.201  0.00  0.00    +0.120 A 
ATOM     16  C   UNL     1      -3.891  -2.365   0.803  0.00  0.00    +0.068 A 
ATOM     17  S   UNL     1      -2.640  -3.084   1.857  0.00  0.00    -0.059 S 
ATOM     18  H   UNL     1       0.347  -3.418   1.917  0.00  0.00    +0.176 HD
ENDBRANCH   9  12
ENDBRANCH   6   9
ENDBRANCH   1   3
BRANCH   1  19
ATOM     19  C   UNL     1       2.318   4.171   0.104  0.00  0.00    +0.141 C 
ATOM     20  S   UNL     1       3.813   3.336   0.086  0.00  0.00    -0.018 S 
BRANCH  19  23
ATOM     21  C   UNL     1       3.454   6.200   0.306  0.00  0.00    +0.256 C 
ATOM     22  O   UNL     1       4.512   5.609   0.294  0.00  0.00    -0.272 OA
ATOM     23  N   UNL     1       2.298   5.514   0.212  0.00  0.00    -0.265 N 
ATOM     24  H   UNL     1       1.451   5.987   0.222  0.00  0.00    +0.157 HD
BRANCH  21  25
ATOM     25  C   UNL     1       3.431   7.702   0.428  0.00  0.00    +0.325 C 
BRANCH  25  26
ATOM     26  O   UNL     1       4.770   8.194   0.512  0.00  0.00    -0.482 OA
BRANCH  26  32
ATOM     27  C   UNL     1       2.771  12.637   0.807  0.00  0.00    +0.044 C 
ATOM     28  C   UNL     1       3.978  11.735   0.774  0.00  0.00    -0.047 A 
ATOM     29  C   UNL     1       5.248  12.277   0.861  0.00  0.00    +0.004 A 
ATOM     30  C   UNL     1       6.357  11.452   0.830  0.00  0.00    +0.007 A 
ATOM     31  C   UNL     1       6.199  10.084   0.720  0.00  0.00    -0.009 A 
ATOM     32  C   UNL     1       4.927   9.539   0.627  0.00  0.00    +0.124 A 
ATOM     33  C   UNL     1       3.816  10.369   0.657  0.00  0.00    +0.049 A 
ATOM     34  C   UNL     1       7.409   9.185   0.693  0.00  0.00    +0.047 C 
ENDBRANCH  26  32
ENDBRANCH  25  26
ENDBRANCH  21  25
ENDBRANCH  19  23
ENDBRANCH   1  19
TORSDOF 8
