REMARK  Name = ZINC20608455
REMARK  7 active torsions:
REMARK  status: ('A' for Active; 'I' for Inactive)
REMARK    1  A    between atoms: C_1  and  C_2
REMARK    2  A    between atoms: C_7  and  N_8
REMARK    3  A    between atoms: C_9  and  C_11
REMARK    4  A    between atoms: C_12  and  C_35
REMARK    5  A    between atoms: C_19  and  C_20
REMARK    6  A    between atoms: C_27  and  C_29
REMARK    7  A    between atoms: C_32  and  C_34
REMARK                            x       y       z     vdW  Elec       q    Type
REMARK                         _______ _______ _______ _____ _____    ______ ____
ROOT
ATOM      1  C   UNL     1       0.987   2.578  -0.632  0.00  0.00    +0.066 C 
ATOM      2  C   UNL     1       1.950   2.016  -1.421  0.00  0.00    +0.052 C 
ATOM      3  N   UNL     1       3.077   2.669  -1.680  0.00  0.00    -0.228 NA
ATOM      4  C   UNL     1       3.372   3.857  -1.219  0.00  0.00    +0.178 A 
ATOM      5  N   UNL     1       2.545   4.596  -0.402  0.00  0.00    -0.272 N 
ATOM      6  C   UNL     1       2.968   5.800   0.001  0.00  0.00    +0.268 A 
ATOM      7  O   UNL     1       2.269   6.487   0.724  0.00  0.00    -0.266 OA
ATOM      8  C   UNL     1       4.241   6.269  -0.424  0.00  0.00    +0.082 A 
ATOM      9  C   UNL     1       4.867   7.448  -0.141  0.00  0.00    +0.046 C 
ATOM     10  S   UNL     1       4.800   4.901  -1.426  0.00  0.00    -0.046 S 
ATOM     11  C   UNL     1       1.248   3.952  -0.057  0.00  0.00    +0.195 C 
ATOM     12  C   UNL     1       1.729   0.645  -2.007  0.00  0.00    +0.066 C 
ENDROOT
BRANCH   9  13
ATOM     13  C   UNL     1       4.146   8.664  -0.200  0.00  0.00    +0.040 A 
ATOM     14  C   UNL     1       4.682   9.925  -0.396  0.00  0.00    +0.027 A 
ATOM     15  C   UNL     1       3.616  10.829  -0.386  0.00  0.00    +0.019 A 
ATOM     16  C   UNL     1       2.475  10.128  -0.181  0.00  0.00    +0.083 A 
ATOM     17  N   UNL     1       2.783   8.810  -0.066  0.00  0.00    -0.361 N 
ATOM     18  H   UNL     1       2.150   7.927   0.104  0.00  0.00    +0.165 HD
ENDBRANCH   9  13
BRANCH  11  19
ATOM     19  C   UNL     1       1.167   3.849   1.445  0.00  0.00    +0.133 A 
ATOM     20  C   UNL     1       0.085   4.125   2.195  0.00  0.00    +0.047 A 
ATOM     21  C   UNL     1       0.450   3.895   3.541  0.00  0.00    +0.045 A 
ATOM     22  C   UNL     1       1.734   3.492   3.533  0.00  0.00    +0.102 A 
ATOM     23  O   UNL     1       2.161   3.460   2.260  0.00  0.00    -0.462 OA
ATOM     24  C   UNL     1       2.551   3.130   4.746  0.00  0.00    +0.086 C 
ENDBRANCH  11  19
BRANCH   1  26
ATOM     25  N   UNL     1      -0.220   0.878   0.526  0.00  0.00    -0.281 N 
ATOM     26  C   UNL     1      -0.211   1.896  -0.357  0.00  0.00    +0.248 C 
ATOM     27  O   UNL     1      -1.243   2.228  -0.915  0.00  0.00    -0.270 OA
ATOM     28  H   UNL     1       0.690   0.635   1.094  0.00  0.00    +0.155 HD
BRANCH  25  35
ATOM     29  C   UNL     1      -0.371  -0.804   2.816  0.00  0.00    +0.045 C 
ATOM     30  C   UNL     1      -1.502  -0.702   1.826  0.00  0.00    -0.029 A 
ATOM     31  C   UNL     1      -2.658  -1.434   2.019  0.00  0.00    +0.005 A 
ATOM     32  C   UNL     1      -3.695  -1.345   1.108  0.00  0.00    +0.000 A 
ATOM     33  C   UNL     1      -3.580  -0.520   0.004  0.00  0.00    +0.002 A 
ATOM     34  C   UNL     1      -2.430   0.218  -0.192  0.00  0.00    +0.023 A 
ATOM     35  C   UNL     1      -1.387   0.132   0.722  0.00  0.00    +0.037 A 
ENDBRANCH  25  35
ENDBRANCH   1  26
TORSDOF 4
