REMARK  Name = ZINC02226565
REMARK  10 active torsions:
REMARK  status: ('A' for Active; 'I' for Inactive)
REMARK    1  A    between atoms: C_1  and  C_2
REMARK    2  A    between atoms: N_8  and  C_9
REMARK    3  A    between atoms: C_9  and  C_10
REMARK    4  A    between atoms: C_18  and  C_26
REMARK    5  A    between atoms: C_20  and  C_24
REMARK    6  A    between atoms: C_21  and  N_23
REMARK    7  A    between atoms: C_28  and  O_34
REMARK    8  A    between atoms: C_31  and  O_32
REMARK    9  A    between atoms: O_32  and  C_33
REMARK   10  A    between atoms: O_34  and  C_35
REMARK                            x       y       z     vdW  Elec       q    Type
REMARK                         _______ _______ _______ _____ _____    ______ ____
ROOT
ATOM      1  C   UNL     1      -2.460   1.275   0.130  0.00  0.00    +0.064 C 
ATOM      2  C   UNL     1      -1.195   2.092   0.071  0.00  0.00    +0.023 A 
ATOM      3  C   UNL     1      -1.272   3.426  -0.125  0.00  0.00    +0.068 A 
ATOM      4  C   UNL     1      -0.090   4.194  -0.188  0.00  0.00    +0.141 A 
ATOM      5  C   UNL     1       1.126   3.561  -0.039  0.00  0.00    +0.072 A 
ATOM      6  C   UNL     1       1.156   2.176   0.168  0.00  0.00    +0.259 A 
ATOM      7  O   UNL     1       2.226   1.603   0.301  0.00  0.00    -0.267 OA
ATOM      8  N   UNL     1       0.007   1.476   0.221  0.00  0.00    -0.308 N 
ATOM      9  C   UNL     1       2.410   4.341  -0.097  0.00  0.00    +0.107 C 
ATOM     10  C   UNL     1       2.168   5.691  -0.713  0.00  0.00    +0.098 C 
ATOM     11  C   UNL     1       0.918   6.199  -0.823  0.00  0.00    +0.199 C 
ATOM     12  O   UNL     1      -0.163   5.526  -0.390  0.00  0.00    -0.441 OA
ENDROOT
BRANCH   9  13
ATOM     13  C   UNL     1       2.950   4.519   1.299  0.00  0.00    +0.011 A 
ATOM     14  C   UNL     1       2.201   5.184   2.250  0.00  0.00    +0.053 A 
ATOM     15  C   UNL     1       2.697   5.344   3.536  0.00  0.00    +0.121 A 
ATOM     16  C   UNL     1       3.948   4.843   3.864  0.00  0.00    +0.049 A 
ATOM     17  C   UNL     1       4.699   4.182   2.912  0.00  0.00    +0.049 A 
ATOM     18  C   UNL     1       4.202   4.019   1.627  0.00  0.00    +0.124 A 
BRANCH  18  19
ATOM     19  O   UNL     1       4.941   3.368   0.689  0.00  0.00    -0.495 OA
ATOM     20  C   UNL     1       6.221   2.880   1.096  0.00  0.00    +0.277 C 
ENDBRANCH  18  19
BRANCH  15  21
ATOM     21  O   UNL     1       1.958   5.994   4.473  0.00  0.00    -0.495 OA
ATOM     22  C   UNL     1       2.532   6.126   5.775  0.00  0.00    +0.277 C 
ENDBRANCH  15  21
ENDBRANCH   9  13
BRANCH  11  23
ATOM     23  N   UNL     1       0.749   7.436  -1.392  0.00  0.00    -0.328 N 
ATOM     24  H   UNL     1      -0.260   7.864  -1.490  0.00  0.00    +0.145 HD
ATOM     25  H   UNL     1       1.622   8.001  -1.751  0.00  0.00    +0.145 HD
ENDBRANCH  11  23
BRANCH  10  26
ATOM     26  C   UNL     1       3.281   6.455  -1.192  0.00  0.00    +0.101 C 
ATOM     27  N   UNL     1       4.163   7.060  -1.572  0.00  0.00    -0.191 NA
ENDBRANCH  10  26
BRANCH   8  28
ATOM     28  C   UNL     1       0.054   0.028   0.436  0.00  0.00    +0.160 C 
BRANCH  28  29
ATOM     29  C   UNL     1       0.090  -0.259   1.915  0.00  0.00    -0.026 A 
ATOM     30  C   UNL     1      -1.091  -0.425   2.615  0.00  0.00    +0.007 A 
ATOM     31  C   UNL     1      -1.059  -0.688   3.972  0.00  0.00    +0.022 A 
ATOM     32  C   UNL     1       0.154  -0.785   4.630  0.00  0.00    +0.059 A 
ATOM     33  C   UNL     1       1.336  -0.619   3.929  0.00  0.00    +0.060 A 
ATOM     34  C   UNL     1       1.303  -0.360   2.570  0.00  0.00    +0.026 A 
ATOM     35 CL   UNL     1       2.859  -0.740   4.753  0.00  0.00    -0.082 Cl
ATOM     36 CL   UNL     1       0.194  -1.116   6.333  0.00  0.00    -0.082 Cl
ENDBRANCH  28  29
ENDBRANCH   8  28
TORSDOF 7
