REMARK  Name = ZINC12001006
REMARK  13 active torsions:
REMARK  status: ('A' for Active; 'I' for Inactive)
REMARK    1  A    between atoms: C_1  and  C_2
REMARK    2  A    between atoms: C_2  and  O_3
REMARK    3  A    between atoms: O_3  and  C_4
REMARK    4  A    between atoms: C_4  and  C_6
REMARK    5  A    between atoms: C_6  and  C_25
REMARK    6  A    between atoms: N_9  and  C_12
REMARK    7  A    between atoms: C_12  and  C_14
REMARK    8  A    between atoms: C_12  and  C_15
REMARK    9  A    between atoms: C_15  and  C_16
REMARK   10  A    between atoms: C_19  and  O_24
REMARK   11  A    between atoms: C_20  and  O_22
REMARK   12  A    between atoms: O_22  and  C_23
REMARK   13  A    between atoms: C_25  and  C_26
REMARK                            x       y       z     vdW  Elec       q    Type
REMARK                         _______ _______ _______ _____ _____    ______ ____
ROOT
ATOM      1  C   UNL     1      -3.110  -2.573   0.156  0.00  0.00    +0.068 C 
ATOM      2  C   UNL     1      -3.668  -2.020  -1.158  0.00  0.00    -0.000 C 
ATOM      3  C   UNL     1      -2.808  -2.519  -2.321  0.00  0.00    -0.077 C 
ATOM      4  N   UNL     1      -2.831  -3.986  -2.357  0.00  0.00    +0.382 N 
ATOM      5  C   UNL     1      -2.231  -4.524  -1.130  0.00  0.00    -0.077 C 
ATOM      6  C   UNL     1      -3.069  -4.102   0.079  0.00  0.00    -0.000 C 
ATOM      7  H   UNL     1      -3.786  -4.305  -2.432  0.00  0.00    -0.081 HD
ENDROOT
BRANCH   1   8
ATOM      8  C   UNL     1      -1.717  -2.042   0.375  0.00  0.00    +0.313 C 
ATOM      9  O   UNL     1      -0.785  -2.807   0.460  0.00  0.00    -0.250 OA
BRANCH   8  10
ATOM     10  O   UNL     1      -1.511  -0.720   0.475  0.00  0.00    -0.465 OA
BRANCH  10  12
ATOM     11  C   UNL     1      -0.128   1.240   0.770  0.00  0.00    +0.048 C 
ATOM     12  C   UNL     1      -0.165  -0.287   0.682  0.00  0.00    +0.229 C 
ENDBRANCH  10  12
ENDBRANCH   8  10
ENDBRANCH   1   8
BRANCH   4  13
ATOM     13  C   UNL     1      -2.068  -4.458  -3.521  0.00  0.00    -0.067 C 
ATOM     14  C   UNL     1      -2.669  -3.867  -4.798  0.00  0.00    -0.013 C 
BRANCH  13  15
ATOM     15  C   UNL     1      -2.132  -5.985  -3.587  0.00  0.00    +0.020 C 
BRANCH  15  16
ATOM     16  C   UNL     1      -1.290  -6.473  -4.738  0.00  0.00    -0.045 A 
ATOM     17  C   UNL     1      -1.879  -6.734  -5.961  0.00  0.00    +0.007 A 
ATOM     18  C   UNL     1      -1.111  -7.182  -7.020  0.00  0.00    +0.049 A 
ATOM     19  C   UNL     1       0.252  -7.370  -6.856  0.00  0.00    +0.158 A 
ATOM     20  C   UNL     1       0.845  -7.108  -5.625  0.00  0.00    +0.162 A 
ATOM     21  C   UNL     1       0.070  -6.655  -4.569  0.00  0.00    +0.053 A 
BRANCH  20  22
ATOM     22  O   UNL     1       2.182  -7.292  -5.459  0.00  0.00    -0.491 OA
ATOM     23  C   UNL     1       2.722  -7.003  -4.168  0.00  0.00    +0.277 C 
ENDBRANCH  20  22
BRANCH  19  24
ATOM     24  O   UNL     1       1.009  -7.812  -7.897  0.00  0.00    -0.503 OA
ATOM     25  H   UNL     1       1.373  -7.104  -8.446  0.00  0.00    +0.292 HD
ENDBRANCH  19  24
ENDBRANCH  15  16
ENDBRANCH  13  15
ENDBRANCH   4  13
BRANCH   1  26
ATOM     26  C   UNL     1      -4.010  -2.143   1.317  0.00  0.00    +0.053 C 
BRANCH  26  27
ATOM     27  C   UNL     1      -4.052  -0.639   1.389  0.00  0.00    -0.046 A 
ATOM     28  C   UNL     1      -3.123   0.043   2.153  0.00  0.00    +0.005 A 
ATOM     29  C   UNL     1      -3.162   1.423   2.220  0.00  0.00    +0.020 A 
ATOM     30  C   UNL     1      -4.130   2.122   1.522  0.00  0.00    +0.041 A 
ATOM     31  C   UNL     1      -5.059   1.440   0.757  0.00  0.00    +0.020 A 
ATOM     32  C   UNL     1      -5.016   0.060   0.687  0.00  0.00    +0.005 A 
ATOM     33 CL   UNL     1      -4.179   3.855   1.606  0.00  0.00    -0.084 Cl
ENDBRANCH  26  27
ENDBRANCH   1  26
TORSDOF 10
