REMARK  Name = ZINC09861327
REMARK  5 active torsions:
REMARK  status: ('A' for Active; 'I' for Inactive)
REMARK    1  A    between atoms: C_4  and  C_7
REMARK    2  A    between atoms: C_12  and  C_30
REMARK    3  A    between atoms: C_18  and  C_22
REMARK    4  A    between atoms: C_22  and  C_24
REMARK    5  A    between atoms: C_33  and  O_36
REMARK                            x       y       z     vdW  Elec       q    Type
REMARK                         _______ _______ _______ _____ _____    ______ ____
ROOT
ATOM      1  C   UNL     1      -1.174   0.062  -4.870  0.00  0.00    +0.032 C 
ATOM      2  C   UNL     1      -0.411  -1.177  -4.405  0.00  0.00    +0.059 C 
ATOM      3  C   UNL     1      -0.456  -1.271  -2.888  0.00  0.00    +0.017 C 
ATOM      4  C   UNL     1      -0.459  -0.156  -2.140  0.00  0.00    +0.036 C 
ATOM      5  C   UNL     1      -0.454  -0.102  -0.630  0.00  0.00    +0.136 C 
ATOM      6  N   UNL     1      -0.710  -1.373   0.013  0.00  0.00    -0.331 N 
ATOM      7  C   UNL     1       0.170  -2.434  -0.121  0.00  0.00    +0.049 A 
ATOM      8  C   UNL     1       0.884  -2.919   0.969  0.00  0.00    +0.025 A 
ATOM      9  C   UNL     1       1.787  -3.945   0.793  0.00  0.00    +0.013 A 
ATOM     10  C   UNL     1       1.989  -4.497  -0.477  0.00  0.00    +0.024 A 
ATOM     11  C   UNL     1       1.255  -4.020  -1.571  0.00  0.00    +0.036 A 
ATOM     12  C   UNL     1       0.339  -3.008  -1.377  0.00  0.00    +0.053 A 
ATOM     13  N   UNL     1      -0.477  -2.539  -2.402  0.00  0.00    -0.316 N 
ATOM     14  C   UNL     1      -0.473   1.117  -2.757  0.00  0.00    +0.163 C 
ATOM     15  O   UNL     1      -0.465   2.108  -2.054  0.00  0.00    -0.292 OA
ATOM     16  C   UNL     1      -0.497   1.288  -4.247  0.00  0.00    +0.088 C 
ATOM     17  H   UNL     1      -1.512  -1.484   0.547  0.00  0.00    +0.147 HD
ATOM     18  H   UNL     1      -1.105  -3.163  -2.799  0.00  0.00    +0.152 HD
ENDROOT
BRANCH   1  22
ATOM     19  C   UNL     1      -1.029   0.338  -9.130  0.00  0.00    +0.000 A 
ATOM     20  C   UNL     1      -2.247   0.236  -8.486  0.00  0.00    +0.000 A 
ATOM     21  C   UNL     1      -2.294   0.146  -7.107  0.00  0.00    +0.004 A 
ATOM     22  C   UNL     1      -1.123   0.160  -6.373  0.00  0.00    -0.044 A 
ATOM     23  C   UNL     1       0.095   0.268  -7.017  0.00  0.00    +0.004 A 
ATOM     24  C   UNL     1       0.143   0.352  -8.396  0.00  0.00    +0.000 A 
ENDBRANCH   1  22
BRANCH   5  25
ATOM     25  C   UNL     1       0.892   0.402  -0.174  0.00  0.00    -0.023 A 
ATOM     26  C   UNL     1       2.026  -0.355  -0.402  0.00  0.00    +0.009 A 
ATOM     27  C   UNL     1       3.260   0.105   0.015  0.00  0.00    +0.046 A 
ATOM     28  C   UNL     1       3.361   1.328   0.662  0.00  0.00    +0.117 A 
ATOM     29  C   UNL     1       2.222   2.086   0.888  0.00  0.00    +0.046 A 
ATOM     30  C   UNL     1       0.990   1.622   0.470  0.00  0.00    +0.009 A 
BRANCH  28  31
ATOM     31  O   UNL     1       4.574   1.782   1.072  0.00  0.00    -0.507 OA
ATOM     32  H   UNL     1       4.812   1.512   1.969  0.00  0.00    +0.292 HD
ENDBRANCH  28  31
ENDBRANCH   5  25
BRANCH  10  33
ATOM     33  C   UNL     1       2.971  -5.580  -0.663  0.00  0.00    +0.193 C 
ATOM     34  O   UNL     1       4.008  -5.576  -0.028  0.00  0.00    -0.287 OA
BRANCH  33  35
ATOM     35  C   UNL     1       2.697  -6.670  -1.622  0.00  0.00    +0.022 A 
ATOM     36  C   UNL     1       1.443  -6.770  -2.230  0.00  0.00    +0.012 A 
ATOM     37  C   UNL     1       1.195  -7.787  -3.128  0.00  0.00    +0.001 A 
ATOM     38  C   UNL     1       2.182  -8.713  -3.420  0.00  0.00    +0.000 A 
ATOM     39  C   UNL     1       3.424  -8.624  -2.816  0.00  0.00    +0.001 A 
ATOM     40  C   UNL     1       3.687  -7.609  -1.920  0.00  0.00    +0.012 A 
ENDBRANCH  33  35
ENDBRANCH  10  33
TORSDOF 5
