REMARK  Name = ZINC39711154
REMARK  10 active torsions:
REMARK  status: ('A' for Active; 'I' for Inactive)
REMARK    1  A    between atoms: C_1  and  C_2
REMARK    2  A    between atoms: C_4  and  C_41
REMARK    3  A    between atoms: C_7  and  C_14
REMARK    4  A    between atoms: C_14  and  C_16
REMARK    5  A    between atoms: C_14  and  N_28
REMARK    6  A    between atoms: N_21  and  C_22
REMARK    7  A    between atoms: N_28  and  C_29
REMARK    8  A    between atoms: N_28  and  C_35
REMARK    9  A    between atoms: C_29  and  C_30
REMARK   10  A    between atoms: C_35  and  C_36
REMARK                            x       y       z     vdW  Elec       q    Type
REMARK                         _______ _______ _______ _____ _____    ______ ____
ROOT
ATOM      1  C   UNL     1       0.679  -6.285   0.815  0.00  0.00    -0.010 C 
ENDROOT
BRANCH   1   8
ATOM      2  C   UNL     1      -3.894  -4.041   6.316  0.00  0.00    +0.044 C 
ATOM      3  C   UNL     1      -3.064  -4.166   5.064  0.00  0.00    -0.048 A 
ATOM      4  C   UNL     1      -2.332  -3.059   4.634  0.00  0.00    +0.007 A 
ATOM      5  C   UNL     1      -1.566  -3.110   3.514  0.00  0.00    -0.042 A 
ATOM      6  C   UNL     1      -1.515  -4.357   2.750  0.00  0.00    -0.004 A 
ATOM      7  C   UNL     1      -0.759  -4.455   1.620  0.00  0.00    -0.006 C 
ATOM      8  C   UNL     1      -0.765  -5.785   0.892  0.00  0.00    +0.088 C 
ATOM      9  C   UNL     1      -1.608  -6.894   1.479  0.00  0.00    +0.223 C 
ATOM     10  O   UNL     1      -1.650  -7.982   0.937  0.00  0.00    -0.275 OA
ATOM     11  N   UNL     1      -2.300  -6.678   2.585  0.00  0.00    -0.285 N 
ATOM     12  C   UNL     1      -2.298  -5.510   3.228  0.00  0.00    +0.041 A 
ATOM     13  C   UNL     1      -3.055  -5.353   4.403  0.00  0.00    +0.027 A 
ATOM     14  C   UNL     1      -0.782  -1.903   3.065  0.00  0.00    +0.044 C 
ATOM     15  H   UNL     1      -2.835  -7.402   2.945  0.00  0.00    +0.155 HD
ENDBRANCH   1   8
BRANCH   1  16
ATOM     16  C   UNL     1       1.603  -5.120   0.455  0.00  0.00    +0.183 C 
ATOM     17  N   UNL     1       1.228  -4.539  -0.848  0.00  0.00    -0.229 N 
ATOM     18  N   UNL     1       2.339  -4.715  -1.680  0.00  0.00    -0.064 NA
ATOM     19  N   UNL     1       3.271  -5.279  -1.113  0.00  0.00    -0.061 NA
ATOM     20  N   UNL     1       2.979  -5.598   0.223  0.00  0.00    -0.213 N 
ATOM     21  H   UNL     1       0.384  -4.121  -1.080  0.00  0.00    +0.172 HD
BRANCH  20  22
ATOM     22  C   UNL     1       3.857  -6.267   1.187  0.00  0.00    +0.096 C 
ATOM     23  C   UNL     1       5.119  -5.427   1.396  0.00  0.00    +0.024 C 
ATOM     24  C   UNL     1       6.035  -6.126   2.403  0.00  0.00    +0.002 C 
ATOM     25  C   UNL     1       6.423  -7.506   1.868  0.00  0.00    +0.000 C 
ATOM     26  C   UNL     1       5.161  -8.345   1.659  0.00  0.00    +0.002 C 
ATOM     27  C   UNL     1       4.245  -7.646   0.652  0.00  0.00    +0.024 C 
ENDBRANCH  20  22
ENDBRANCH   1  16
BRANCH   1  28
ATOM     28  N   UNL     1       1.075  -6.840   2.116  0.00  0.00    +0.392 N 
ATOM     29  H   UNL     1       2.067  -7.023   2.116  0.00  0.00    -0.080 HD
BRANCH  28  30
ATOM     30  C   UNL     1       0.346  -8.092   2.357  0.00  0.00    -0.002 C 
BRANCH  30  31
ATOM     31  C   UNL     1       0.559  -9.029   1.195  0.00  0.00    +0.089 A 
ATOM     32  C   UNL     1       1.429 -10.054   1.161  0.00  0.00    +0.042 A 
ATOM     33  C   UNL     1       1.299 -10.659  -0.111  0.00  0.00    +0.041 A 
ATOM     34  C   UNL     1       0.357  -9.967  -0.777  0.00  0.00    +0.195 A 
ATOM     35  O   UNL     1      -0.092  -8.985   0.021  0.00  0.00    -0.470 OA
ENDBRANCH  30  31
ENDBRANCH  28  30
BRANCH  28  36
ATOM     36  C   UNL     1       0.756  -5.876   3.178  0.00  0.00    -0.034 C 
BRANCH  36  37
ATOM     37  C   UNL     1       1.890  -4.894   3.322  0.00  0.00    -0.027 A 
ATOM     38  C   UNL     1       2.051  -3.683   2.735  0.00  0.00    +0.009 A 
ATOM     39  C   UNL     1       3.185  -2.946   3.019  0.00  0.00    +0.008 A 
ATOM     40  C   UNL     1       4.102  -3.455   3.877  0.00  0.00    +0.045 A 
ATOM     41  S   UNL     1       3.366  -5.020   4.319  0.00  0.00    -0.103 S 
ENDBRANCH  36  37
ENDBRANCH  28  36
ENDBRANCH   1  28
TORSDOF 8
