REMARK  Name = ZINC19075190
REMARK  8 active torsions:
REMARK  status: ('A' for Active; 'I' for Inactive)
REMARK    1  A    between atoms: C_1  and  C_2
REMARK    2  A    between atoms: C_2  and  C_23
REMARK    3  A    between atoms: C_4  and  N_11
REMARK    4  A    between atoms: C_7  and  C_9
REMARK    5  A    between atoms: C_7  and  C_10
REMARK    6  A    between atoms: N_14  and  C_15
REMARK    7  A    between atoms: C_23  and  N_24
REMARK    8  A    between atoms: N_27  and  C_28
REMARK                            x       y       z     vdW  Elec       q    Type
REMARK                         _______ _______ _______ _____ _____    ______ ____
ROOT
ATOM      1  C   UNL     1       0.155   1.366  -0.072  0.00  0.00    +0.013 C 
ATOM      2  C   UNL     1       0.129  -0.163  -0.154  0.00  0.00    -0.014 C 
ATOM      3  C   UNL     1      -1.307  -0.652  -0.304  0.00  0.00    +0.030 C 
ATOM      4  C   UNL     1      -2.074  -0.491   1.006  0.00  0.00    +0.076 C 
ATOM      5  C   UNL     1      -1.399  -1.340   2.081  0.00  0.00    +0.028 C 
ATOM      6  C   UNL     1       0.033  -0.874   2.318  0.00  0.00    -0.033 C 
ATOM      7  C   UNL     1       0.838  -0.786   1.034  0.00  0.00    +0.014 C 
ATOM      8  C   UNL     1       0.716  -1.911   3.237  0.00  0.00    +0.011 C 
ATOM      9  C   UNL     1       0.033   0.464   3.062  0.00  0.00    +0.011 C 
ENDROOT
BRANCH   4  10
ATOM     10  N   UNL     1      -3.453  -0.962   0.817  0.00  0.00    -0.296 N 
ATOM     11  C   UNL     1      -4.441  -0.488   1.602  0.00  0.00    +0.304 C 
ATOM     12  O   UNL     1      -4.191   0.329   2.467  0.00  0.00    -0.252 OA
ATOM     13  N   UNL     1      -5.705  -0.921   1.429  0.00  0.00    -0.267 N 
ATOM     14  H   UNL     1      -3.652  -1.615   0.127  0.00  0.00    +0.151 HD
ATOM     15  H   UNL     1      -5.917  -1.521   0.696  0.00  0.00    +0.156 HD
BRANCH  13  16
ATOM     16  C   UNL     1      -6.714  -0.505   2.306  0.00  0.00    +0.073 A 
ATOM     17  C   UNL     1      -6.686   0.775   2.841  0.00  0.00    +0.064 A 
ATOM     18  C   UNL     1      -7.684   1.184   3.708  0.00  0.00    +0.125 A 
ATOM     19  C   UNL     1      -8.711   0.317   4.041  0.00  0.00    +0.041 A 
ATOM     20  C   UNL     1      -8.742  -0.960   3.510  0.00  0.00    +0.043 A 
ATOM     21  C   UNL     1      -7.750  -1.371   2.639  0.00  0.00    +0.145 A 
ATOM     22  F   UNL     1      -7.783  -2.617   2.116  0.00  0.00    -0.204 F 
ATOM     23  F   UNL     1      -7.657   2.430   4.229  0.00  0.00    -0.205 F 
ENDBRANCH  13  16
ENDBRANCH   4  10
BRANCH   2  24
ATOM     24  C   UNL     1       0.897  -0.567  -1.432  0.00  0.00    +0.112 C 
BRANCH  24  25
ATOM     25  N   UNL     1       0.241   0.021  -2.603  0.00  0.00    -0.299 N 
ATOM     26  C   UNL     1       0.740  -0.198  -3.836  0.00  0.00    +0.304 C 
ATOM     27  O   UNL     1       1.733  -0.884  -3.977  0.00  0.00    -0.253 OA
ATOM     28  N   UNL     1       0.136   0.344  -4.912  0.00  0.00    -0.267 N 
ATOM     29  H   UNL     1      -0.551   0.569  -2.490  0.00  0.00    +0.150 HD
ATOM     30  H   UNL     1      -0.606   0.958  -4.795  0.00  0.00    +0.156 HD
BRANCH  28  31
ATOM     31  C   UNL     1       0.581   0.021  -6.201  0.00  0.00    +0.073 A 
ATOM     32  C   UNL     1       1.244  -1.178  -6.427  0.00  0.00    +0.064 A 
ATOM     33  C   UNL     1       1.681  -1.494  -7.701  0.00  0.00    +0.125 A 
ATOM     34  C   UNL     1       1.459  -0.617  -8.749  0.00  0.00    +0.041 A 
ATOM     35  C   UNL     1       0.800   0.578  -8.526  0.00  0.00    +0.043 A 
ATOM     36  C   UNL     1       0.355   0.897  -7.256  0.00  0.00    +0.145 A 
ATOM     37  F   UNL     1      -0.294   2.062  -7.040  0.00  0.00    -0.204 F 
ATOM     38  F   UNL     1       2.326  -2.660  -7.923  0.00  0.00    -0.205 F 
ENDBRANCH  28  31
ENDBRANCH  24  25
ENDBRANCH   2  24
TORSDOF 5
