REMARK  Name = ZINC21707784
REMARK  8 active torsions:
REMARK  status: ('A' for Active; 'I' for Inactive)
REMARK    1  A    between atoms: C_1  and  C_2
REMARK    2  A    between atoms: C_2  and  C_3
REMARK    3  A    between atoms: C_5  and  C_8
REMARK    4  A    between atoms: C_10  and  S_13
REMARK    5  A    between atoms: S_13  and  N_16
REMARK    6  A    between atoms: C_19  and  C_22
REMARK    7  A    between atoms: N_24  and  C_25
REMARK    8  A    between atoms: C_25  and  C_26
REMARK                            x       y       z     vdW  Elec       q    Type
REMARK                         _______ _______ _______ _____ _____    ______ ____
ROOT
ATOM      1  N   UNL     1       0.146  -5.923  -5.263  0.00  0.00    -0.176 NA
ATOM      2  C   UNL     1       1.278  -6.516  -4.536  0.00  0.00    +0.110 C 
ATOM      3  C   UNL     1       1.250  -6.016  -3.088  0.00  0.00    +0.030 C 
ATOM      4  C   UNL     1       1.230  -4.486  -3.080  0.00  0.00    +0.077 C 
ATOM      5  C   UNL     1      -0.032  -3.987  -3.788  0.00  0.00    +0.030 C 
ATOM      6  C   UNL     1      -0.019  -4.463  -5.244  0.00  0.00    +0.110 C 
ENDROOT
BRANCH   4   7
ATOM      7  C   UNL     1       1.237  -3.991  -1.657  0.00  0.00    +0.216 C 
ATOM      8  O   UNL     1       1.256  -4.784  -0.740  0.00  0.00    -0.276 OA
ATOM      9  N   UNL     1       1.222  -2.667  -1.404  0.00  0.00    -0.311 N 
ATOM     10  H   UNL     1       1.204  -1.948  -2.236  0.00  0.00    +0.149 HD
BRANCH   9  11
ATOM     11  C   UNL     1       1.228  -2.186  -0.020  0.00  0.00    +0.139 C 
BRANCH  11  12
ATOM     12  C   UNL     1       1.208  -0.679  -0.013  0.00  0.00    -0.030 A 
ATOM     13  C   UNL     1       0.002  -0.004   0.002  0.00  0.00    +0.006 A 
ATOM     14  C   UNL     1      -0.017   1.378   0.010  0.00  0.00    +0.020 A 
ATOM     15  C   UNL     1       1.172   2.086   0.002  0.00  0.00    +0.041 A 
ATOM     16  C   UNL     1       2.379   1.409  -0.013  0.00  0.00    +0.020 A 
ATOM     17  C   UNL     1       2.397   0.027  -0.020  0.00  0.00    +0.006 A 
ATOM     18 CL   UNL     1       1.149   3.821   0.011  0.00  0.00    -0.084 Cl
ENDBRANCH  11  12
ENDBRANCH   9  11
ENDBRANCH   4   7
BRANCH   1  19
ATOM     19  S   UNL     1      -0.922  -6.883  -6.087  0.00  0.00    +0.067 S 
ATOM     20  O   UNL     1      -1.511  -6.066  -7.090  0.00  0.00    -0.152 OA
ATOM     21  O   UNL     1      -0.233  -8.088  -6.393  0.00  0.00    -0.152 OA
BRANCH  19  24
ATOM     22  C   UNL     1      -4.234  -7.213  -3.773  0.00  0.00    +0.031 A 
ATOM     23  C   UNL     1      -3.372  -6.662  -4.719  0.00  0.00    +0.048 A 
ATOM     24  C   UNL     1      -2.211  -7.311  -4.965  0.00  0.00    +0.143 A 
ATOM     25  S   UNL     1      -2.321  -8.714  -3.869  0.00  0.00    -0.076 S 
ATOM     26  C   UNL     1      -3.860  -8.369  -3.151  0.00  0.00    +0.058 A 
BRANCH  22  29
ATOM     27  C   UNL     1      -7.414  -6.115  -2.596  0.00  0.00    +0.227 A 
ATOM     28  N   UNL     1      -6.444  -6.995  -2.559  0.00  0.00    -0.191 NA
ATOM     29  C   UNL     1      -5.524  -6.559  -3.449  0.00  0.00    +0.203 A 
ATOM     30  N   UNL     1      -5.989  -5.455  -3.975  0.00  0.00    -0.056 NA
ATOM     31  O   UNL     1      -7.071  -5.189  -3.496  0.00  0.00    -0.338 OA
BRANCH  27  33
ATOM     32  C   UNL     1      -8.462  -5.390  -0.469  0.00  0.00    +0.014 C 
ATOM     33  C   UNL     1      -8.681  -6.146  -1.781  0.00  0.00    +0.095 C 
ENDBRANCH  27  33
ENDBRANCH  22  29
ENDBRANCH  19  24
ENDBRANCH   1  19
TORSDOF 7
