REMARK  Name = ZINC11347584
REMARK  10 active torsions:
REMARK  status: ('A' for Active; 'I' for Inactive)
REMARK    1  A    between atoms: C_1  and  C_2
REMARK    2  A    between atoms: C_2  and  O_3
REMARK    3  A    between atoms: O_3  and  C_4
REMARK    4  A    between atoms: C_4  and  C_6
REMARK    5  A    between atoms: C_7  and  C_14
REMARK    6  A    between atoms: C_8  and  C_12
REMARK    7  A    between atoms: C_9  and  N_11
REMARK    8  A    between atoms: C_14  and  S_15
REMARK    9  A    between atoms: S_15  and  C_16
REMARK   10  A    between atoms: C_19  and  C_21
REMARK                            x       y       z     vdW  Elec       q    Type
REMARK                         _______ _______ _______ _____ _____    ______ ____
ROOT
ATOM      1  C   UNL     1      -2.486  -0.385   0.037  0.00  0.00    +0.116 C 
ENDROOT
BRANCH   1   3
ATOM      2  C   UNL     1       0.002  -0.004   0.002  0.00  0.00    +0.103 A 
ATOM      3  C   UNL     1      -1.064  -0.881   0.013  0.00  0.00    +0.003 A 
ATOM      4  C   UNL     1      -0.775  -2.236  -0.003  0.00  0.00    +0.084 A 
ATOM      5  C   UNL     1       0.572  -2.617  -0.017  0.00  0.00    +0.082 A 
ATOM      6  S   UNL     1       1.409  -1.099  -0.017  0.00  0.00    -0.066 S 
BRANCH   5   7
ATOM      7  N   UNL     1       1.102  -3.887  -0.030  0.00  0.00    -0.352 N 
ATOM      8  H   UNL     1       2.064  -4.011  -0.039  0.00  0.00    +0.143 HD
ATOM      9  H   UNL     1       0.514  -4.658  -0.029  0.00  0.00    +0.143 HD
ENDBRANCH   5   7
BRANCH   2  10
ATOM     10  C   UNL     1      -0.017   1.414   0.010  0.00  0.00    +0.346 C 
ATOM     11  O   UNL     1      -1.079   2.008   0.018  0.00  0.00    -0.244 OA
BRANCH  10  12
ATOM     12  O   UNL     1       1.142   2.104   0.003  0.00  0.00    -0.461 OA
BRANCH  12  14
ATOM     13  C   UNL     1       2.454   4.134   0.001  0.00  0.00    +0.048 C 
ATOM     14  C   UNL     1       1.048   3.530   0.011  0.00  0.00    +0.229 C 
ENDBRANCH  12  14
ENDBRANCH  10  12
ENDBRANCH   2  10
BRANCH   4  15
ATOM     15  C   UNL     1      -1.820  -3.215   0.001  0.00  0.00    +0.102 C 
ATOM     16  N   UNL     1      -2.649  -3.991   0.005  0.00  0.00    -0.191 NA
ENDBRANCH   4  15
ENDBRANCH   1   3
BRANCH   1  17
ATOM     17  S   UNL     1      -3.082  -0.176  -1.659  0.00  0.00    -0.061 S 
BRANCH  17  18
ATOM     18  C   UNL     1      -4.718   0.395  -1.341  0.00  0.00    +0.278 A 
ATOM     19  N   UNL     1      -5.258   0.584  -0.162  0.00  0.00    -0.101 NA
ATOM     20  N   UNL     1      -6.465   1.005  -0.305  0.00  0.00    -0.106 NA
ATOM     21  C   UNL     1      -6.744   1.102  -1.583  0.00  0.00    +0.251 A 
ATOM     22  O   UNL     1      -5.641   0.724  -2.267  0.00  0.00    -0.411 OA
BRANCH  21  23
ATOM     23  C   UNL     1      -8.024   1.549  -2.167  0.00  0.00    +0.063 A 
ATOM     24  C   UNL     1      -8.319   1.659  -3.488  0.00  0.00    +0.097 A 
ATOM     25  N   UNL     1      -9.600   2.102  -3.639  0.00  0.00    -0.360 N 
ATOM     26  H   UNL     1     -10.038   2.255  -4.491  0.00  0.00    +0.165 HD
ATOM     27  C   UNL     1     -10.182   2.304  -2.406  0.00  0.00    +0.047 A 
ATOM     28  C   UNL     1      -9.228   1.970  -1.430  0.00  0.00    +0.012 A 
ATOM     29  C   UNL     1      -9.545   2.079  -0.078  0.00  0.00    +0.011 A 
ATOM     30  C   UNL     1     -10.796   2.516   0.296  0.00  0.00    +0.001 A 
ATOM     31  C   UNL     1     -11.740   2.847  -0.666  0.00  0.00    +0.002 A 
ATOM     32  C   UNL     1     -11.440   2.744  -2.007  0.00  0.00    +0.026 A 
ENDBRANCH  21  23
ENDBRANCH  17  18
ENDBRANCH   1  17
TORSDOF 9
