REMARK  Name = ZINC15086091
REMARK  11 active torsions:
REMARK  status: ('A' for Active; 'I' for Inactive)
REMARK    1  A    between atoms: C_1  and  O_2
REMARK    2  A    between atoms: O_2  and  C_3
REMARK    3  A    between atoms: C_4  and  C_20
REMARK    4  A    between atoms: C_5  and  C_14
REMARK    5  A    between atoms: C_8  and  O_9
REMARK    6  A    between atoms: O_9  and  C_10
REMARK    7  A    between atoms: N_15  and  N_16
REMARK    8  A    between atoms: N_16  and  C_17
REMARK    9  A    between atoms: C_17  and  N_19
REMARK   10  A    between atoms: C_20  and  C_21
REMARK   11  A    between atoms: C_24  and  C_27
REMARK                            x       y       z     vdW  Elec       q    Type
REMARK                         _______ _______ _______ _____ _____    ______ ____
ROOT
ATOM      1  C   UNL     1      -2.427   4.225   0.203  0.00  0.00    +0.169 A 
ATOM      2  C   UNL     1      -1.306   3.455  -0.048  0.00  0.00    +0.014 A 
ATOM      3  C   UNL     1      -1.436   2.077  -0.244  0.00  0.00    +0.047 A 
ATOM      4  C   UNL     1      -2.702   1.482  -0.190  0.00  0.00    +0.179 A 
ATOM      5  C   UNL     1      -3.822   2.261   0.069  0.00  0.00    +0.212 A 
ATOM      6  C   UNL     1      -3.684   3.631   0.262  0.00  0.00    +0.208 A 
ATOM      7  O   UNL     1      -4.924   1.454   0.076  0.00  0.00    -0.449 OA
ATOM      8  C   UNL     1      -4.516   0.243  -0.593  0.00  0.00    +0.467 C 
ATOM      9  O   UNL     1      -3.098   0.185  -0.347  0.00  0.00    -0.452 OA
ENDROOT
BRANCH   1  11
ATOM     10  C   UNL     1      -2.201   6.023   1.744  0.00  0.00    +0.277 C 
ATOM     11  O   UNL     1      -2.300   5.566   0.394  0.00  0.00    -0.491 OA
ENDBRANCH   1  11
BRANCH   6  12
ATOM     12  O   UNL     1      -4.783   4.394   0.510  0.00  0.00    -0.488 OA
ATOM     13  C   UNL     1      -5.495   4.894  -0.624  0.00  0.00    +0.277 C 
ENDBRANCH   6  12
BRANCH   3  14
ATOM     14  C   UNL     1      -0.243   1.254  -0.512  0.00  0.00    +0.142 C 
ATOM     15  N   UNL     1      -0.365  -0.025  -0.694  0.00  0.00    -0.188 NA
BRANCH  15  16
ATOM     16  N   UNL     1       0.768  -0.807  -0.955  0.00  0.00    -0.219 N 
ATOM     17  H   UNL     1       1.643  -0.392  -1.000  0.00  0.00    +0.176 HD
BRANCH  16  18
ATOM     18  C   UNL     1       0.641  -2.135  -1.143  0.00  0.00    +0.147 C 
ATOM     19  S   UNL     1       2.026  -3.091  -1.462  0.00  0.00    -0.017 S 
BRANCH  18  20
ATOM     20  N   UNL     1      -0.576  -2.712  -1.080  0.00  0.00    -0.339 N 
ATOM     21  H   UNL     1      -1.360  -2.171  -0.900  0.00  0.00    +0.144 HD
ATOM     22  H   UNL     1      -0.667  -3.668  -1.216  0.00  0.00    +0.144 HD
ENDBRANCH  18  20
ENDBRANCH  16  18
ENDBRANCH  15  16
ENDBRANCH   3  14
BRANCH   2  23
ATOM     23  C   UNL     1       0.053   4.102  -0.112  0.00  0.00    +0.087 C 
BRANCH  23  24
ATOM     24  C   UNL     1       0.395   4.430  -1.567  0.00  0.00    +0.215 C 
ATOM     25  C   UNL     1       1.837   4.975  -1.688  0.00  0.00    +0.107 C 
ATOM     26  C   UNL     1       1.697   6.044  -2.756  0.00  0.00    +0.091 C 
ATOM     27  N   UNL     1       0.442   6.309  -2.900  0.00  0.00    -0.089 NA
ATOM     28  O   UNL     1      -0.383   5.548  -2.040  0.00  0.00    -0.390 OA
BRANCH  26  29
ATOM     29  C   UNL     1       2.805   6.673  -3.501  0.00  0.00    -0.000 A 
ATOM     30  C   UNL     1       4.125   6.298  -3.243  0.00  0.00    +0.012 A 
ATOM     31  C   UNL     1       5.156   6.885  -3.946  0.00  0.00    +0.039 A 
ATOM     32  C   UNL     1       4.885   7.854  -4.899  0.00  0.00    +0.123 A 
ATOM     33  C   UNL     1       3.576   8.235  -5.155  0.00  0.00    +0.039 A 
ATOM     34  C   UNL     1       2.538   7.650  -4.462  0.00  0.00    +0.012 A 
ATOM     35  F   UNL     1       5.899   8.429  -5.581  0.00  0.00    -0.205 F 
ENDBRANCH  26  29
ENDBRANCH  23  24
ENDBRANCH   2  23
TORSDOF 9
