REMARK  Name = ZINC27594944
REMARK  15 active torsions:
REMARK  status: ('A' for Active; 'I' for Inactive)
REMARK    1  A    between atoms: C_1  and  C_2
REMARK    2  A    between atoms: C_2  and  C_3
REMARK    3  A    between atoms: C_2  and  C_4
REMARK    4  A    between atoms: C_7  and  O_10
REMARK    5  A    between atoms: O_10  and  C_11
REMARK    6  A    between atoms: C_11  and  C_12
REMARK    7  A    between atoms: C_15  and  S_18
REMARK    8  A    between atoms: N_16  and  N_17
REMARK    9  A    between atoms: S_18  and  C_19
REMARK   10  A    between atoms: C_19  and  C_20
REMARK   11  A    between atoms: C_23  and  C_25
REMARK   12  A    between atoms: C_28  and  O_33
REMARK   13  A    between atoms: C_30  and  O_31
REMARK   14  A    between atoms: O_31  and  C_32
REMARK   15  A    between atoms: O_33  and  C_34
REMARK                            x       y       z     vdW  Elec       q    Type
REMARK                         _______ _______ _______ _____ _____    ______ ____
ROOT
ATOM      1  C   UNL     1     -10.336  -2.022  -1.541  0.00  0.00    +0.189 A 
ATOM      2  N   UNL     1     -10.049  -1.916  -0.274  0.00  0.00    -0.128 NA
ATOM      3  N   UNL     1      -8.870  -1.427  -0.128  0.00  0.00    -0.121 NA
ATOM      4  C   UNL     1      -8.338  -1.185  -1.304  0.00  0.00    +0.209 A 
ATOM      5  N   UNL     1      -9.256  -1.560  -2.242  0.00  0.00    -0.225 N 
ENDROOT
BRANCH   5   6
ATOM      6  N   UNL     1      -9.124  -1.488  -3.600  0.00  0.00    -0.295 N 
ATOM      7  H   UNL     1      -8.197  -1.093  -4.042  0.00  0.00    +0.163 HD
ATOM      8  H   UNL     1      -9.944  -1.825  -4.251  0.00  0.00    +0.163 HD
ENDBRANCH   5   6
BRANCH   1   9
ATOM      9  C   UNL     1     -11.619  -2.554  -2.125  0.00  0.00    +0.306 C 
BRANCH   9  10
ATOM     10  O   UNL     1     -11.502  -3.965  -2.325  0.00  0.00    -0.484 OA
BRANCH  10  14
ATOM     11  C   UNL     1     -14.774  -5.909  -3.916  0.00  0.00    -0.045 A 
ATOM     12  C   UNL     1     -13.633  -6.623  -3.602  0.00  0.00    +0.007 A 
ATOM     13  C   UNL     1     -12.536  -5.974  -3.068  0.00  0.00    +0.046 A 
ATOM     14  C   UNL     1     -12.580  -4.605  -2.849  0.00  0.00    +0.121 A 
ATOM     15  C   UNL     1     -13.728  -3.892  -3.160  0.00  0.00    +0.046 A 
ATOM     16  C   UNL     1     -14.821  -4.544  -3.698  0.00  0.00    +0.007 A 
BRANCH  11  18
ATOM     17  C   UNL     1     -17.173  -6.432  -3.572  0.00  0.00    +0.012 C 
ATOM     18  C   UNL     1     -15.970  -6.619  -4.497  0.00  0.00    +0.013 C 
ATOM     19  C   UNL     1     -16.290  -6.034  -5.875  0.00  0.00    +0.012 C 
ENDBRANCH  11  18
ENDBRANCH  10  14
ENDBRANCH   9  10
ENDBRANCH   1   9
BRANCH   4  20
ATOM     20  S   UNL     1      -6.740  -0.510  -1.612  0.00  0.00    -0.078 S 
BRANCH  20  21
ATOM     21  C   UNL     1      -6.160  -0.285   0.088  0.00  0.00    +0.133 C 
BRANCH  21  22
ATOM     22  C   UNL     1      -4.771   0.298   0.072  0.00  0.00    +0.059 A 
ATOM     23  C   UNL     1      -4.599   1.646   0.077  0.00  0.00    +0.071 A 
ATOM     24  S   UNL     1      -2.814   1.752   0.052  0.00  0.00    -0.075 S 
ATOM     25  C   UNL     1      -2.492  -0.007   0.038  0.00  0.00    +0.112 A 
ATOM     26  N   UNL     1      -3.725  -0.495   0.048  0.00  0.00    -0.243 NA
BRANCH  25  27
ATOM     27  C   UNL     1      -1.200  -0.723   0.015  0.00  0.00    +0.049 A 
ATOM     28  C   UNL     1      -1.173  -2.119   0.002  0.00  0.00    +0.018 A 
ATOM     29  C   UNL     1       0.034  -2.784  -0.013  0.00  0.00    +0.046 A 
ATOM     30  C   UNL     1       1.226  -2.069  -0.021  0.00  0.00    +0.124 A 
ATOM     31  C   UNL     1       1.209  -0.682  -0.013  0.00  0.00    +0.092 A 
ATOM     32  C   UNL     1       0.002  -0.004   0.002  0.00  0.00    +0.133 A 
BRANCH  32  33
ATOM     33  O   UNL     1      -0.016   1.354   0.009  0.00  0.00    -0.494 OA
ATOM     34  C   UNL     1       1.248   2.020   0.001  0.00  0.00    +0.277 C 
ENDBRANCH  32  33
BRANCH  30  35
ATOM     35  O   UNL     1       2.412  -2.731  -0.035  0.00  0.00    -0.495 OA
ATOM     36  C   UNL     1       2.358  -4.159  -0.043  0.00  0.00    +0.277 C 
ENDBRANCH  30  35
ENDBRANCH  25  27
ENDBRANCH  21  22
ENDBRANCH  20  21
ENDBRANCH   4  20
TORSDOF 11
