REMARK  Name = ZINC00500036
REMARK  4 active torsions:
REMARK  status: ('A' for Active; 'I' for Inactive)
REMARK    1  A    between atoms: C_3  and  N_18
REMARK    2  A    between atoms: C_6  and  C_7
REMARK    3  A    between atoms: C_7  and  O_17
REMARK    4  A    between atoms: C_9  and  C_13
REMARK                            x       y       z     vdW  Elec       q    Type
REMARK                         _______ _______ _______ _____ _____    ______ ____
ROOT
ATOM      1  C   UNL     1      -2.514   0.980   0.019  0.00  0.00    +0.214 C 
ATOM      2  C   UNL     1      -2.961   0.701   1.471  0.00  0.00    +0.097 C 
ATOM      3  C   UNL     1      -4.497   0.907   1.395  0.00  0.00    +0.137 C 
ATOM      4  N   UNL     1      -4.603   2.017   0.410  0.00  0.00    -0.190 NA
ATOM      5  O   UNL     1      -3.553   1.762  -0.587  0.00  0.00    -0.260 OA
ATOM      6  H   UNL     1      -4.467   2.911   0.857  0.00  0.00    +0.154 HD
ENDROOT
BRANCH   1  12
ATOM      7  C   UNL     1      -0.013   1.076   0.008  0.00  0.00    +0.011 A 
ATOM      8  C   UNL     1       1.175   1.783   0.000  0.00  0.00    +0.033 A 
ATOM      9  C   UNL     1       1.156   3.165   0.008  0.00  0.00    +0.126 A 
ATOM     10  C   UNL     1      -0.050   3.840   0.022  0.00  0.00    +0.033 A 
ATOM     11  C   UNL     1      -1.238   3.133   0.029  0.00  0.00    +0.011 A 
ATOM     12  C   UNL     1      -1.219   1.751   0.017  0.00  0.00    +0.013 A 
BRANCH   9  13
ATOM     13  N   UNL     1       2.428   3.923   0.001  0.00  0.00    +0.056 N 
ATOM     14  O   UNL     1       3.491   3.328  -0.013  0.00  0.00    -0.126 OA
ATOM     15  O   UNL     1       2.412   5.141   0.007  0.00  0.00    -0.126 OA
ENDBRANCH   9  13
ENDBRANCH   1  12
BRANCH   3  16
ATOM     16  C   UNL     1      -5.062   1.324   2.754  0.00  0.00    +0.208 C 
ATOM     17 CL   UNL     1      -4.296   2.872   3.274  0.00  0.00    -0.082 Cl
ATOM     18 CL   UNL     1      -6.845   1.552   2.619  0.00  0.00    -0.082 Cl
ATOM     19 CL   UNL     1      -4.710   0.041   3.970  0.00  0.00    -0.082 Cl
ENDBRANCH   3  16
BRANCH   1  20
ATOM     20  O   UNL     1      -2.351  -0.252  -0.688  0.00  0.00    -0.360 OA
ATOM     21  H   UNL     1      -2.080  -0.143  -1.610  0.00  0.00    +0.213 HD
ENDBRANCH   1  20
TORSDOF 4
