REMARK  Name = ZINC42269794
REMARK  6 active torsions:
REMARK  status: ('A' for Active; 'I' for Inactive)
REMARK    1  A    between atoms: C_1  and  C_2
REMARK    2  A    between atoms: C_8  and  N_10
REMARK    3  A    between atoms: N_10  and  C_11
REMARK    4  A    between atoms: N_10  and  S_12
REMARK    5  A    between atoms: S_12  and  C_15
REMARK    6  A    between atoms: C_17  and  N_22
REMARK                            x       y       z     vdW  Elec       q    Type
REMARK                         _______ _______ _______ _____ _____    ______ ____
ROOT
ATOM      1  S   UNL     1       0.981   1.172   3.386  0.00  0.00    +0.062 S 
ATOM      2  O   UNL     1       0.581   1.150   4.749  0.00  0.00    -0.153 OA
ATOM      3  O   UNL     1       2.316   0.906   2.979  0.00  0.00    -0.153 OA
ENDROOT
BRANCH   1   4
ATOM      4  C   UNL     1       0.575   2.772   2.768  0.00  0.00    +0.125 A 
ATOM      5  C   UNL     1      -0.099   3.671   3.571  0.00  0.00    +0.052 A 
ATOM      6  C   UNL     1      -0.417   4.932   3.083  0.00  0.00    +0.026 A 
ATOM      7  C   UNL     1      -0.057   5.285   1.789  0.00  0.00    +0.024 A 
ATOM      8  C   UNL     1       0.616   4.381   0.991  0.00  0.00    +0.024 A 
ATOM      9  C   UNL     1       0.937   3.127   1.481  0.00  0.00    +0.067 A 
ATOM     10 CL   UNL     1       1.790   1.997   0.477  0.00  0.00    -0.082 Cl
BRANCH   6  11
ATOM     11  N   UNL     1      -1.099   5.844   3.893  0.00  0.00    -0.358 N 
ATOM     12  H   UNL     1      -1.351   5.596   4.797  0.00  0.00    +0.142 HD
ATOM     13  H   UNL     1      -1.322   6.724   3.552  0.00  0.00    +0.142 HD
ENDBRANCH   6  11
ENDBRANCH   1   4
BRANCH   1  14
ATOM     14  N   UNL     1       0.018   0.082   2.593  0.00  0.00    -0.176 NA
ATOM     15  C   UNL     1      -1.226  -0.382   3.212  0.00  0.00    +0.132 C 
BRANCH  14  22
ATOM     16  C   UNL     1      -1.975  -0.336   0.534  0.00  0.00    +0.009 C 
ATOM     17  C   UNL     1      -0.740  -1.228   0.672  0.00  0.00    +0.005 C 
ATOM     18  C   UNL     1      -1.063  -2.409   1.589  0.00  0.00    +0.005 C 
ATOM     19  C   UNL     1       0.172  -3.301   1.727  0.00  0.00    +0.000 C 
ATOM     20  C   UNL     1       1.322  -2.490   2.327  0.00  0.00    +0.002 C 
ATOM     21  C   UNL     1       1.646  -1.308   1.411  0.00  0.00    +0.021 C 
ATOM     22  C   UNL     1       0.410  -0.417   1.273  0.00  0.00    +0.082 C 
ENDBRANCH  14  22
ENDBRANCH   1  14
TORSDOF 4
