REMARK  Name = ZINC19333764
REMARK  6 active torsions:
REMARK  status: ('A' for Active; 'I' for Inactive)
REMARK    1  A    between atoms: C_1  and  C_2
REMARK    2  A    between atoms: C_2  and  C_3
REMARK    3  A    between atoms: C_3  and  C_4
REMARK    4  A    between atoms: C_8  and  C_29
REMARK    5  A    between atoms: C_14  and  C_15
REMARK    6  A    between atoms: C_20  and  C_28
REMARK                            x       y       z     vdW  Elec       q    Type
REMARK                         _______ _______ _______ _____ _____    ______ ____
ROOT
ATOM      1  C   UNL     1      -0.702   1.548   3.824  0.00  0.00    +0.028 C 
ATOM      2  C   UNL     1      -0.750   3.084   3.783  0.00  0.00    -0.061 C 
ATOM      3  N   UNL     1      -1.469   3.516   2.576  0.00  0.00    +0.392 N 
ATOM      4  C   UNL     1      -0.752   3.115   1.334  0.00  0.00    -0.061 C 
ATOM      5  C   UNL     1      -0.729   1.579   1.267  0.00  0.00    +0.025 C 
ATOM      6  C   UNL     1      -0.027   1.098   2.533  0.00  0.00    +0.144 C 
ATOM      7  O   UNL     1       0.974   0.422   2.514  0.00  0.00    -0.296 OA
ATOM      8  C   UNL     1      -2.170   1.050   1.336  0.00  0.00    +0.095 C 
ATOM      9  N   UNL     1      -2.808   1.535   2.567  0.00  0.00    -0.313 NA
ATOM     10  C   UNL     1      -2.145   1.020   3.772  0.00  0.00    +0.095 C 
ATOM     11  C   UNL     1      -2.849   3.005   2.587  0.00  0.00    +0.015 C 
ATOM     12  C   UNL     1      -0.013   1.086   0.008  0.00  0.00    +0.018 C 
ATOM     13  H   UNL     1      -1.516   4.614   2.598  0.00  0.00    -0.079 HD
ENDROOT
BRANCH  11  14
ATOM     14  C   UNL     1      -3.566   3.482   3.851  0.00  0.00    +0.084 C 
ATOM     15  C   UNL     1      -5.055   3.061   3.831  0.00  0.00    +0.047 C 
ATOM     16  C   UNL     1      -5.233   1.737   3.169  0.00  0.00    -0.017 C 
ATOM     17  C   UNL     1      -5.357   1.608   1.856  0.00  0.00    -0.054 C 
ATOM     18  C   UNL     1      -5.307   2.807   1.006  0.00  0.00    +0.000 C 
ATOM     19  C   UNL     1      -5.453   4.006   1.541  0.00  0.00    -0.004 C 
ATOM     20  C   UNL     1      -5.667   4.216   3.014  0.00  0.00    +0.104 C 
ATOM     21  N   UNL     1      -4.861   5.388   3.421  0.00  0.00    -0.308 N 
ATOM     22  C   UNL     1      -3.656   4.998   3.883  0.00  0.00    +0.217 C 
ATOM     23  O   UNL     1      -2.778   5.743   4.265  0.00  0.00    -0.275 OA
ATOM     24  C   UNL     1      -5.546   0.245   1.241  0.00  0.00    +0.043 C 
ATOM     25  H   UNL     1      -5.276   6.402   3.321  0.00  0.00    +0.149 HD
ENDBRANCH  11  14
BRANCH   1  26
ATOM     26  C   UNL     1       0.040   1.025   5.055  0.00  0.00    +0.013 C 
BRANCH  26  28
ATOM     27  C   UNL     1       0.803  -1.028   6.257  0.00  0.00    +0.004 C 
ATOM     28  C   UNL     1       0.061  -0.505   5.026  0.00  0.00    -0.002 C 
ENDBRANCH  26  28
ENDBRANCH   1  26
TORSDOF 3
