REMARK  Name = ZINC00871026
REMARK  9 active torsions:
REMARK  status: ('A' for Active; 'I' for Inactive)
REMARK    1  A    between atoms: C_1  and  C_2
REMARK    2  A    between atoms: C_8  and  C_27
REMARK    3  A    between atoms: C_10  and  S_12
REMARK    4  A    between atoms: S_12  and  C_13
REMARK    5  A    between atoms: C_13  and  C_14
REMARK    6  A    between atoms: N_16  and  N_17
REMARK    7  A    between atoms: C_18  and  C_19
REMARK    8  A    between atoms: C_22  and  O_26
REMARK    9  A    between atoms: C_24  and  O_25
REMARK                            x       y       z     vdW  Elec       q    Type
REMARK                         _______ _______ _______ _____ _____    ______ ____
ROOT
ATOM      1  C   UNL     1      -2.552   5.448   0.044  0.00  0.00    +0.242 C 
ATOM      2  O   UNL     1      -1.508   6.066   0.042  0.00  0.00    -0.273 OA
ATOM      3  N   UNL     1      -2.537   4.100   0.036  0.00  0.00    -0.206 N 
ATOM      4  H   UNL     1      -3.371   3.606   0.038  0.00  0.00    +0.177 HD
ENDROOT
BRANCH   3   5
ATOM      5  N   UNL     1      -1.315   3.413   0.027  0.00  0.00    -0.188 NA
ATOM      6  C   UNL     1      -1.301   2.115   0.020  0.00  0.00    +0.142 C 
BRANCH   6   7
ATOM      7  C   UNL     1      -0.017   1.393   0.010  0.00  0.00    +0.036 A 
ATOM      8  C   UNL     1       0.002  -0.004   0.002  0.00  0.00    +0.016 A 
ATOM      9  C   UNL     1       1.205  -0.675  -0.013  0.00  0.00    +0.046 A 
ATOM     10  C   UNL     1       2.401   0.032  -0.021  0.00  0.00    +0.120 A 
ATOM     11  C   UNL     1       2.393   1.419  -0.014  0.00  0.00    +0.091 A 
ATOM     12  C   UNL     1       1.191   2.105   0.002  0.00  0.00    +0.129 A 
BRANCH  12  13
ATOM     13  O   UNL     1       1.182   3.463   0.009  0.00  0.00    -0.506 OA
ATOM     14  H   UNL     1       1.187   3.852   0.894  0.00  0.00    +0.292 HD
ENDBRANCH  12  13
BRANCH  10  15
ATOM     15  O   UNL     1       3.583  -0.637  -0.037  0.00  0.00    -0.507 OA
ATOM     16  H   UNL     1       3.916  -0.826  -0.925  0.00  0.00    +0.292 HD
ENDBRANCH  10  15
ENDBRANCH   6   7
ENDBRANCH   3   5
BRANCH   1  17
ATOM     17  C   UNL     1      -3.865   6.187   0.054  0.00  0.00    +0.173 C 
BRANCH  17  18
ATOM     18  S   UNL     1      -3.554   7.970   0.062  0.00  0.00    -0.096 S 
BRANCH  18  28
ATOM     19  C   UNL     1     -11.550   9.458   0.112  0.00  0.00    +0.044 C 
ATOM     20  C   UNL     1     -10.114   9.001   0.102  0.00  0.00    -0.050 A 
ATOM     21  C   UNL     1      -9.826   7.638   0.093  0.00  0.00    +0.005 A 
ATOM     22  C   UNL     1      -8.540   7.192   0.083  0.00  0.00    +0.028 A 
ATOM     23  C   UNL     1      -7.481   8.117   0.082  0.00  0.00    +0.073 A 
ATOM     24  C   UNL     1      -7.776   9.502   0.091  0.00  0.00    +0.004 A 
ATOM     25  C   UNL     1      -9.114   9.926   0.102  0.00  0.00    +0.013 A 
ATOM     26  C   UNL     1      -6.715  10.431   0.091  0.00  0.00    -0.039 A 
ATOM     27  C   UNL     1      -5.439   9.953   0.088  0.00  0.00    +0.038 A 
ATOM     28  C   UNL     1      -5.211   8.569   0.073  0.00  0.00    +0.098 A 
ATOM     29  N   UNL     1      -6.208   7.706   0.073  0.00  0.00    -0.240 NA
ATOM     30  C   UNL     1      -6.985  11.913   0.100  0.00  0.00    +0.044 C 
ENDBRANCH  18  28
ENDBRANCH  17  18
ENDBRANCH   1  17
TORSDOF 7
