REMARK  Name = ZINC08768109
REMARK  11 active torsions:
REMARK  status: ('A' for Active; 'I' for Inactive)
REMARK    1  A    between atoms: C_1  and  C_2
REMARK    2  A    between atoms: C_2  and  O_3
REMARK    3  A    between atoms: O_3  and  C_4
REMARK    4  A    between atoms: C_4  and  C_6
REMARK    5  A    between atoms: C_7  and  C_23
REMARK    6  A    between atoms: C_9  and  N_22
REMARK    7  A    between atoms: C_10  and  C_20
REMARK    8  A    between atoms: C_11  and  C_13
REMARK    9  A    between atoms: C_16  and  C_19
REMARK   10  A    between atoms: C_23  and  S_24
REMARK   11  A    between atoms: S_24  and  C_25
REMARK                            x       y       z     vdW  Elec       q    Type
REMARK                         _______ _______ _______ _____ _____    ______ ____
ROOT
ATOM      1  C   UNL     1      -3.648   2.843   0.384  0.00  0.00    +0.088 C 
ATOM      2  C   UNL     1      -2.536   3.384   0.896  0.00  0.00    +0.128 C 
ATOM      3  O   UNL     1      -1.313   2.925   0.595  0.00  0.00    -0.444 OA
ATOM      4  C   UNL     1      -1.178   1.694   0.073  0.00  0.00    +0.198 C 
ATOM      5  C   UNL     1      -2.220   1.042  -0.497  0.00  0.00    +0.098 C 
ATOM      6  C   UNL     1      -3.580   1.681  -0.570  0.00  0.00    +0.105 C 
ENDROOT
BRANCH   6   7
ATOM      7  C   UNL     1      -3.829   2.171  -1.973  0.00  0.00    -0.034 A 
ATOM      8  C   UNL     1      -2.990   3.115  -2.534  0.00  0.00    +0.005 A 
ATOM      9  C   UNL     1      -3.215   3.561  -3.824  0.00  0.00    +0.003 A 
ATOM     10  C   UNL     1      -4.286   3.070  -4.548  0.00  0.00    -0.050 A 
ATOM     11  C   UNL     1      -5.128   2.130  -3.984  0.00  0.00    +0.003 A 
ATOM     12  C   UNL     1      -4.900   1.681  -2.697  0.00  0.00    +0.005 A 
ATOM     13  C   UNL     1      -4.534   3.560  -5.951  0.00  0.00    +0.044 C 
ENDBRANCH   6   7
BRANCH   4  14
ATOM     14  N   UNL     1       0.048   1.078   0.124  0.00  0.00    -0.328 N 
ATOM     15  H   UNL     1       0.159   0.188  -0.246  0.00  0.00    +0.145 HD
ATOM     16  H   UNL     1       0.803   1.535   0.525  0.00  0.00    +0.145 HD
ENDBRANCH   4  14
BRANCH   1  17
ATOM     17  C   UNL     1      -4.911   3.374   0.745  0.00  0.00    +0.339 C 
ATOM     18  O   UNL     1      -4.996   4.518   1.152  0.00  0.00    -0.245 OA
BRANCH  17  19
ATOM     19  O   UNL     1      -6.019   2.612   0.639  0.00  0.00    -0.462 OA
BRANCH  19  21
ATOM     20  C   UNL     1      -8.393   2.203   0.833  0.00  0.00    +0.048 C 
ATOM     21  C   UNL     1      -7.258   3.212   1.021  0.00  0.00    +0.229 C 
ENDBRANCH  19  21
ENDBRANCH  17  19
ENDBRANCH   1  17
BRANCH   5  22
ATOM     22  C   UNL     1      -2.025  -0.270  -1.036  0.00  0.00    +0.101 C 
ATOM     23  N   UNL     1      -1.870  -1.311  -1.464  0.00  0.00    -0.191 NA
ENDBRANCH   5  22
BRANCH   2  24
ATOM     24  C   UNL     1      -2.663   4.545   1.847  0.00  0.00    +0.149 C 
BRANCH  24  25
ATOM     25  S   UNL     1      -2.222   6.081   0.989  0.00  0.00    -0.116 S 
BRANCH  25  26
ATOM     26  C   UNL     1      -2.418   7.328   2.219  0.00  0.00    +0.028 A 
ATOM     27  C   UNL     1      -2.836   6.984   3.499  0.00  0.00    +0.016 A 
ATOM     28  C   UNL     1      -2.982   7.963   4.462  0.00  0.00    +0.003 A 
ATOM     29  C   UNL     1      -2.726   9.286   4.152  0.00  0.00    +0.021 A 
ATOM     30  C   UNL     1      -2.316   9.634   2.877  0.00  0.00    +0.060 A 
ATOM     31  C   UNL     1      -2.161   8.659   1.909  0.00  0.00    +0.073 A 
ATOM     32 CL   UNL     1      -1.647   9.095   0.309  0.00  0.00    -0.081 Cl
ATOM     33 CL   UNL     1      -1.996  11.296   2.492  0.00  0.00    -0.082 Cl
ENDBRANCH  25  26
ENDBRANCH  24  25
ENDBRANCH   2  24
TORSDOF 9
