REMARK  Name = ZINC59210824
REMARK  13 active torsions:
REMARK  status: ('A' for Active; 'I' for Inactive)
REMARK    1  A    between atoms: C_1  and  C_2
REMARK    2  A    between atoms: C_2  and  O_3
REMARK    3  A    between atoms: O_3  and  C_4
REMARK    4  A    between atoms: C_6  and  C_19
REMARK    5  A    between atoms: C_9  and  O_10
REMARK    6  A    between atoms: O_10  and  C_11
REMARK    7  A    between atoms: C_11  and  C_12
REMARK    8  A    between atoms: C_16  and  C_18
REMARK    9  A    between atoms: C_21  and  C_28
REMARK   10  A    between atoms: C_22  and  C_27
REMARK   11  A    between atoms: N_30  and  C_31
REMARK   12  A    between atoms: C_34  and  C_38
REMARK   13  A    between atoms: C_36  and  C_37
REMARK                            x       y       z     vdW  Elec       q    Type
REMARK                         _______ _______ _______ _____ _____    ______ ____
ROOT
ATOM      1  C   UNL     1      -1.294  -5.783   0.966  0.00  0.00    +0.139 C 
ATOM      2  C   UNL     1      -2.207  -6.134  -0.192  0.00  0.00    +0.056 C 
ATOM      3  C   UNL     1      -2.213  -7.414  -0.621  0.00  0.00    +0.017 C 
ATOM      4  N   UNL     1      -1.424  -8.359  -0.031  0.00  0.00    -0.300 N 
ATOM      5  C   UNL     1      -0.600  -8.105   0.993  0.00  0.00    +0.135 C 
ATOM      6  S   UNL     1       0.336  -9.383   1.641  0.00  0.00    -0.019 S 
ATOM      7  N   UNL     1      -0.483  -6.875   1.530  0.00  0.00    -0.315 N 
ATOM      8  C   UNL     1      -3.107  -7.806  -1.769  0.00  0.00    +0.061 C 
ATOM      9  H   UNL     1      -1.462  -9.266  -0.373  0.00  0.00    +0.154 HD
ATOM     10  H   UNL     1       0.120  -6.713   2.272  0.00  0.00    +0.149 HD
ENDROOT
BRANCH   1  13
ATOM     11  C   UNL     1       0.232  -2.377   0.377  0.00  0.00    +0.162 A 
ATOM     12  C   UNL     1      -0.630  -3.376   0.800  0.00  0.00    +0.055 A 
ATOM     13  C   UNL     1      -0.355  -4.698   0.504  0.00  0.00    -0.019 A 
ATOM     14  C   UNL     1       0.780  -5.027  -0.214  0.00  0.00    +0.009 A 
ATOM     15  C   UNL     1       1.644  -4.036  -0.639  0.00  0.00    +0.050 A 
ATOM     16  C   UNL     1       1.371  -2.708  -0.351  0.00  0.00    +0.162 A 
BRANCH  11  17
ATOM     17  O   UNL     1      -0.037  -1.076   0.666  0.00  0.00    -0.489 OA
BRANCH  17  19
ATOM     18  C   UNL     1      -1.255   0.681   1.792  0.00  0.00    +0.048 C 
ATOM     19  C   UNL     1      -1.167  -0.818   1.503  0.00  0.00    +0.226 C 
ENDBRANCH  17  19
ENDBRANCH  11  17
BRANCH  16  20
ATOM     20  O   UNL     1       2.218  -1.731  -0.773  0.00  0.00    -0.484 OA
BRANCH  20  21
ATOM     21  C   UNL     1       3.367  -2.145  -1.515  0.00  0.00    +0.264 C 
BRANCH  21  22
ATOM     22  C   UNL     1       4.181  -0.935  -1.896  0.00  0.00    -0.010 A 
ATOM     23  C   UNL     1       3.929  -0.279  -3.086  0.00  0.00    +0.007 A 
ATOM     24  C   UNL     1       4.676   0.831  -3.435  0.00  0.00    +0.001 A 
ATOM     25  C   UNL     1       5.675   1.284  -2.594  0.00  0.00    +0.003 A 
ATOM     26  C   UNL     1       5.926   0.628  -1.403  0.00  0.00    -0.050 A 
ATOM     27  C   UNL     1       5.176  -0.479  -1.052  0.00  0.00    +0.010 A 
ATOM     28  C   UNL     1       7.015   1.123  -0.486  0.00  0.00    +0.044 C 
ENDBRANCH  21  22
ENDBRANCH  20  21
ENDBRANCH  16  20
ENDBRANCH   1  13
BRANCH   2  29
ATOM     29  C   UNL     1      -3.025  -5.153  -0.803  0.00  0.00    +0.248 C 
ATOM     30  O   UNL     1      -4.024  -4.752  -0.232  0.00  0.00    -0.270 OA
ATOM     31  N   UNL     1      -2.700  -4.663  -2.015  0.00  0.00    -0.281 N 
ATOM     32  H   UNL     1      -1.946  -5.033  -2.501  0.00  0.00    +0.155 HD
BRANCH  31  33
ATOM     33  C   UNL     1      -3.449  -3.623  -2.573  0.00  0.00    +0.037 A 
ATOM     34  C   UNL     1      -4.252  -2.831  -1.763  0.00  0.00    +0.024 A 
ATOM     35  C   UNL     1      -4.990  -1.804  -2.317  0.00  0.00    +0.005 A 
ATOM     36  C   UNL     1      -4.931  -1.564  -3.678  0.00  0.00    -0.050 A 
ATOM     37  C   UNL     1      -4.133  -2.350  -4.487  0.00  0.00    +0.008 A 
ATOM     38  C   UNL     1      -3.387  -3.375  -3.938  0.00  0.00    -0.029 A 
ATOM     39  C   UNL     1      -2.511  -4.227  -4.821  0.00  0.00    +0.045 C 
ATOM     40  C   UNL     1      -5.739  -0.442  -4.279  0.00  0.00    +0.044 C 
ENDBRANCH  31  33
ENDBRANCH   2  29
TORSDOF 8
