REMARK  Name = ZINC57322507
REMARK  4 active torsions:
REMARK  status: ('A' for Active; 'I' for Inactive)
REMARK    1  A    between atoms: C_6  and  N_7
REMARK    2  A    between atoms: C_11  and  C_14
REMARK    3  A    between atoms: C_19  and  N_22
REMARK    4  A    between atoms: C_23  and  C_25
REMARK                            x       y       z     vdW  Elec       q    Type
REMARK                         _______ _______ _______ _____ _____    ______ ____
ROOT
ATOM      1  C   UNL     1       5.984   0.790  -0.052  0.00  0.00    +0.263 C 
ATOM      2  O   UNL     1       6.615  -0.250  -0.058  0.00  0.00    -0.268 OA
ATOM      3  N   UNL     1       6.628   1.969  -0.154  0.00  0.00    -0.296 N 
ATOM      4  C   UNL     1       5.881   3.234  -0.135  0.00  0.00    +0.110 C 
ATOM      5  C   UNL     1       6.264   4.052  -1.373  0.00  0.00    +0.041 C 
ATOM      6  C   UNL     1       7.784   4.221  -1.417  0.00  0.00    +0.076 C 
ATOM      7  C   UNL     1       8.449   2.846  -1.521  0.00  0.00    +0.041 C 
ATOM      8  C   UNL     1       8.091   2.015  -0.279  0.00  0.00    +0.110 C 
ENDROOT
BRANCH   1  16
ATOM      9  C   UNL     1       0.035   1.325   0.775  0.00  0.00    +0.035 A 
ATOM     10  C   UNL     1       1.236   1.957   1.003  0.00  0.00    +0.028 A 
ATOM     11  C   UNL     1       2.422   1.363   0.579  0.00  0.00    +0.047 A 
ATOM     12  C   UNL     1       2.376   0.119  -0.080  0.00  0.00    +0.003 A 
ATOM     13  C   UNL     1       1.141  -0.503  -0.300  0.00  0.00    +0.042 A 
ATOM     14  C   UNL     1      -0.008   0.098   0.125  0.00  0.00    +0.127 A 
ATOM     15  C   UNL     1       3.712  -0.233  -0.390  0.00  0.00    +0.041 A 
ATOM     16  C   UNL     1       4.518   0.760   0.066  0.00  0.00    +0.103 A 
ATOM     17  N   UNL     1       3.742   1.738   0.658  0.00  0.00    -0.351 N 
ATOM     18  H   UNL     1       4.075   2.554   1.063  0.00  0.00    +0.166 HD
BRANCH  14  19
ATOM     19  N   UNL     1      -1.312  -0.563  -0.109  0.00  0.00    +0.056 N 
ATOM     20  O   UNL     1      -2.333  -0.035   0.266  0.00  0.00    -0.126 OA
ATOM     21  O   UNL     1      -1.355  -1.631  -0.674  0.00  0.00    -0.126 OA
ENDBRANCH  14  19
ENDBRANCH   1  16
BRANCH   6  22
ATOM     22  N   UNL     1       8.152   5.030  -2.581  0.00  0.00    -0.312 N 
ATOM     23  C   UNL     1       9.304   5.729  -2.579  0.00  0.00    +0.216 C 
ATOM     24  O   UNL     1      10.037   5.688  -1.614  0.00  0.00    -0.276 OA
ATOM     25  H   UNL     1       7.566   5.063  -3.353  0.00  0.00    +0.149 HD
BRANCH  23  26
ATOM     26  C   UNL     1       9.683   6.561  -3.777  0.00  0.00    +0.075 C 
ATOM     27  C   UNL     1      10.879   6.098  -4.610  0.00  0.00    +0.013 C 
ATOM     28  C   UNL     1      11.003   7.331  -3.714  0.00  0.00    +0.013 C 
ENDBRANCH  23  26
ENDBRANCH   6  22
TORSDOF 4
