REMARK  Name = ZINC58825785
REMARK  8 active torsions:
REMARK  status: ('A' for Active; 'I' for Inactive)
REMARK    1  A    between atoms: C_1  and  C_2
REMARK    2  A    between atoms: C_5  and  C_11
REMARK    3  A    between atoms: C_7  and  N_8
REMARK    4  A    between atoms: C_14  and  C_16
REMARK    5  A    between atoms: N_20  and  C_31
REMARK    6  A    between atoms: N_22  and  C_23
REMARK    7  A    between atoms: C_23  and  C_24
REMARK    8  A    between atoms: C_31  and  C_32
REMARK                            x       y       z     vdW  Elec       q    Type
REMARK                         _______ _______ _______ _____ _____    ______ ____
ROOT
ATOM      1  C   UNL     1       2.878  -8.373   2.638  0.00  0.00    +0.066 C 
ATOM      2  C   UNL     1       3.159  -7.427   3.638  0.00  0.00    +0.081 C 
ATOM      3  C   UNL     1       2.434  -6.164   3.951  0.00  0.00    +0.259 C 
ATOM      4  O   UNL     1       1.458  -5.813   3.319  0.00  0.00    -0.269 OA
ATOM      5  N   UNL     1       2.909  -5.444   4.957  0.00  0.00    -0.242 N 
ATOM      6  C   UNL     1       4.023  -5.918   5.622  0.00  0.00    +0.164 C 
ATOM      7  N   UNL     1       4.651  -5.380   6.627  0.00  0.00    -0.258 NA
ATOM      8  S   UNL     1       4.392  -7.445   4.781  0.00  0.00    -0.049 S 
ENDROOT
BRANCH   1  12
ATOM      9  C   UNL     1      -0.223  -7.556   1.138  0.00  0.00    +0.136 A 
ATOM     10  C   UNL     1       0.154  -8.618   0.290  0.00  0.00    +0.050 A 
ATOM     11  C   UNL     1       1.360  -9.079   0.720  0.00  0.00    +0.050 A 
ATOM     12  C   UNL     1       1.725  -8.257   1.879  0.00  0.00    +0.130 A 
ATOM     13  O   UNL     1       0.729  -7.362   2.065  0.00  0.00    -0.455 OA
BRANCH   9  18
ATOM     14  C   UNL     1      -5.072  -4.514   0.682  0.00  0.00    +0.046 C 
ATOM     15  C   UNL     1      -3.800  -5.312   0.802  0.00  0.00    -0.020 A 
ATOM     16  C   UNL     1      -3.545  -6.340  -0.094  0.00  0.00    +0.006 A 
ATOM     17  C   UNL     1      -2.386  -7.075   0.006  0.00  0.00    +0.012 A 
ATOM     18  C   UNL     1      -1.458  -6.781   1.021  0.00  0.00    +0.019 A 
ATOM     19  C   UNL     1      -1.726  -5.737   1.924  0.00  0.00    +0.044 A 
ATOM     20  C   UNL     1      -2.889  -5.011   1.803  0.00  0.00    +0.130 A 
BRANCH  20  21
ATOM     21  N   UNL     1      -3.172  -3.908   2.749  0.00  0.00    +0.057 N 
ATOM     22  O   UNL     1      -3.625  -2.756   2.300  0.00  0.00    -0.126 OA
ATOM     23  O   UNL     1      -2.971  -4.079   4.039  0.00  0.00    -0.126 OA
ENDBRANCH  20  21
ENDBRANCH   9  18
ENDBRANCH   1  12
BRANCH   7  24
ATOM     24  C   UNL     1       4.088  -4.206   7.299  0.00  0.00    +0.179 C 
BRANCH  24  25
ATOM     25  C   UNL     1       4.997  -3.788   8.425  0.00  0.00    -0.026 A 
ATOM     26  C   UNL     1       4.883  -4.389   9.665  0.00  0.00    +0.005 A 
ATOM     27  C   UNL     1       5.717  -4.005  10.699  0.00  0.00    +0.000 A 
ATOM     28  C   UNL     1       6.665  -3.020  10.492  0.00  0.00    +0.000 A 
ATOM     29  C   UNL     1       6.779  -2.420   9.253  0.00  0.00    +0.000 A 
ATOM     30  C   UNL     1       5.948  -2.807   8.218  0.00  0.00    +0.005 A 
ENDBRANCH  24  25
ENDBRANCH   7  24
BRANCH   5  31
ATOM     31  C   UNL     1       2.274  -4.184   5.351  0.00  0.00    +0.151 C 
BRANCH  31  32
ATOM     32  C   UNL     1       2.794  -3.067   4.484  0.00  0.00    -0.030 A 
ATOM     33  C   UNL     1       4.084  -2.602   4.656  0.00  0.00    +0.005 A 
ATOM     34  C   UNL     1       4.561  -1.577   3.860  0.00  0.00    +0.000 A 
ATOM     35  C   UNL     1       3.748  -1.017   2.893  0.00  0.00    +0.000 A 
ATOM     36  C   UNL     1       2.458  -1.483   2.720  0.00  0.00    +0.000 A 
ATOM     37  C   UNL     1       1.983  -2.511   3.512  0.00  0.00    +0.005 A 
ENDBRANCH  31  32
ENDBRANCH   5  31
TORSDOF 7
