REMARK  Name = ZINC21221246
REMARK  12 active torsions:
REMARK  status: ('A' for Active; 'I' for Inactive)
REMARK    1  A    between atoms: C_1  and  C_2
REMARK    2  A    between atoms: C_2  and  C_3
REMARK    3  A    between atoms: C_3  and  O_4
REMARK    4  A    between atoms: O_4  and  C_5
REMARK    5  A    between atoms: C_6  and  C_13
REMARK    6  A    between atoms: C_10  and  O_11
REMARK    7  A    between atoms: O_11  and  C_12
REMARK    8  A    between atoms: C_18  and  C_23
REMARK    9  A    between atoms: C_26  and  O_29
REMARK   10  A    between atoms: O_29  and  C_30
REMARK   11  A    between atoms: C_30  and  C_31
REMARK   12  A    between atoms: C_30  and  C_32
REMARK                            x       y       z     vdW  Elec       q    Type
REMARK                         _______ _______ _______ _____ _____    ______ ____
ROOT
ATOM      1  C   UNL     1      -5.797  10.605  -0.331  0.00  0.00    +0.140 C 
ATOM      2  C   UNL     1      -4.668   9.641  -0.053  0.00  0.00    +0.037 C 
ATOM      3  C   UNL     1      -3.458   9.962   0.436  0.00  0.00    +0.017 C 
ATOM      4  C   UNL     1      -2.409   8.887   0.665  0.00  0.00    +0.059 C 
ATOM      5  C   UNL     1      -3.086   7.573   1.051  0.00  0.00    +0.032 C 
ATOM      6  C   UNL     1      -4.017   7.172  -0.099  0.00  0.00    +0.088 C 
ATOM      7  C   UNL     1      -4.983   8.292  -0.344  0.00  0.00    +0.163 C 
ATOM      8  O   UNL     1      -6.076   8.033  -0.809  0.00  0.00    -0.292 OA
ATOM      9  N   UNL     1      -3.061  11.222   0.749  0.00  0.00    -0.316 N 
ATOM     10  C   UNL     1      -3.812  12.134   1.480  0.00  0.00    +0.052 A 
ATOM     11  C   UNL     1      -3.414  12.594   2.723  0.00  0.00    +0.025 A 
ATOM     12  C   UNL     1      -4.187  13.539   3.377  0.00  0.00    +0.002 A 
ATOM     13  C   UNL     1      -5.343  14.021   2.791  0.00  0.00    +0.002 A 
ATOM     14  C   UNL     1      -5.752  13.549   1.556  0.00  0.00    +0.025 A 
ATOM     15  C   UNL     1      -4.992  12.587   0.909  0.00  0.00    +0.049 A 
ATOM     16  N   UNL     1      -5.420  12.001  -0.281  0.00  0.00    -0.331 N 
ATOM     17  H   UNL     1      -2.077  11.586   0.417  0.00  0.00    +0.152 HD
ATOM     18  H   UNL     1      -5.469  12.617  -1.191  0.00  0.00    +0.147 HD
ENDROOT
BRANCH   1  20
ATOM     19  C   UNL     1      -8.187  10.763   0.405  0.00  0.00    +0.167 A 
ATOM     20  C   UNL     1      -6.888  10.368   0.681  0.00  0.00    +0.023 A 
ATOM     21  C   UNL     1      -6.593   9.751   1.883  0.00  0.00    +0.009 A 
ATOM     22  C   UNL     1      -7.591   9.537   2.816  0.00  0.00    +0.004 A 
ATOM     23  C   UNL     1      -8.889   9.928   2.547  0.00  0.00    +0.049 A 
ATOM     24  C   UNL     1      -9.192  10.543   1.342  0.00  0.00    +0.162 A 
BRANCH  24  25
ATOM     25  O   UNL     1     -10.469  10.928   1.076  0.00  0.00    -0.491 OA
ATOM     26  C   UNL     1     -11.448  10.670   2.084  0.00  0.00    +0.277 C 
ENDBRANCH  24  25
BRANCH  19  27
ATOM     27  O   UNL     1      -8.479  11.366  -0.778  0.00  0.00    -0.488 OA
BRANCH  27  28
ATOM     28  C   UNL     1      -8.976  10.531  -1.826  0.00  0.00    +0.229 C 
BRANCH  28  30
ATOM     29  C   UNL     1      -9.759  10.491  -4.199  0.00  0.00    +0.007 C 
ATOM     30  C   UNL     1      -9.118  11.353  -3.109  0.00  0.00    +0.038 C 
ENDBRANCH  28  30
ENDBRANCH  27  28
ENDBRANCH  19  27
ENDBRANCH   1  20
BRANCH   5  31
ATOM     31  C   UNL     1      -2.044   6.505   1.261  0.00  0.00    -0.043 A 
ATOM     32  C   UNL     1      -1.933   5.881   2.490  0.00  0.00    +0.007 A 
ATOM     33  C   UNL     1      -0.978   4.902   2.685  0.00  0.00    +0.046 A 
ATOM     34  C   UNL     1      -0.132   4.543   1.646  0.00  0.00    +0.121 A 
ATOM     35  C   UNL     1      -0.242   5.174   0.415  0.00  0.00    +0.046 A 
ATOM     36  C   UNL     1      -1.201   6.149   0.224  0.00  0.00    +0.007 A 
BRANCH  34  37
ATOM     37  O   UNL     1       0.808   3.580   1.835  0.00  0.00    -0.489 OA
BRANCH  37  38
ATOM     38  C   UNL     1       0.949   3.062   3.160  0.00  0.00    +0.167 C 
ATOM     39  C   UNL     1       2.359   2.497   3.339  0.00  0.00    +0.051 C 
ATOM     40  C   UNL     1      -0.078   1.951   3.385  0.00  0.00    +0.051 C 
ENDBRANCH  37  38
ENDBRANCH  34  37
ENDBRANCH   5  31
TORSDOF 8
