REMARK  Name = ZINC01760104
REMARK  11 active torsions:
REMARK  status: ('A' for Active; 'I' for Inactive)
REMARK    1  A    between atoms: C_1  and  C_2
REMARK    2  A    between atoms: C_6  and  C_29
REMARK    3  A    between atoms: C_6  and  C_30
REMARK    4  A    between atoms: C_13  and  C_15
REMARK    5  A    between atoms: C_15  and  C_16
REMARK    6  A    between atoms: C_16  and  C_17
REMARK    7  A    between atoms: C_21  and  C_22
REMARK    8  A    between atoms: C_22  and  N_74
REMARK    9  A    between atoms: C_23  and  N_74
REMARK   10  A    between atoms: C_30  and  O_32
REMARK   11  A    between atoms: O_32  and  C_33
REMARK                            x       y       z     vdW  Elec       q    Type
REMARK                         _______ _______ _______ _____ _____    ______ ____
ROOT
ATOM      1  C   UNL     1      -1.309   5.018   0.082  0.00  0.00    +0.012 C 
ATOM      2  C   UNL     1      -2.025   5.543   1.327  0.00  0.00    -0.022 C 
ATOM      3  C   UNL     1      -3.539   5.515   1.098  0.00  0.00    +0.007 C 
ATOM      4  C   UNL     1      -3.998   4.079   0.844  0.00  0.00    +0.002 C 
ATOM      5  C   UNL     1      -3.665   3.227   2.072  0.00  0.00    +0.018 C 
ATOM      6  C   UNL     1      -2.151   3.234   2.286  0.00  0.00    +0.068 C 
ATOM      7  C   UNL     1      -1.669   4.667   2.530  0.00  0.00    +0.012 C 
ATOM      8  C   UNL     1      -0.151   4.648   2.728  0.00  0.00    +0.009 C 
ATOM      9  C   UNL     1       0.342   6.059   3.060  0.00  0.00    +0.031 C 
ATOM     10  C   UNL     1      -0.124   6.995   1.966  0.00  0.00    -0.073 C 
ATOM     11  C   UNL     1       0.720   7.789   1.354  0.00  0.00    +0.008 C 
ATOM     12  C   UNL     1      -1.590   6.988   1.599  0.00  0.00    +0.021 C 
ATOM     13  C   UNL     1      -1.806   2.368   3.499  0.00  0.00    +0.023 C 
ENDROOT
BRANCH   6  14
ATOM     14  C   UNL     1      -1.470   2.678   1.062  0.00  0.00    +0.313 C 
ATOM     15  O   UNL     1      -2.130   2.249   0.146  0.00  0.00    -0.250 OA
BRANCH  14  16
ATOM     16  O   UNL     1      -0.130   2.658   0.991  0.00  0.00    -0.468 OA
ATOM     17  C   UNL     1       0.458   2.108  -0.217  0.00  0.00    +0.280 C 
ENDBRANCH  14  16
ENDBRANCH   6  14
BRANCH  12  18
ATOM     18  C   UNL     1      -2.411   7.561   2.757  0.00  0.00    +0.013 C 
BRANCH  18  19
ATOM     19  C   UNL     1      -2.064   9.040   2.945  0.00  0.00    +0.039 C 
BRANCH  19  20
ATOM     20  C   UNL     1      -2.872   9.604   4.084  0.00  0.00    -0.008 A 
ATOM     21  C   UNL     1      -4.103  10.293   3.985  0.00  0.00    +0.045 A 
ATOM     22  C   UNL     1      -4.470  10.617   5.237  0.00  0.00    +0.195 A 
ATOM     23  O   UNL     1      -3.533  10.165   6.085  0.00  0.00    -0.469 OA
ATOM     24  C   UNL     1      -2.563   9.545   5.392  0.00  0.00    +0.091 A 
BRANCH  24  25
ATOM     25  C   UNL     1      -1.337   8.896   5.980  0.00  0.00    -0.006 C 
BRANCH  25  26
ATOM     26  N   UNL     1      -0.254   9.895   6.060  0.00  0.00    +0.386 N 
ATOM     27  H   UNL     1      -0.555  10.674   6.657  0.00  0.00    -0.085 HD
ATOM     28  H   UNL     1      -0.045  10.245   5.118  0.00  0.00    -0.085 HD
BRANCH  26  29
ATOM     29  C   UNL     1       0.962   9.287   6.633  0.00  0.00    -0.071 C 
ATOM     30  C   UNL     1       0.887   9.336   8.160  0.00  0.00    -0.016 C 
ATOM     31  C   UNL     1       2.153   8.714   8.754  0.00  0.00    -0.002 C 
ATOM     32  C   UNL     1       3.378   9.496   8.277  0.00  0.00    -0.000 C 
ATOM     33  C   UNL     1       3.453   9.446   6.750  0.00  0.00    -0.002 C 
ATOM     34  C   UNL     1       2.188  10.069   6.157  0.00  0.00    -0.016 C 
ENDBRANCH  26  29
ENDBRANCH  25  26
ENDBRANCH  24  25
ENDBRANCH  19  20
ENDBRANCH  18  19
ENDBRANCH  12  18
TORSDOF 8
