REMARK  Name = ZINC66314826
REMARK  3 active torsions:
REMARK  status: ('A' for Active; 'I' for Inactive)
REMARK    1  A    between atoms: C_3  and  N_9
REMARK    2  A    between atoms: C_10  and  C_12
REMARK    3  A    between atoms: C_14  and  N_22
REMARK                            x       y       z     vdW  Elec       q    Type
REMARK                         _______ _______ _______ _____ _____    ______ ____
ROOT
ATOM      1  C   UNL     1       4.835   4.218  -0.236  0.00  0.00    +0.084 A 
ATOM      2  C   UNL     1       6.053   3.534  -0.257  0.00  0.00    +0.049 A 
ATOM      3  C   UNL     1       7.234   4.235  -0.369  0.00  0.00    +0.131 A 
ATOM      4  C   UNL     1       7.220   5.617  -0.460  0.00  0.00    +0.082 A 
ATOM      5  C   UNL     1       6.020   6.310  -0.439  0.00  0.00    +0.165 A 
ATOM      6  C   UNL     1       4.821   5.616  -0.335  0.00  0.00    +0.174 A 
ATOM      7  O   UNL     1       3.633   6.274  -0.325  0.00  0.00    -0.484 OA
ATOM      8  C   UNL     1       3.677   7.678  -0.050  0.00  0.00    +0.270 C 
ATOM      9  C   UNL     1       4.798   8.299  -0.896  0.00  0.00    +0.270 C 
ATOM     10  O   UNL     1       6.032   7.668  -0.525  0.00  0.00    -0.485 OA
ENDROOT
BRANCH   1  12
ATOM     11  N   UNL     1       3.584   2.127  -0.021  0.00  0.00    -0.280 N 
ATOM     12  C   UNL     1       3.568   3.472  -0.116  0.00  0.00    +0.252 C 
ATOM     13  O   UNL     1       2.509   4.069  -0.103  0.00  0.00    -0.270 OA
ATOM     14  H   UNL     1       4.429   1.656   0.049  0.00  0.00    +0.155 HD
BRANCH  11  17
ATOM     15  C   UNL     1       0.065   1.244  -0.621  0.00  0.00    +0.040 A 
ATOM     16  C   UNL     1       1.251   1.953  -0.619  0.00  0.00    +0.027 A 
ATOM     17  C   UNL     1       2.382   1.411  -0.024  0.00  0.00    +0.048 A 
ATOM     18  C   UNL     1       2.318   0.155   0.568  0.00  0.00    +0.042 A 
ATOM     19  C   UNL     1       1.130  -0.550   0.563  0.00  0.00    +0.055 A 
ATOM     20  C   UNL     1       0.004  -0.007  -0.031  0.00  0.00    +0.125 A 
ATOM     21  F   UNL     1      -1.157  -0.698  -0.035  0.00  0.00    -0.205 F 
ATOM     22 BR   UNL     1       3.857  -0.588   1.378  0.00  0.00    -0.048 Br
ENDBRANCH  11  17
ENDBRANCH   1  12
BRANCH   3  23
ATOM     23  N   UNL     1       8.523   3.508  -0.392  0.00  0.00    +0.057 N 
ATOM     24  O   UNL     1       8.538   2.301  -0.313  0.00  0.00    -0.126 OA
ATOM     25  O   UNL     1       9.560   4.120  -0.490  0.00  0.00    -0.126 OA
ENDBRANCH   3  23
TORSDOF 3
