REMARK  Name = ZINC40248440
REMARK  6 active torsions:
REMARK  status: ('A' for Active; 'I' for Inactive)
REMARK    1  A    between atoms: C_1  and  C_2
REMARK    2  A    between atoms: C_5  and  C_19
REMARK    3  A    between atoms: C_6  and  C_8
REMARK    4  A    between atoms: C_8  and  C_10
REMARK    5  A    between atoms: C_8  and  O_18
REMARK    6  A    between atoms: C_13  and  N_15
REMARK                            x       y       z     vdW  Elec       q    Type
REMARK                         _______ _______ _______ _____ _____    ______ ____
ROOT
ATOM      1  C   UNL     1       0.054  -2.845   2.489  0.00  0.00    +0.210 C 
ENDROOT
BRANCH   1   7
ATOM      2  C   UNL     1      -0.018   1.503   0.010  0.00  0.00    +0.044 C 
ATOM      3  C   UNL     1       0.002  -0.004   0.002  0.00  0.00    -0.050 A 
ATOM      4  C   UNL     1       0.006  -0.689  -1.199  0.00  0.00    +0.003 A 
ATOM      5  C   UNL     1       0.025  -2.071  -1.207  0.00  0.00    +0.004 A 
ATOM      6  C   UNL     1       0.040  -2.768  -0.013  0.00  0.00    -0.044 A 
ATOM      7  C   UNL     1       0.037  -2.084   1.188  0.00  0.00    -0.009 A 
ATOM      8  C   UNL     1       0.023  -0.702   1.195  0.00  0.00    +0.010 A 
ATOM      9  C   UNL     1       0.059  -4.275  -0.021  0.00  0.00    +0.044 C 
ENDBRANCH   1   7
BRANCH   1  10
ATOM     10  C   UNL     1       1.476  -3.187   2.852  0.00  0.00    +0.141 A 
ATOM     11  C   UNL     1       2.103  -4.342   2.571  0.00  0.00    +0.050 A 
ATOM     12  C   UNL     1       3.413  -4.235   3.092  0.00  0.00    +0.076 A 
ATOM     13  C   UNL     1       3.507  -3.020   3.661  0.00  0.00    +0.280 A 
ATOM     14  O   UNL     1       2.333  -2.387   3.508  0.00  0.00    -0.436 OA
BRANCH  13  15
ATOM     15  N   UNL     1       4.705  -2.470   4.337  0.00  0.00    +0.093 N 
ATOM     16  O   UNL     1       5.714  -3.132   4.410  0.00  0.00    -0.123 OA
ATOM     17  O   UNL     1       4.674  -1.360   4.814  0.00  0.00    -0.123 OA
ENDBRANCH  13  15
ENDBRANCH   1  10
BRANCH   1  18
ATOM     18  O   UNL     1      -0.521  -2.038   3.519  0.00  0.00    -0.379 OA
ATOM     19  H   UNL     1      -0.056  -1.204   3.670  0.00  0.00    +0.211 HD
ENDBRANCH   1  18
TORSDOF 4
