REMARK  Name = ZINC40034764
REMARK  9 active torsions:
REMARK  status: ('A' for Active; 'I' for Inactive)
REMARK    1  A    between atoms: C_1  and  C_2
REMARK    2  A    between atoms: C_2  and  O_3
REMARK    3  A    between atoms: O_3  and  C_4
REMARK    4  A    between atoms: C_7  and  N_10
REMARK    5  A    between atoms: N_17  and  N_18
REMARK    6  A    between atoms: C_19  and  C_20
REMARK    7  A    between atoms: C_24  and  O_26
REMARK    8  A    between atoms: C_34  and  C_35
REMARK    9  A    between atoms: C_34  and  C_36
REMARK                            x       y       z     vdW  Elec       q    Type
REMARK                         _______ _______ _______ _____ _____    ______ ____
ROOT
ATOM      1  N   UNL     1       0.504  -6.307   1.933  0.00  0.00    -0.248 N 
ATOM      2  C   UNL     1       1.460  -6.665   2.818  0.00  0.00    +0.264 A 
ATOM      3  O   UNL     1       2.122  -5.818   3.396  0.00  0.00    -0.267 OA
ATOM      4  C   UNL     1       1.675  -8.028   3.057  0.00  0.00    +0.049 A 
ATOM      5  C   UNL     1       0.900  -8.957   2.379  0.00  0.00    +0.084 A 
ATOM      6  N   UNL     1      -0.028  -8.544   1.509  0.00  0.00    -0.214 NA
ATOM      7  C   UNL     1      -0.230  -7.261   1.292  0.00  0.00    +0.223 A 
ATOM      8  N   UNL     1      -1.195  -6.875   0.398  0.00  0.00    -0.206 N 
ATOM      9  C   UNL     1       1.116 -10.398   2.642  0.00  0.00    +0.004 A 
ATOM     10  C   UNL     1       0.658 -11.364   1.750  0.00  0.00    +0.010 A 
ATOM     11  C   UNL     1       0.878 -12.700   2.018  0.00  0.00    +0.001 A 
ATOM     12  C   UNL     1       1.550 -13.076   3.168  0.00  0.00    +0.000 A 
ATOM     13  C   UNL     1       2.004 -12.119   4.058  0.00  0.00    +0.004 A 
ATOM     14  C   UNL     1       1.789 -10.780   3.803  0.00  0.00    -0.037 A 
ATOM     15  C   UNL     1       2.269  -9.734   4.772  0.00  0.00    +0.047 C 
ATOM     16  C   UNL     1       2.729  -8.483   4.027  0.00  0.00    +0.001 C 
ATOM     17  C   UNL     1       4.016  -8.797   3.262  0.00  0.00    +0.016 C 
ATOM     18  C   UNL     1       3.002  -7.366   5.036  0.00  0.00    +0.016 C 
ATOM     19  H   UNL     1      -1.405  -5.935   0.286  0.00  0.00    +0.177 HD
ENDROOT
BRANCH   1  23
ATOM     20  C   UNL     1      -0.218  -2.271   1.173  0.00  0.00    +0.121 A 
ATOM     21  C   UNL     1       0.728  -2.958   0.427  0.00  0.00    +0.047 A 
ATOM     22  C   UNL     1       0.968  -4.295   0.678  0.00  0.00    +0.030 A 
ATOM     23  C   UNL     1       0.262  -4.950   1.678  0.00  0.00    +0.053 A 
ATOM     24  C   UNL     1      -0.685  -4.261   2.424  0.00  0.00    +0.030 A 
ATOM     25  C   UNL     1      -0.920  -2.924   2.176  0.00  0.00    +0.047 A 
BRANCH  20  26
ATOM     26  O   UNL     1      -0.453  -0.955   0.925  0.00  0.00    -0.492 OA
BRANCH  26  28
ATOM     27  C   UNL     1      -0.094   1.125  -0.252  0.00  0.00    +0.048 C 
ATOM     28  C   UNL     1       0.306  -0.346  -0.122  0.00  0.00    +0.225 C 
ENDBRANCH  26  28
ENDBRANCH  20  26
ENDBRANCH   1  23
BRANCH   8  29
ATOM     29  N   UNL     1      -1.879  -7.840  -0.354  0.00  0.00    -0.188 NA
ATOM     30  C   UNL     1      -2.792  -7.475  -1.201  0.00  0.00    +0.138 C 
BRANCH  30  31
ATOM     31  C   UNL     1      -3.512  -8.490  -1.992  0.00  0.00    -0.002 A 
ATOM     32  C   UNL     1      -3.216  -9.846  -1.829  0.00  0.00    +0.010 A 
ATOM     33  C   UNL     1      -3.891 -10.793  -2.571  0.00  0.00    +0.004 A 
ATOM     34  C   UNL     1      -4.861 -10.404  -3.478  0.00  0.00    +0.045 A 
ATOM     35  C   UNL     1      -5.162  -9.060  -3.647  0.00  0.00    +0.117 A 
ATOM     36  C   UNL     1      -4.495  -8.101  -2.903  0.00  0.00    +0.054 A 
BRANCH  35  37
ATOM     37  O   UNL     1      -6.116  -8.684  -4.540  0.00  0.00    -0.507 OA
ATOM     38  H   UNL     1      -7.006  -8.634  -4.166  0.00  0.00    +0.292 HD
ENDBRANCH  35  37
ENDBRANCH  30  31
ENDBRANCH   8  29
TORSDOF 6
