REMARK  Name = ZINC14232991
REMARK  8 active torsions:
REMARK  status: ('A' for Active; 'I' for Inactive)
REMARK    1  A    between atoms: C_1  and  C_2
REMARK    2  A    between atoms: N_10  and  C_14
REMARK    3  A    between atoms: C_14  and  C_15
REMARK    4  A    between atoms: N_17  and  C_18
REMARK    5  A    between atoms: C_18  and  C_20
REMARK    6  A    between atoms: C_18  and  C_31
REMARK    7  A    between atoms: C_31  and  C_32
REMARK    8  A    between atoms: C_31  and  C_33
REMARK                            x       y       z     vdW  Elec       q    Type
REMARK                         _______ _______ _______ _____ _____    ______ ____
ROOT
ATOM      1  C   UNL     1       0.022  -0.514   1.420  0.00  0.00    +0.231 C 
ATOM      2  O   UNL     1       0.021   0.269   2.346  0.00  0.00    -0.274 OA
ATOM      3  N   UNL     1       0.043  -1.840   1.659  0.00  0.00    -0.307 N 
ATOM      4  H   UNL     1       0.044  -2.466   0.918  0.00  0.00    +0.149 HD
ENDROOT
BRANCH   1   5
ATOM      5  C   UNL     1       0.002  -0.004   0.002  0.00  0.00    +0.213 C 
BRANCH   5  15
ATOM      6  C   UNL     1       0.473   7.982   0.038  0.00  0.00    +0.007 C 
ATOM      7  C   UNL     1       1.006   6.548   0.026  0.00  0.00    -0.014 C 
ATOM      8  C   UNL     1       0.520   5.813   1.277  0.00  0.00    +0.006 C 
ATOM      9  C   UNL     1       1.063   4.382   1.269  0.00  0.00    +0.035 C 
ATOM     10  C   UNL     1       0.584   3.659   0.015  0.00  0.00    +0.113 C 
ATOM     11  C   UNL     1       1.040   4.394  -1.240  0.00  0.00    +0.035 C 
ATOM     12  C   UNL     1       0.496   5.825  -1.222  0.00  0.00    +0.006 C 
ATOM     13  C   UNL     1       1.088   2.234   0.004  0.00  0.00    +0.247 C 
ATOM     14  O   UNL     1       2.242   1.864  -0.008  0.00  0.00    -0.273 OA
ATOM     15  N   UNL     1      -0.018   1.461   0.010  0.00  0.00    -0.215 N 
ATOM     16  C   UNL     1      -1.135   2.198   0.019  0.00  0.00    +0.310 C 
ATOM     17  O   UNL     1      -2.256   1.727   0.021  0.00  0.00    -0.252 OA
ATOM     18  N   UNL     1      -0.878   3.520   0.029  0.00  0.00    -0.285 N 
ATOM     19  H   UNL     1      -1.530   4.238   0.038  0.00  0.00    +0.151 HD
ENDBRANCH   5  15
ENDBRANCH   1   5
BRANCH   3  20
ATOM     20  C   UNL     1       0.063  -2.336   3.037  0.00  0.00    +0.106 C 
BRANCH  20  21
ATOM     21  C   UNL     1      -0.519  -3.726   3.080  0.00  0.00    -0.023 A 
ATOM     22  C   UNL     1      -0.222  -4.628   2.075  0.00  0.00    +0.009 A 
ATOM     23  C   UNL     1      -0.752  -5.905   2.107  0.00  0.00    +0.050 A 
ATOM     24  C   UNL     1      -1.583  -6.278   3.150  0.00  0.00    +0.162 A 
ATOM     25  C   UNL     1      -1.880  -5.372   4.159  0.00  0.00    +0.162 A 
ATOM     26  C   UNL     1      -1.343  -4.096   4.127  0.00  0.00    +0.055 A 
ATOM     27  O   UNL     1      -2.700  -5.749   5.183  0.00  0.00    -0.488 OA
ATOM     28  C   UNL     1      -2.173  -6.731   6.076  0.00  0.00    +0.232 C 
ATOM     29  C   UNL     1      -2.397  -8.133   5.530  0.00  0.00    +0.082 C 
ATOM     30  C   UNL     1      -1.631  -8.380   4.240  0.00  0.00    +0.232 C 
ATOM     31  O   UNL     1      -2.113  -7.534   3.194  0.00  0.00    -0.488 OA
ENDBRANCH  20  21
BRANCH  20  32
ATOM     32  C   UNL     1       1.505  -2.371   3.546  0.00  0.00    +0.008 C 
ATOM     33  C   UNL     1       1.526  -2.888   4.986  0.00  0.00    +0.009 C 
ATOM     34  C   UNL     1       2.337  -3.299   2.659  0.00  0.00    +0.009 C 
ENDBRANCH  20  32
ENDBRANCH   3  20
TORSDOF 5
