REMARK  Name = ZINC14460771
REMARK  7 active torsions:
REMARK  status: ('A' for Active; 'I' for Inactive)
REMARK    1  A    between atoms: C_1  and  C_2
REMARK    2  A    between atoms: C_2  and  N_3
REMARK    3  A    between atoms: N_3  and  C_4
REMARK    4  A    between atoms: N_3  and  C_6
REMARK    5  A    between atoms: C_4  and  C_5
REMARK    6  A    between atoms: C_19  and  C_22
REMARK    7  A    between atoms: C_27  and  O_28
REMARK                            x       y       z     vdW  Elec       q    Type
REMARK                         _______ _______ _______ _____ _____    ______ ____
ROOT
ATOM      1  C   UNL     1      -4.797   0.887  -1.565  0.00  0.00    +0.030 A 
ATOM      2  C   UNL     1      -4.023   1.016  -2.711  0.00  0.00    +0.025 A 
ATOM      3  C   UNL     1      -2.660   1.202  -2.596  0.00  0.00    +0.025 A 
ATOM      4  C   UNL     1      -2.067   1.261  -1.341  0.00  0.00    +0.031 A 
ATOM      5  C   UNL     1      -2.833   1.135  -0.193  0.00  0.00    -0.018 A 
ATOM      6  C   UNL     1      -4.204   0.947  -0.315  0.00  0.00    +0.029 A 
ATOM      7  C   UNL     1      -2.237   1.196   1.177  0.00  0.00    +0.049 C 
ATOM      8  C   UNL     1      -2.153  -0.175   1.805  0.00  0.00    -0.023 C 
ATOM      9  C   UNL     1      -1.058  -0.277   2.528  0.00  0.00    -0.030 C 
ATOM     10  C   UNL     1      -0.268   1.017   2.481  0.00  0.00    +0.033 C 
ATOM     11  C   UNL     1      -0.780   1.704   1.181  0.00  0.00    +0.029 C 
ATOM     12  C   UNL     1      -0.013   1.086   0.008  0.00  0.00    +0.108 C 
ATOM     13  N   UNL     1      -0.681   1.450  -1.245  0.00  0.00    -0.336 N 
ATOM     14  H   UNL     1      -0.177   1.814  -1.990  0.00  0.00    +0.147 HD
ENDROOT
BRANCH  12  15
ATOM     15  C   UNL     1       1.400   1.610  -0.003  0.00  0.00    +0.015 A 
ATOM     16  C   UNL     1       2.444   0.792   0.388  0.00  0.00    +0.024 A 
ATOM     17  C   UNL     1       3.741   1.273   0.378  0.00  0.00    +0.018 A 
ATOM     18  C   UNL     1       3.996   2.572  -0.022  0.00  0.00    +0.019 A 
ATOM     19  C   UNL     1       2.956   3.393  -0.414  0.00  0.00    +0.047 A 
ATOM     20  C   UNL     1       1.655   2.911  -0.410  0.00  0.00    +0.122 A 
ATOM     21 BR   UNL     1       5.167   0.152   0.912  0.00  0.00    -0.050 Br
BRANCH  20  22
ATOM     22  O   UNL     1       0.631   3.715  -0.800  0.00  0.00    -0.506 OA
ATOM     23  H   UNL     1       0.237   4.227  -0.081  0.00  0.00    +0.292 HD
ENDBRANCH  20  22
ENDBRANCH  12  15
BRANCH   1  24
ATOM     24  N   UNL     1      -6.180   0.698  -1.674  0.00  0.00    -0.330 N 
BRANCH  24  26
ATOM     25  C   UNL     1      -6.830  -0.816  -3.482  0.00  0.00    +0.024 C 
ATOM     26  C   UNL     1      -6.809   0.635  -2.996  0.00  0.00    +0.102 C 
ENDBRANCH  24  26
BRANCH  24  27
ATOM     27  C   UNL     1      -6.998   0.562  -0.466  0.00  0.00    +0.102 C 
ATOM     28  C   UNL     1      -7.481   1.944  -0.020  0.00  0.00    +0.024 C 
ENDBRANCH  24  27
ENDBRANCH   1  24
TORSDOF 5
