REMARK  Name = ZINC31970036
REMARK  6 active torsions:
REMARK  status: ('A' for Active; 'I' for Inactive)
REMARK    1  A    between atoms: C_1  and  C_2
REMARK    2  A    between atoms: C_2  and  C_4
REMARK    3  A    between atoms: C_2  and  N_14
REMARK    4  A    between atoms: C_15  and  C_17
REMARK    5  A    between atoms: C_19  and  S_22
REMARK    6  A    between atoms: S_22  and  N_25
REMARK                            x       y       z     vdW  Elec       q    Type
REMARK                         _______ _______ _______ _____ _____    ______ ____
ROOT
ATOM      1  N   UNL     1       0.711  -0.489   1.189  0.00  0.00    -0.305 N 
ATOM      2  C   UNL     1       2.054  -0.600   1.174  0.00  0.00    +0.245 C 
ATOM      3  O   UNL     1       2.678  -0.296   0.174  0.00  0.00    -0.270 OA
ATOM      4  H   UNL     1       0.213  -0.731   1.986  0.00  0.00    +0.150 HD
ENDROOT
BRANCH   2   5
ATOM      5  C   UNL     1       2.766  -1.087   2.366  0.00  0.00    +0.046 A 
ATOM      6  C   UNL     1       4.203  -1.214   2.389  0.00  0.00    +0.049 A 
ATOM      7  C   UNL     1       4.732  -1.671   3.541  0.00  0.00    +0.143 A 
ATOM      8  S   UNL     1       3.303  -1.924   4.570  0.00  0.00    -0.076 S 
ATOM      9  C   UNL     1       2.092  -1.439   3.514  0.00  0.00    +0.060 A 
BRANCH   7  10
ATOM     10  S   UNL     1       6.427  -1.951   3.933  0.00  0.00    +0.062 S 
ATOM     11  O   UNL     1       6.449  -2.915   4.976  0.00  0.00    -0.153 OA
ATOM     12  O   UNL     1       7.102  -2.150   2.698  0.00  0.00    -0.153 OA
BRANCH  10  13
ATOM     13  N   UNL     1       7.020  -0.545   4.575  0.00  0.00    -0.203 NA
ATOM     14  H   UNL     1       7.736  -0.574   5.229  0.00  0.00    +0.144 HD
ATOM     15  H   UNL     1       6.652   0.309   4.297  0.00  0.00    +0.144 HD
ENDBRANCH  10  13
ENDBRANCH   7  10
ENDBRANCH   2   5
BRANCH   1  17
ATOM     16  C   UNL     1      -0.019   1.526   0.010  0.00  0.00    +0.033 C 
ATOM     17  C   UNL     1       0.002  -0.004   0.002  0.00  0.00    +0.100 C 
BRANCH  17  18
ATOM     18  C   UNL     1      -1.412  -0.526   0.013  0.00  0.00    -0.027 A 
ATOM     19  C   UNL     1      -2.125  -0.572   1.196  0.00  0.00    +0.006 A 
ATOM     20  C   UNL     1      -3.418  -1.054   1.198  0.00  0.00    +0.004 A 
ATOM     21  C   UNL     1      -4.010  -1.491   0.021  0.00  0.00    -0.044 A 
ATOM     22  C   UNL     1      -3.301  -1.440  -1.159  0.00  0.00    -0.044 A 
ATOM     23  C   UNL     1      -2.001  -0.953  -1.159  0.00  0.00    +0.009 A 
ATOM     24  C   UNL     1      -3.885  -1.883  -2.475  0.00  0.00    +0.035 C 
ATOM     25  C   UNL     1      -5.113  -2.762  -2.249  0.00  0.00    +0.005 C 
ATOM     26  C   UNL     1      -6.061  -2.033  -1.290  0.00  0.00    +0.005 C 
ATOM     27  C   UNL     1      -5.421  -2.012   0.097  0.00  0.00    +0.035 C 
ENDBRANCH  17  18
ENDBRANCH   1  17
TORSDOF 5
