REMARK  Name = ZINC22150877
REMARK  5 active torsions:
REMARK  status: ('A' for Active; 'I' for Inactive)
REMARK    1  A    between atoms: C_3  and  C_19
REMARK    2  A    between atoms: C_5  and  N_7
REMARK    3  A    between atoms: N_7  and  S_8
REMARK    4  A    between atoms: S_8  and  C_11
REMARK    5  A    between atoms: C_13  and  N_18
REMARK                            x       y       z     vdW  Elec       q    Type
REMARK                         _______ _______ _______ _____ _____    ______ ____
ROOT
ATOM      1  S   UNL     1       0.920   6.002  -1.076  0.00  0.00    +0.093 S 
ATOM      2  O   UNL     1       0.826   7.411  -0.920  0.00  0.00    -0.148 OA
ATOM      3  O   UNL     1       2.151   5.303  -0.960  0.00  0.00    -0.148 OA
ENDROOT
BRANCH   1   4
ATOM      4  C   UNL     1       0.279   5.629  -2.675  0.00  0.00    +0.130 A 
ATOM      5  C   UNL     1      -0.137   6.650  -3.507  0.00  0.00    +0.053 A 
ATOM      6  C   UNL     1      -0.641   6.356  -4.767  0.00  0.00    +0.027 A 
ATOM      7  C   UNL     1      -0.728   5.034  -5.186  0.00  0.00    +0.024 A 
ATOM      8  C   UNL     1      -0.311   4.017  -4.350  0.00  0.00    +0.024 A 
ATOM      9  C   UNL     1       0.197   4.314  -3.097  0.00  0.00    +0.068 A 
ATOM     10 CL   UNL     1       0.726   3.034  -2.051  0.00  0.00    -0.082 Cl
BRANCH   6  11
ATOM     11  N   UNL     1      -1.062   7.387  -5.611  0.00  0.00    -0.358 N 
ATOM     12  H   UNL     1      -1.462   7.152  -6.609  0.00  0.00    +0.142 HD
ATOM     13  H   UNL     1      -0.993   8.433  -5.278  0.00  0.00    +0.142 HD
ENDBRANCH   6  11
ENDBRANCH   1   4
BRANCH   1  14
ATOM     14  N   UNL     1      -0.111   5.333   0.033  0.00  0.00    -0.098 NA
BRANCH  14  19
ATOM     15  C   UNL     1      -3.465   6.572  -0.835  0.00  0.00    +0.003 A 
ATOM     16  C   UNL     1      -3.994   6.817   0.416  0.00  0.00    +0.019 A 
ATOM     17  C   UNL     1      -3.227   6.574   1.558  0.00  0.00    +0.054 A 
ATOM     18  C   UNL     1      -1.932   6.073   1.429  0.00  0.00    +0.045 A 
ATOM     19  C   UNL     1      -1.410   5.829   0.168  0.00  0.00    +0.076 A 
ATOM     20  C   UNL     1      -2.179   6.080  -0.963  0.00  0.00    +0.027 A 
BRANCH  17  21
ATOM     21  C   UNL     1      -3.772   6.834   2.857  0.00  0.00    +0.099 C 
ATOM     22  N   UNL     1      -4.203   7.040   3.887  0.00  0.00    -0.191 NA
ENDBRANCH  17  21
ENDBRANCH  14  19
ENDBRANCH   1  14
TORSDOF 5
