REMARK  Name = ZINC44963072
REMARK  7 active torsions:
REMARK  status: ('A' for Active; 'I' for Inactive)
REMARK    1  A    between atoms: C_1  and  C_2
REMARK    2  A    between atoms: C_4  and  O_40
REMARK    3  A    between atoms: C_15  and  C_26
REMARK    4  A    between atoms: C_17  and  C_20
REMARK    5  A    between atoms: C_26  and  C_28
REMARK    6  A    between atoms: C_28  and  O_29
REMARK    7  A    between atoms: C_38  and  C_39
REMARK                            x       y       z     vdW  Elec       q    Type
REMARK                         _______ _______ _______ _____ _____    ______ ____
ROOT
ATOM      1  C   UNL     1      -1.464   1.507   0.267  0.00  0.00    +0.015 C 
ATOM      2  C   UNL     1      -1.450  -0.007   0.048  0.00  0.00    +0.012 C 
ATOM      3  C   UNL     1      -2.677  -0.678   0.670  0.00  0.00    +0.042 C 
ATOM      4  C   UNL     1      -2.579  -0.666   2.192  0.00  0.00    +0.120 C 
ATOM      5  C   UNL     1      -1.355  -1.487   2.615  0.00  0.00    +0.035 C 
ATOM      6  C   UNL     1      -0.100  -0.815   2.061  0.00  0.00    -0.000 C 
ATOM      7  C   UNL     1      -0.158  -0.646   0.581  0.00  0.00    +0.004 C 
ATOM      8  C   UNL     1      -0.098  -2.001  -0.150  0.00  0.00    +0.039 C 
ATOM      9  C   UNL     1      -0.583  -1.665  -1.577  0.00  0.00    +0.161 C 
ATOM     10  C   UNL     1      -1.429  -0.371  -1.460  0.00  0.00    +0.164 C 
ATOM     11  O   UNL     1      -2.761  -0.768  -1.846  0.00  0.00    -0.334 OA
ATOM     12  C   UNL     1      -2.575  -1.946  -2.658  0.00  0.00    +0.255 C 
ATOM     13  O   UNL     1      -1.500  -2.689  -2.011  0.00  0.00    -0.344 OA
ATOM     14  C   UNL     1       1.143  -1.618   2.456  0.00  0.00    +0.008 C 
ATOM     15  C   UNL     1       1.291  -1.625   3.981  0.00  0.00    +0.032 C 
ATOM     16  C   UNL     1      -0.000  -2.154   4.576  0.00  0.00    -0.056 C 
ATOM     17  C   UNL     1       0.053  -3.152   5.446  0.00  0.00    +0.051 C 
ATOM     18  C   UNL     1      -1.181  -3.704   6.026  0.00  0.00    +0.179 C 
ATOM     19  O   UNL     1      -1.134  -4.595   6.854  0.00  0.00    -0.288 OA
ATOM     20  C   UNL     1      -2.473  -3.154   5.584  0.00  0.00    +0.047 C 
ATOM     21  C   UNL     1      -2.502  -2.152   4.720  0.00  0.00    -0.012 C 
ATOM     22  C   UNL     1      -1.300  -1.532   4.146  0.00  0.00    +0.013 C 
ATOM     23  C   UNL     1      -1.295  -0.089   4.655  0.00  0.00    +0.020 C 
ENDROOT
BRANCH  12  24
ATOM     24  C   UNL     1      -3.859  -2.777  -2.694  0.00  0.00    +0.045 C 
ATOM     25  C   UNL     1      -4.229  -3.206  -1.273  0.00  0.00    +0.008 C 
ATOM     26  C   UNL     1      -5.513  -4.037  -1.309  0.00  0.00    +0.000 C 
ATOM     27  C   UNL     1      -5.292  -5.279  -2.175  0.00  0.00    +0.000 C 
ATOM     28  C   UNL     1      -4.922  -4.851  -3.596  0.00  0.00    +0.000 C 
ATOM     29  C   UNL     1      -3.638  -4.019  -3.560  0.00  0.00    +0.008 C 
ENDBRANCH  12  24
BRANCH  10  30
ATOM     30  C   UNL     1      -0.885   0.748  -2.311  0.00  0.00    +0.193 C 
ATOM     31  O   UNL     1       0.302   0.829  -2.515  0.00  0.00    -0.292 OA
BRANCH  30  32
ATOM     32  C   UNL     1      -1.823   1.766  -2.905  0.00  0.00    +0.233 C 
BRANCH  32  33
ATOM     33  O   UNL     1      -1.074   2.718  -3.664  0.00  0.00    -0.387 OA
ATOM     34  H   UNL     1      -1.615   3.405  -4.077  0.00  0.00    +0.210 HD
ENDBRANCH  32  33
ENDBRANCH  30  32
ENDBRANCH  10  30
BRANCH   4  35
ATOM     35  O   UNL     1      -2.437   0.680   2.652  0.00  0.00    -0.391 OA
ATOM     36  H   UNL     1      -3.174   1.258   2.410  0.00  0.00    +0.210 HD
ENDBRANCH   4  35
TORSDOF 5
