REMARK  Name = ZINC61742809
REMARK  4 active torsions:
REMARK  status: ('A' for Active; 'I' for Inactive)
REMARK    1  A    between atoms: C_4  and  O_23
REMARK    2  A    between atoms: C_5  and  C_7
REMARK    3  A    between atoms: N_17  and  C_18
REMARK    4  A    between atoms: C_18  and  C_19
REMARK                            x       y       z     vdW  Elec       q    Type
REMARK                         _______ _______ _______ _____ _____    ______ ____
ROOT
ATOM      1  C   UNL     1       1.197  -2.120  -0.052  0.00  0.00    +0.196 C 
ATOM      2  N   UNL     1       2.289  -2.586  -0.915  0.00  0.00    -0.321 N 
ATOM      3  C   UNL     1       2.092  -2.591  -2.291  0.00  0.00    +0.041 A 
ATOM      4  C   UNL     1       3.136  -2.416  -3.182  0.00  0.00    +0.024 A 
ATOM      5  C   UNL     1       2.884  -2.427  -4.541  0.00  0.00    +0.002 A 
ATOM      6  C   UNL     1       1.596  -2.610  -5.018  0.00  0.00    +0.001 A 
ATOM      7  C   UNL     1       0.544  -2.787  -4.143  0.00  0.00    +0.015 A 
ATOM      8  C   UNL     1       0.783  -2.781  -2.771  0.00  0.00    +0.058 A 
ATOM      9  C   UNL     1      -0.302  -2.974  -1.792  0.00  0.00    +0.250 C 
ATOM     10  O   UNL     1      -1.389  -3.384  -2.152  0.00  0.00    -0.270 OA
ATOM     11  N   UNL     1      -0.076  -2.690  -0.493  0.00  0.00    -0.266 N 
ATOM     12  H   UNL     1       3.131  -2.883  -0.534  0.00  0.00    +0.148 HD
ENDROOT
BRANCH   1  17
ATOM     13  C   UNL     1      -0.182   1.393  -0.128  0.00  0.00    +0.001 A 
ATOM     14  C   UNL     1       0.975   2.145  -0.226  0.00  0.00    +0.004 A 
ATOM     15  C   UNL     1       2.205   1.520  -0.268  0.00  0.00    +0.046 A 
ATOM     16  C   UNL     1       2.281   0.135  -0.212  0.00  0.00    +0.123 A 
ATOM     17  C   UNL     1       1.119  -0.617  -0.113  0.00  0.00    +0.032 A 
ATOM     18  C   UNL     1      -0.109   0.014  -0.071  0.00  0.00    +0.011 A 
BRANCH  16  19
ATOM     19  O   UNL     1       3.490  -0.483  -0.254  0.00  0.00    -0.506 OA
ATOM     20  H   UNL     1       3.891  -0.623   0.616  0.00  0.00    +0.292 HD
ENDBRANCH  16  19
ENDBRANCH   1  17
BRANCH  11  21
ATOM     21  C   UNL     1      -1.125  -2.957   0.495  0.00  0.00    +0.223 C 
BRANCH  21  22
ATOM     22  C   UNL     1      -0.944  -4.366   1.062  0.00  0.00    +0.405 C 
ATOM     23  F   UNL     1       0.254  -4.428   1.784  0.00  0.00    -0.169 F 
ATOM     24  F   UNL     1      -2.015  -4.669   1.910  0.00  0.00    -0.169 F 
ATOM     25  F   UNL     1      -0.904  -5.290   0.013  0.00  0.00    -0.169 F 
ENDBRANCH  21  22
ENDBRANCH  11  21
TORSDOF 4
