REMARK  Name = ZINC41070092
REMARK  6 active torsions:
REMARK  status: ('A' for Active; 'I' for Inactive)
REMARK    1  A    between atoms: C_1  and  C_2
REMARK    2  A    between atoms: N_5  and  S_11
REMARK    3  A    between atoms: C_6  and  C_10
REMARK    4  A    between atoms: S_11  and  C_14
REMARK    5  A    between atoms: C_19  and  N_20
REMARK    6  A    between atoms: N_20  and  N_21
REMARK                            x       y       z     vdW  Elec       q    Type
REMARK                         _______ _______ _______ _____ _____    ______ ____
ROOT
ATOM      1  C   UNL     1      -0.944  -3.243  -2.085  0.00  0.00    +0.147 A 
ATOM      2  C   UNL     1      -0.543  -4.527  -2.410  0.00  0.00    +0.048 A 
ATOM      3  C   UNL     1      -0.008  -4.755  -3.671  0.00  0.00    +0.038 A 
ATOM      4  C   UNL     1       0.107  -3.701  -4.557  0.00  0.00    +0.128 A 
ATOM      5  N   UNL     1      -0.283  -2.487  -4.219  0.00  0.00    -0.236 NA
ATOM      6  C   UNL     1      -0.804  -2.232  -3.029  0.00  0.00    +0.159 A 
ATOM      7 BR   UNL     1       0.557  -6.489  -4.170  0.00  0.00    -0.049 Br
ENDROOT
BRANCH   1   8
ATOM      8  S   UNL     1      -1.630  -2.896  -0.500  0.00  0.00    +0.065 S 
ATOM      9  O   UNL     1      -1.664  -4.129   0.207  0.00  0.00    -0.153 OA
ATOM     10  O   UNL     1      -2.796  -2.115  -0.724  0.00  0.00    -0.153 OA
BRANCH   8  14
ATOM     11  C   UNL     1       0.509   1.703   0.101  0.00  0.00    +0.039 C 
ATOM     12  C   UNL     1       0.598   0.188  -0.098  0.00  0.00    +0.131 C 
ATOM     13  C   UNL     1      -0.726  -0.462   0.320  0.00  0.00    +0.141 C 
ATOM     14  N   UNL     1      -0.553  -1.923   0.297  0.00  0.00    -0.169 NA
ATOM     15  C   UNL     1       0.604  -2.493   1.004  0.00  0.00    +0.102 C 
ATOM     16  C   UNL     1       1.863  -1.744   0.553  0.00  0.00    +0.180 C 
ATOM     17  O   UNL     1       1.656  -0.338   0.706  0.00  0.00    -0.374 OA
ATOM     18  C   UNL     1       0.418  -2.328   2.514  0.00  0.00    +0.028 C 
ENDBRANCH   8  14
ENDBRANCH   1   8
BRANCH   6  19
ATOM     19  N   UNL     1      -1.209  -0.938  -2.718  0.00  0.00    -0.266 N 
ATOM     20  H   UNL     1      -1.708  -0.769  -1.904  0.00  0.00    +0.167 HD
BRANCH  19  21
ATOM     21  N   UNL     1      -0.903   0.094  -3.559  0.00  0.00    -0.255 NA
ATOM     22  H   UNL     1      -1.246  -0.085  -4.490  0.00  0.00    +0.140 HD
ATOM     23  H   UNL     1      -1.260   0.968  -3.203  0.00  0.00    +0.140 HD
ENDBRANCH  19  21
ENDBRANCH   6  19
TORSDOF 4
