REMARK  Name = ZINC59153761
REMARK  13 active torsions:
REMARK  status: ('A' for Active; 'I' for Inactive)
REMARK    1  A    between atoms: C_1  and  C_2
REMARK    2  A    between atoms: C_5  and  N_9
REMARK    3  A    between atoms: C_6  and  C_8
REMARK    4  A    between atoms: C_10  and  C_27
REMARK    5  A    between atoms: C_11  and  C_15
REMARK    6  A    between atoms: C_12  and  C_14
REMARK    7  A    between atoms: N_16  and  N_17
REMARK    8  A    between atoms: C_18  and  C_20
REMARK    9  A    between atoms: C_20  and  C_22
REMARK   10  A    between atoms: C_20  and  N_26
REMARK   11  A    between atoms: C_22  and  C_23
REMARK   12  A    between atoms: C_23  and  C_24
REMARK   13  A    between atoms: C_23  and  C_25
REMARK                            x       y       z     vdW  Elec       q    Type
REMARK                         _______ _______ _______ _____ _____    ______ ____
ROOT
ATOM      1  N   UNL     1      -1.059  -5.010  -1.120  0.00  0.00    -0.236 N 
ATOM      2  C   UNL     1      -0.766  -6.027  -1.958  0.00  0.00    +0.051 A 
ATOM      3  C   UNL     1      -0.654  -7.169  -1.195  0.00  0.00    +0.038 A 
ATOM      4  C   UNL     1      -0.892  -6.801   0.148  0.00  0.00    +0.069 A 
ATOM      5  N   UNL     1      -1.125  -5.517   0.183  0.00  0.00    -0.171 NA
ATOM      6  C   UNL     1      -0.873  -7.729   1.335  0.00  0.00    +0.068 C 
ATOM      7  C   UNL     1      -0.595  -5.931  -3.452  0.00  0.00    +0.066 C 
ENDROOT
BRANCH   1  12
ATOM      8  C   UNL     1      -1.859   0.404  -2.622  0.00  0.00    +0.044 C 
ATOM      9  C   UNL     1      -1.647  -1.033  -2.223  0.00  0.00    -0.050 A 
ATOM     10  C   UNL     1      -0.543  -1.723  -2.691  0.00  0.00    +0.005 A 
ATOM     11  C   UNL     1      -0.346  -3.041  -2.328  0.00  0.00    +0.028 A 
ATOM     12  C   UNL     1      -1.256  -3.673  -1.490  0.00  0.00    +0.069 A 
ATOM     13  C   UNL     1      -2.362  -2.977  -1.022  0.00  0.00    -0.025 A 
ATOM     14  C   UNL     1      -2.552  -1.658  -1.385  0.00  0.00    +0.008 A 
ATOM     15  C   UNL     1      -3.353  -3.659  -0.113  0.00  0.00    +0.046 C 
ENDBRANCH   1  12
BRANCH   3  16
ATOM     16  C   UNL     1      -0.344  -8.525  -1.689  0.00  0.00    +0.142 C 
ATOM     17  N   UNL     1      -0.268  -9.517  -0.856  0.00  0.00    -0.188 NA
BRANCH  17  18
ATOM     18  N   UNL     1       0.026 -10.804  -1.325  0.00  0.00    -0.208 N 
ATOM     19  C   UNL     1       0.105 -11.835  -0.460  0.00  0.00    +0.218 C 
ATOM     20  O   UNL     1      -0.079 -11.648   0.724  0.00  0.00    -0.276 OA
ATOM     21  H   UNL     1       0.174 -10.953  -2.272  0.00  0.00    +0.177 HD
BRANCH  19  22
ATOM     22  C   UNL     1       0.422 -13.219  -0.965  0.00  0.00    +0.015 C 
BRANCH  22  23
ATOM     23  N   UNL     1      -0.008 -14.212   0.028  0.00  0.00    +0.386 N 
ATOM     24  H   UNL     1       0.555 -14.120   0.861  0.00  0.00    -0.089 HD
ATOM     25  H   UNL     1      -0.978 -14.059   0.260  0.00  0.00    -0.089 HD
ATOM     26  H   UNL     1       0.105 -15.139  -0.353  0.00  0.00    -0.089 HD
ENDBRANCH  22  23
BRANCH  22  27
ATOM     27  C   UNL     1       1.929 -13.345  -1.194  0.00  0.00    -0.004 C 
BRANCH  27  28
ATOM     28  C   UNL     1       2.238 -14.707  -1.821  0.00  0.00    -0.018 C 
ATOM     29  C   UNL     1       1.616 -14.777  -3.217  0.00  0.00    +0.007 C 
ATOM     30  C   UNL     1       3.753 -14.888  -1.927  0.00  0.00    +0.007 C 
ENDBRANCH  27  28
ENDBRANCH  22  27
ENDBRANCH  19  22
ENDBRANCH  17  18
ENDBRANCH   3  16
TORSDOF 7
