REMARK  Name = ZINC65371886
REMARK  6 active torsions:
REMARK  status: ('A' for Active; 'I' for Inactive)
REMARK    1  A    between atoms: C_1  and  C_2
REMARK    2  A    between atoms: C_2  and  C_3
REMARK    3  A    between atoms: C_5  and  C_26
REMARK    4  A    between atoms: C_7  and  C_9
REMARK    5  A    between atoms: C_9  and  N_10
REMARK    6  A    between atoms: C_18  and  C_25
REMARK                            x       y       z     vdW  Elec       q    Type
REMARK                         _______ _______ _______ _____ _____    ______ ____
ROOT
ATOM      1  N   UNL     1       5.087  -0.607  -3.575  0.00  0.00    -0.294 NA
ATOM      2  C   UNL     1       4.201  -0.598  -4.747  0.00  0.00    +0.104 C 
ATOM      3  C   UNL     1       4.334   0.745  -5.473  0.00  0.00    +0.122 C 
ATOM      4  N   UNL     1       5.757   0.979  -5.767  0.00  0.00    -0.312 N 
ATOM      5  C   UNL     1       6.724   0.851  -4.666  0.00  0.00    +0.122 C 
ATOM      6  C   UNL     1       6.497  -0.496  -3.972  0.00  0.00    +0.104 C 
ATOM      7  C   UNL     1       6.173   1.309  -7.044  0.00  0.00    +0.133 A 
ATOM      8  C   UNL     1       6.371   2.670  -7.407  0.00  0.00    +0.050 A 
ATOM      9  C   UNL     1       6.201   3.876  -6.617  0.00  0.00    -0.031 A 
ATOM     10  C   UNL     1       6.451   5.068  -7.179  0.00  0.00    +0.051 A 
ATOM     11  S   UNL     1       6.941   4.650  -8.842  0.00  0.00    -0.077 S 
ATOM     12  C   UNL     1       6.797   2.885  -8.736  0.00  0.00    +0.113 A 
ATOM     13  N   UNL     1       6.992   1.881  -9.567  0.00  0.00    -0.228 NA
ATOM     14  C   UNL     1       6.792   0.639  -9.171  0.00  0.00    +0.224 A 
ATOM     15  N   UNL     1       6.398   0.363  -7.941  0.00  0.00    -0.220 NA
ATOM     16  C   UNL     1       5.750   3.790  -5.181  0.00  0.00    +0.045 C 
ENDROOT
BRANCH   1  17
ATOM     17  C   UNL     1       4.864  -1.806  -2.756  0.00  0.00    +0.139 C 
BRANCH  17  22
ATOM     18  C   UNL     1       1.432  -1.954  -1.506  0.00  0.00    +0.084 A 
ATOM     19  N   UNL     1       1.969  -1.121  -0.657  0.00  0.00    -0.347 N 
ATOM     20  C   UNL     1       3.261  -0.943  -0.969  0.00  0.00    +0.035 A 
ATOM     21  H   UNL     1       2.256  -2.956  -3.130  0.00  0.00    +0.167 HD
ATOM     22  C   UNL     1       3.535  -1.694  -2.053  0.00  0.00    +0.050 A 
ATOM     23  N   UNL     1       2.376  -2.339  -2.391  0.00  0.00    -0.346 N 
ATOM     24  C   UNL     1       4.236  -0.058  -0.236  0.00  0.00    +0.065 C 
ATOM     25  H   UNL     1       1.507  -0.698   0.083  0.00  0.00    +0.167 HD
BRANCH  18  27
ATOM     26  C   UNL     1      -0.131  -3.670  -0.633  0.00  0.00    +0.012 C 
ATOM     27  C   UNL     1      -0.003  -2.414  -1.497  0.00  0.00    +0.069 C 
ENDBRANCH  18  27
ENDBRANCH  17  22
ENDBRANCH   1  17
TORSDOF 3
