REMARK  Name = ZINC19535073
REMARK  15 active torsions:
REMARK  status: ('A' for Active; 'I' for Inactive)
REMARK    1  A    between atoms: C_1  and  N_2
REMARK    2  A    between atoms: N_2  and  C_3
REMARK    3  A    between atoms: N_2  and  C_11
REMARK    4  A    between atoms: C_3  and  C_4
REMARK    5  A    between atoms: C_4  and  C_5
REMARK    6  A    between atoms: C_11  and  C_12
REMARK    7  A    between atoms: C_15  and  O_18
REMARK    8  A    between atoms: O_18  and  C_19
REMARK    9  A    between atoms: C_19  and  C_20
REMARK   10  A    between atoms: C_20  and  C_22
REMARK   11  A    between atoms: C_20  and  O_32
REMARK   12  A    between atoms: C_22  and  N_23
REMARK   13  A    between atoms: N_23  and  C_24
REMARK   14  A    between atoms: N_23  and  C_25
REMARK   15  A    between atoms: C_25  and  C_26
REMARK                            x       y       z     vdW  Elec       q    Type
REMARK                         _______ _______ _______ _____ _____    ______ ____
ROOT
ATOM      1  C   UNL     1       3.120  -5.853  -2.074  0.00  0.00    -0.064 A 
ATOM      2  C   UNL     1       4.495  -5.832  -1.929  0.00  0.00    +0.005 A 
ATOM      3  C   UNL     1       5.214  -7.010  -1.978  0.00  0.00    +0.046 A 
ATOM      4  C   UNL     1       4.557  -8.214  -2.185  0.00  0.00    +0.121 A 
ATOM      5  C   UNL     1       3.178  -8.232  -2.337  0.00  0.00    +0.046 A 
ATOM      6  C   UNL     1       2.463  -7.052  -2.281  0.00  0.00    +0.005 A 
ENDROOT
BRANCH   1   7
ATOM      7  C   UNL     1       2.337  -4.567  -2.014  0.00  0.00    -0.043 C 
BRANCH   7   9
ATOM      8  C   UNL     1       0.980  -5.316  -0.153  0.00  0.00    -0.096 C 
ATOM      9  N   UNL     1       1.935  -4.303  -0.626  0.00  0.00    +0.381 N 
ATOM     10  H   UNL     1       2.834  -4.366   0.005  0.00  0.00    -0.082 HD
BRANCH   9  11
ATOM     11  C   UNL     1       1.379  -2.951  -0.486  0.00  0.00    -0.074 C 
BRANCH  11  12
ATOM     12  C   UNL     1       1.204  -2.622   0.998  0.00  0.00    +0.020 C 
BRANCH  12  13
ATOM     13  C   UNL     1       0.634  -1.234   1.141  0.00  0.00    -0.012 A 
ATOM     14  C   UNL     1       1.346  -0.088   1.244  0.00  0.00    +0.108 A 
ATOM     15  N   UNL     1       0.469   0.932   1.355  0.00  0.00    -0.284 N 
ATOM     16  H   UNL     1       0.836   1.965   1.452  0.00  0.00    +0.188 HD
ATOM     17  N   UNL     1      -0.824   0.395   1.319  0.00  0.00    -0.182 NA
ATOM     18  C   UNL     1      -0.724  -0.903   1.190  0.00  0.00    +0.137 A 
ENDBRANCH  12  13
ENDBRANCH  11  12
ENDBRANCH   9  11
ENDBRANCH   7   9
ENDBRANCH   1   7
BRANCH   4  19
ATOM     19  O   UNL     1       5.263  -9.374  -2.240  0.00  0.00    -0.489 OA
BRANCH  19  20
ATOM     20  C   UNL     1       6.679  -9.280  -2.075  0.00  0.00    +0.258 C 
BRANCH  20  21
ATOM     21  C   UNL     1       7.297 -10.677  -2.166  0.00  0.00    +0.135 C 
BRANCH  21  22
ATOM     22  O   UNL     1       6.841 -11.471  -1.069  0.00  0.00    -0.390 OA
ATOM     23  H   UNL     1       7.181 -12.512  -0.965  0.00  0.00    +0.210 HD
ENDBRANCH  21  22
BRANCH  21  24
ATOM     24  C   UNL     1       8.822 -10.564  -2.115  0.00  0.00    -0.044 C 
BRANCH  24  25
ATOM     25  N   UNL     1       9.418 -11.891  -2.324  0.00  0.00    +0.382 N 
ATOM     26  C   UNL     1      10.804 -11.928  -1.837  0.00  0.00    -0.096 C 
ATOM     27  H   UNL     1       8.835 -12.619  -1.741  0.00  0.00    -0.082 HD
BRANCH  25  28
ATOM     28  C   UNL     1       9.347 -12.283  -3.738  0.00  0.00    -0.043 C 
BRANCH  28  29
ATOM     29  C   UNL     1       9.737 -13.732  -3.877  0.00  0.00    -0.064 A 
ATOM     30  C   UNL     1      11.059 -14.074  -4.094  0.00  0.00    +0.002 A 
ATOM     31  C   UNL     1      11.418 -15.403  -4.217  0.00  0.00    +0.000 A 
ATOM     32  C   UNL     1      10.453 -16.390  -4.133  0.00  0.00    +0.000 A 
ATOM     33  C   UNL     1       9.131 -16.048  -3.922  0.00  0.00    +0.000 A 
ATOM     34  C   UNL     1       8.773 -14.719  -3.794  0.00  0.00    +0.002 A 
ENDBRANCH  28  29
ENDBRANCH  25  28
ENDBRANCH  24  25
ENDBRANCH  21  24
ENDBRANCH  20  21
ENDBRANCH  19  20
ENDBRANCH   4  19
TORSDOF 13
