REMARK  Name = ZINC43283673
REMARK  8 active torsions:
REMARK  status: ('A' for Active; 'I' for Inactive)
REMARK    1  A    between atoms: C_1  and  C_2
REMARK    2  A    between atoms: C_2  and  C_3
REMARK    3  A    between atoms: C_3  and  C_5
REMARK    4  A    between atoms: C_3  and  N_20
REMARK    5  A    between atoms: C_5  and  C_7
REMARK    6  A    between atoms: C_5  and  S_13
REMARK    7  A    between atoms: S_13  and  C_14
REMARK    8  A    between atoms: C_16  and  C_19
REMARK                            x       y       z     vdW  Elec       q    Type
REMARK                         _______ _______ _______ _____ _____    ______ ____
ROOT
ATOM      1  C   UNL     1       0.548  -2.018  -1.276  0.00  0.00    +0.075 C 
ENDROOT
BRANCH   1   2
ATOM      2  C   UNL     1       1.523  -2.466  -2.335  0.00  0.00    +0.003 A 
ATOM      3  C   UNL     1       1.290  -3.189  -3.458  0.00  0.00    +0.013 A 
ATOM      4  C   UNL     1       2.349  -3.487  -4.295  0.00  0.00    +0.023 A 
ATOM      5  C   UNL     1       3.590  -3.047  -3.967  0.00  0.00    +0.055 A 
ATOM      6  S   UNL     1       3.281  -2.177  -2.439  0.00  0.00    -0.085 S 
ATOM      7 BR   UNL     1       5.221  -3.288  -4.893  0.00  0.00    -0.043 Br
ENDBRANCH   1   2
BRANCH   1   8
ATOM      8  C   UNL     1       0.545  -0.490  -1.200  0.00  0.00    -0.057 C 
BRANCH   8   9
ATOM      9  N   UNL     1      -0.367  -0.055  -0.135  0.00  0.00    +0.381 N 
ATOM     10  H   UNL     1      -0.059  -0.434   0.748  0.00  0.00    -0.090 HD
ATOM     11  H   UNL     1      -0.370   0.953  -0.085  0.00  0.00    -0.090 HD
ATOM     12  H   UNL     1      -1.300  -0.384  -0.335  0.00  0.00    -0.090 HD
ENDBRANCH   8   9
BRANCH   8  14
ATOM     13  C   UNL     1       0.210   1.609  -2.513  0.00  0.00    +0.002 C 
ATOM     14  C   UNL     1       0.077   0.086  -2.539  0.00  0.00    -0.018 C 
ENDBRANCH   8  14
ENDBRANCH   1   8
BRANCH   1  15
ATOM     15  S   UNL     1       1.044  -2.702   0.330  0.00  0.00    -0.092 S 
BRANCH  15  16
ATOM     16  C   UNL     1       0.759  -4.433   0.162  0.00  0.00    +0.135 A 
ATOM     17  N   UNL     1       1.052  -5.396   1.011  0.00  0.00    -0.238 NA
ATOM     18  C   UNL     1       0.771  -6.657   0.734  0.00  0.00    +0.047 A 
ATOM     19  C   UNL     1       0.172  -6.908  -0.455  0.00  0.00    +0.070 A 
ATOM     20  S   UNL     1       0.041  -5.255  -1.118  0.00  0.00    -0.069 S 
ATOM     21  C   UNL     1       1.102  -7.767   1.698  0.00  0.00    +0.066 C 
ENDBRANCH  15  16
ENDBRANCH   1  15
TORSDOF 6
