REMARK  Name = ZINC16921274
REMARK  7 active torsions:
REMARK  status: ('A' for Active; 'I' for Inactive)
REMARK    1  A    between atoms: C_1  and  C_2
REMARK    2  A    between atoms: C_2  and  C_3
REMARK    3  A    between atoms: C_2  and  C_4
REMARK    4  A    between atoms: C_5  and  C_6
REMARK    5  A    between atoms: C_6  and  C_15
REMARK    6  A    between atoms: C_15  and  C_16
REMARK    7  A    between atoms: C_15  and  C_17
REMARK                            x       y       z     vdW  Elec       q    Type
REMARK                         _______ _______ _______ _____ _____    ______ ____
ROOT
ATOM      1  C   UNL     1      -1.379   2.882  -0.183  0.00  0.00    +0.144 C 
ATOM      2  C   UNL     1       0.102   3.201  -0.244  0.00  0.00    +0.240 C 
ATOM      3  O   UNL     1       0.776   2.878  -1.198  0.00  0.00    -0.274 OA
ATOM      4  N   UNL     1       0.645   3.858   0.798  0.00  0.00    -0.239 N 
ATOM      5  C   UNL     1      -0.081   4.221   1.861  0.00  0.00    +0.312 C 
ATOM      6  O   UNL     1       0.489   4.809   2.759  0.00  0.00    -0.252 OA
ATOM      7  N   UNL     1      -1.389   3.983   2.009  0.00  0.00    -0.239 N 
ATOM      8  C   UNL     1      -2.109   3.338   1.066  0.00  0.00    +0.240 C 
ATOM      9  O   UNL     1      -3.294   3.130   1.213  0.00  0.00    -0.274 OA
ATOM     10  H   UNL     1       1.591   4.074   0.778  0.00  0.00    +0.159 HD
ATOM     11  H   UNL     1      -1.834   4.284   2.816  0.00  0.00    +0.159 HD
ENDROOT
BRANCH   1  12
ATOM     12  C   UNL     1      -2.056   3.531  -1.393  0.00  0.00    +0.011 C 
ATOM     13  C   UNL     1      -1.829   5.043  -1.354  0.00  0.00    +0.009 C 
ATOM     14  C   UNL     1      -1.458   2.958  -2.679  0.00  0.00    +0.009 C 
ENDBRANCH   1  12
BRANCH   1  16
ATOM     15  C   UNL     1      -1.020   0.598   0.601  0.00  0.00    -0.027 C 
ATOM     16  C   UNL     1      -1.543   1.389  -0.303  0.00  0.00    -0.005 C 
BRANCH  15  18
ATOM     17  C   UNL     1      -1.120   0.799   3.070  0.00  0.00    +0.011 C 
ATOM     18  C   UNL     1      -0.340   1.183   1.811  0.00  0.00    +0.005 C 
ATOM     19  C   UNL     1       1.086   0.638   1.909  0.00  0.00    +0.011 C 
ENDBRANCH  15  18
ENDBRANCH   1  16
TORSDOF 3
