REMARK  Name = ZINC20064196
REMARK  5 active torsions:
REMARK  status: ('A' for Active; 'I' for Inactive)
REMARK    1  A    between atoms: C_1  and  C_2
REMARK    2  A    between atoms: C_2  and  C_3
REMARK    3  A    between atoms: C_2  and  C_4
REMARK    4  A    between atoms: C_4  and  C_5
REMARK    5  A    between atoms: C_5  and  N_6
REMARK                            x       y       z     vdW  Elec       q    Type
REMARK                         _______ _______ _______ _____ _____    ______ ____
ROOT
ATOM      1  N   UNL     1      -1.576   4.093  -1.166  0.00  0.00    -0.269 N 
ATOM      2  C   UNL     1      -1.364   4.458   0.152  0.00  0.00    +0.042 A 
ATOM      3  C   UNL     1      -1.316   5.731   0.722  0.00  0.00    +0.024 A 
ATOM      4  C   UNL     1      -1.083   5.807   2.086  0.00  0.00    +0.002 A 
ATOM      5  C   UNL     1      -0.904   4.679   2.860  0.00  0.00    +0.000 A 
ATOM      6  C   UNL     1      -0.951   3.405   2.305  0.00  0.00    +0.008 A 
ATOM      7  C   UNL     1      -1.182   3.321   0.949  0.00  0.00    +0.009 A 
ATOM      8  C   UNL     1      -1.294   2.146   0.032  0.00  0.00    +0.164 C 
ATOM      9  C   UNL     1      -1.552   2.753  -1.330  0.00  0.00    +0.251 C 
ATOM     10  O   UNL     1      -1.708   2.151  -2.371  0.00  0.00    -0.272 OA
ATOM     11  C   UNL     1      -0.016   1.350   0.009  0.00  0.00    +0.054 A 
ATOM     12  C   UNL     1       0.002  -0.004   0.002  0.00  0.00    -0.015 A 
ATOM     13  C   UNL     1       1.389  -0.412  -0.011  0.00  0.00    +0.003 A 
ATOM     14  C   UNL     1       2.011  -1.665  -0.020  0.00  0.00    +0.010 A 
ATOM     15  C   UNL     1       3.384  -1.676  -0.033  0.00  0.00    +0.001 A 
ATOM     16  C   UNL     1       4.130  -0.508  -0.036  0.00  0.00    +0.002 A 
ATOM     17  C   UNL     1       3.541   0.744  -0.026  0.00  0.00    +0.026 A 
ATOM     18  C   UNL     1       2.148   0.786  -0.013  0.00  0.00    +0.047 A 
ATOM     19  N   UNL     1       1.265   1.829  -0.000  0.00  0.00    -0.356 N 
ATOM     20  H   UNL     1       1.448   2.913   0.003  0.00  0.00    +0.166 HD
ATOM     21  C   UNL     1      -1.246  -0.849   0.005  0.00  0.00    +0.053 C 
ATOM     22  C   UNL     1      -2.430   0.043  -0.391  0.00  0.00    +0.087 C 
ATOM     23  N   UNL     1      -2.410   1.274   0.412  0.00  0.00    -0.294 NA
ATOM     24  H   UNL     1      -2.313   0.997   1.472  0.00  0.00    +0.124 HD
ENDROOT
BRANCH   1  25
ATOM     25  C   UNL     1      -1.798   5.047  -2.255  0.00  0.00    +0.114 C 
BRANCH  25  26
ATOM     26  C   UNL     1      -0.454   5.433  -2.877  0.00  0.00    +0.022 C 
BRANCH  26  28
ATOM     27  C   UNL     1      -1.257   7.730  -3.444  0.00  0.00    +0.007 C 
ATOM     28  C   UNL     1      -0.687   6.430  -4.014  0.00  0.00    -0.016 C 
ATOM     29  C   UNL     1       0.641   6.721  -4.717  0.00  0.00    +0.007 C 
ENDBRANCH  26  28
ENDBRANCH  25  26
ENDBRANCH   1  25
TORSDOF 3
