REMARK  Name = ZINC09764821
REMARK  8 active torsions:
REMARK  status: ('A' for Active; 'I' for Inactive)
REMARK    1  A    between atoms: C_4  and  C_7
REMARK    2  A    between atoms: C_7  and  C_8
REMARK    3  A    between atoms: C_8  and  C_29
REMARK    4  A    between atoms: N_11  and  C_15
REMARK    5  A    between atoms: C_15  and  C_16
REMARK    6  A    between atoms: N_18  and  C_19
REMARK    7  A    between atoms: C_22  and  O_25
REMARK    8  A    between atoms: O_25  and  C_26
REMARK                            x       y       z     vdW  Elec       q    Type
REMARK                         _______ _______ _______ _____ _____    ______ ____
ROOT
ATOM      1  C   UNL     1       3.833  -0.208   0.376  0.00  0.00    +0.142 C 
ATOM      2  C   UNL     1       4.232  -0.735   1.740  0.00  0.00    +0.252 C 
ATOM      3  O   UNL     1       4.453  -0.086   2.740  0.00  0.00    -0.272 OA
ATOM      4  N   UNL     1       4.287  -2.079   1.607  0.00  0.00    -0.215 N 
ATOM      5  C   UNL     1       3.985  -2.465   0.362  0.00  0.00    +0.310 C 
ATOM      6  O   UNL     1       3.970  -3.624  -0.001  0.00  0.00    -0.252 OA
ATOM      7  N   UNL     1       3.701  -1.425  -0.444  0.00  0.00    -0.281 N 
ATOM      8  H   UNL     1       3.456  -1.469  -1.381  0.00  0.00    +0.152 HD
ENDROOT
BRANCH   1   9
ATOM      9  C   UNL     1       2.518   0.524   0.454  0.00  0.00    -0.015 A 
ATOM     10  C   UNL     1       1.331  -0.172   0.324  0.00  0.00    +0.006 A 
ATOM     11  C   UNL     1       0.124   0.499   0.395  0.00  0.00    +0.000 A 
ATOM     12  C   UNL     1       0.106   1.867   0.598  0.00  0.00    +0.000 A 
ATOM     13  C   UNL     1       1.293   2.562   0.729  0.00  0.00    +0.000 A 
ATOM     14  C   UNL     1       2.499   1.891   0.656  0.00  0.00    +0.006 A 
ENDBRANCH   1   9
BRANCH   1  15
ATOM     15  C   UNL     1       4.923   0.705  -0.188  0.00  0.00    +0.075 C 
BRANCH  15  19
ATOM     16  C   UNL     1       8.526  -1.530  -0.706  0.00  0.00    +0.000 A 
ATOM     17  C   UNL     1       7.606  -1.454  -1.735  0.00  0.00    +0.000 A 
ATOM     18  C   UNL     1       6.440  -0.731  -1.567  0.00  0.00    +0.004 A 
ATOM     19  C   UNL     1       6.194  -0.084  -0.371  0.00  0.00    -0.045 A 
ATOM     20  C   UNL     1       7.117  -0.155   0.656  0.00  0.00    +0.004 A 
ATOM     21  C   UNL     1       8.281  -0.882   0.490  0.00  0.00    +0.000 A 
ENDBRANCH  15  19
ENDBRANCH   1  15
BRANCH   4  22
ATOM     22  C   UNL     1       4.637  -2.999   2.692  0.00  0.00    +0.214 C 
BRANCH  22  23
ATOM     23  C   UNL     1       6.128  -3.220   2.702  0.00  0.00    +0.235 C 
ATOM     24  O   UNL     1       6.829  -2.663   1.884  0.00  0.00    -0.274 OA
ATOM     25  N   UNL     1       6.681  -4.036   3.621  0.00  0.00    -0.284 N 
ATOM     26  H   UNL     1       6.132  -4.420   4.322  0.00  0.00    +0.155 HD
BRANCH  25  27
ATOM     27  C   UNL     1       8.050  -4.329   3.563  0.00  0.00    +0.034 A 
ATOM     28  C   UNL     1       8.691  -4.417   2.334  0.00  0.00    +0.027 A 
ATOM     29  C   UNL     1      10.041  -4.700   2.279  0.00  0.00    +0.047 A 
ATOM     30  C   UNL     1      10.756  -4.907   3.450  0.00  0.00    +0.127 A 
ATOM     31  C   UNL     1      10.115  -4.825   4.677  0.00  0.00    +0.047 A 
ATOM     32  C   UNL     1       8.766  -4.536   4.735  0.00  0.00    +0.027 A 
BRANCH  30  33
ATOM     33  O   UNL     1      12.084  -5.192   3.394  0.00  0.00    -0.434 OA
BRANCH  33  34
ATOM     34  C   UNL     1      12.679  -5.261   2.096  0.00  0.00    +0.541 C 
ATOM     35  F   UNL     1      12.048  -6.261   1.347  0.00  0.00    -0.166 F 
ATOM     36  F   UNL     1      12.530  -4.030   1.449  0.00  0.00    -0.166 F 
ENDBRANCH  33  34
ENDBRANCH  30  33
ENDBRANCH  25  27
ENDBRANCH  22  23
ENDBRANCH   4  22
TORSDOF 8
