REMARK  Name = ZINC07000154
REMARK  4 active torsions:
REMARK  status: ('A' for Active; 'I' for Inactive)
REMARK    1  A    between atoms: C_1  and  C_2
REMARK    2  A    between atoms: C_8  and  C_11
REMARK    3  A    between atoms: N_13  and  C_14
REMARK    4  A    between atoms: C_19  and  O_20
REMARK                            x       y       z     vdW  Elec       q    Type
REMARK                         _______ _______ _______ _____ _____    ______ ____
ROOT
ATOM      1  C   UNL     1       2.334   5.243  -0.093  0.00  0.00    +0.270 C 
ATOM      2  O   UNL     1       1.274   5.835  -0.081  0.00  0.00    -0.268 OA
ATOM      3  N   UNL     1       2.356   3.898   0.001  0.00  0.00    -0.277 N 
ATOM      4  H   UNL     1       3.204   3.430   0.056  0.00  0.00    +0.155 HD
ENDROOT
BRANCH   1  11
ATOM      5  C   UNL     1       2.462  10.954  -0.696  0.00  0.00    +0.008 C 
ATOM      6  C   UNL     1       3.399   9.761  -0.898  0.00  0.00    -0.009 C 
ATOM      7  C   UNL     1       4.708  10.007  -0.143  0.00  0.00    +0.011 C 
ATOM      8  C   UNL     1       5.740   8.942  -0.528  0.00  0.00    +0.078 C 
ATOM      9  C   UNL     1       5.095   7.587  -0.402  0.00  0.00    +0.141 A 
ATOM     10  C   UNL     1       3.757   7.395  -0.326  0.00  0.00    +0.027 A 
ATOM     11  C   UNL     1       3.605   5.998  -0.213  0.00  0.00    +0.171 A 
ATOM     12  N   UNL     1       4.823   5.504  -0.241  0.00  0.00    -0.073 NA
ATOM     13  O   UNL     1       5.657   6.381  -0.347  0.00  0.00    -0.359 OA
ATOM     14  C   UNL     1       2.729   8.488  -0.361  0.00  0.00    +0.044 C 
ENDBRANCH   1  11
BRANCH   3  15
ATOM     15  C   UNL     1       1.155   3.178   0.019  0.00  0.00    +0.077 A 
ATOM     16  C   UNL     1       0.034   3.712   0.637  0.00  0.00    +0.047 A 
ATOM     17  C   UNL     1      -1.151   2.999   0.654  0.00  0.00    +0.043 A 
ATOM     18  C   UNL     1      -1.222   1.755   0.051  0.00  0.00    +0.023 A 
ATOM     19  C   UNL     1      -0.106   1.215  -0.561  0.00  0.00    +0.049 A 
ATOM     20  C   UNL     1       1.084   1.924  -0.582  0.00  0.00    +0.138 A 
ATOM     21 CL   UNL     1      -2.554   3.667   1.427  0.00  0.00    -0.083 Cl
BRANCH  20  22
ATOM     22  O   UNL     1       2.181   1.396  -1.189  0.00  0.00    -0.505 OA
ATOM     23  H   UNL     1       2.259   1.622  -2.126  0.00  0.00    +0.292 HD
ENDBRANCH  20  22
ENDBRANCH   3  15
TORSDOF 3
