REMARK  Name = ZINC05130273
REMARK  4 active torsions:
REMARK  status: ('A' for Active; 'I' for Inactive)
REMARK    1  A    between atoms: C_3  and  C_7
REMARK    2  A    between atoms: C_14  and  N_30
REMARK    3  A    between atoms: C_15  and  C_28
REMARK    4  A    between atoms: C_16  and  C_18
REMARK                            x       y       z     vdW  Elec       q    Type
REMARK                         _______ _______ _______ _____ _____    ______ ____
ROOT
ATOM      1  C   UNL     1       3.681   2.030  -0.023  0.00  0.00    +0.075 A 
ATOM      2  C   UNL     1       4.742   1.730  -0.810  0.00  0.00    +0.054 A 
ATOM      3  C   UNL     1       5.782   2.628  -0.501  0.00  0.00    +0.245 A 
ATOM      4  N   UNL     1       5.364   3.435   0.432  0.00  0.00    -0.135 NA
ATOM      5  N   UNL     1       4.042   3.092   0.757  0.00  0.00    -0.273 N 
ATOM      6  H   UNL     1       3.485   3.531   1.418  0.00  0.00    +0.189 HD
ATOM      7  O   UNL     1       6.989   2.577  -1.129  0.00  0.00    -0.421 OA
ATOM      8  C   UNL     1       7.262   1.479  -1.861  0.00  0.00    +0.201 C 
ATOM      9  C   UNL     1       6.347   0.557  -2.228  0.00  0.00    +0.098 C 
ATOM     10  C   UNL     1       4.888   0.656  -1.856  0.00  0.00    +0.103 C 
ENDROOT
BRANCH  10  11
ATOM     11  C   UNL     1       4.077   1.017  -3.073  0.00  0.00    -0.013 A 
ATOM     12  C   UNL     1       4.350   2.183  -3.763  0.00  0.00    +0.055 A 
ATOM     13  C   UNL     1       3.606   2.518  -4.883  0.00  0.00    +0.167 A 
ATOM     14  C   UNL     1       2.582   1.675  -5.311  0.00  0.00    +0.168 A 
ATOM     15  C   UNL     1       2.314   0.508  -4.616  0.00  0.00    +0.069 A 
ATOM     16  C   UNL     1       3.064   0.178  -3.501  0.00  0.00    +0.049 A 
ATOM     17 CL   UNL     1       2.730  -1.289  -2.635  0.00  0.00    -0.083 Cl
ATOM     18  O   UNL     1       2.005   2.220  -6.422  0.00  0.00    -0.453 OA
ATOM     19  C   UNL     1       2.414   3.601  -6.429  0.00  0.00    +0.466 C 
ATOM     20  O   UNL     1       3.670   3.590  -5.725  0.00  0.00    -0.453 OA
ENDBRANCH  10  11
BRANCH   1  23
ATOM     21  C   UNL     1      -0.017   1.379   0.010  0.00  0.00    +0.020 A 
ATOM     22  C   UNL     1       1.181   2.072   0.002  0.00  0.00    +0.013 A 
ATOM     23  C   UNL     1       2.372   1.339  -0.013  0.00  0.00    +0.018 A 
ATOM     24  C   UNL     1       2.306  -0.054  -0.020  0.00  0.00    +0.120 A 
ATOM     25  N   UNL     1       1.141  -0.669  -0.013  0.00  0.00    -0.263 NA
ATOM     26  C   UNL     1       0.002  -0.004   0.002  0.00  0.00    +0.111 A 
ENDBRANCH   1  23
BRANCH   8  27
ATOM     27  N   UNL     1       8.560   1.285  -2.262  0.00  0.00    -0.328 N 
ATOM     28  H   UNL     1       9.244   1.928  -2.017  0.00  0.00    +0.145 HD
ATOM     29  H   UNL     1       8.793   0.506  -2.790  0.00  0.00    +0.145 HD
ENDBRANCH   8  27
BRANCH   9  30
ATOM     30  C   UNL     1       6.780  -0.565  -3.005  0.00  0.00    +0.101 C 
ATOM     31  N   UNL     1       7.124  -1.455  -3.621  0.00  0.00    -0.191 NA
ENDBRANCH   9  30
TORSDOF 4
