REMARK  Name = ZINC14479338
REMARK  10 active torsions:
REMARK  status: ('A' for Active; 'I' for Inactive)
REMARK    1  A    between atoms: C_1  and  C_2
REMARK    2  A    between atoms: C_4  and  C_38
REMARK    3  A    between atoms: C_6  and  N_8
REMARK    4  A    between atoms: N_8  and  S_9
REMARK    5  A    between atoms: S_9  and  C_12
REMARK    6  A    between atoms: C_25  and  C_28
REMARK    7  A    between atoms: C_31  and  O_36
REMARK    8  A    between atoms: C_32  and  O_34
REMARK    9  A    between atoms: O_34  and  C_35
REMARK   10  A    between atoms: O_36  and  C_37
REMARK                            x       y       z     vdW  Elec       q    Type
REMARK                         _______ _______ _______ _____ _____    ______ ____
ROOT
ATOM      1  C   UNL     1      -0.964   2.532   1.772  0.00  0.00    +0.109 A 
ATOM      2  C   UNL     1      -1.682   1.514   2.373  0.00  0.00    +0.030 A 
ATOM      3  C   UNL     1      -2.323   1.746   3.573  0.00  0.00    +0.025 A 
ATOM      4  C   UNL     1      -2.245   2.996   4.174  0.00  0.00    +0.031 A 
ATOM      5  C   UNL     1      -1.527   4.020   3.575  0.00  0.00    -0.018 A 
ATOM      6  C   UNL     1      -0.882   3.773   2.370  0.00  0.00    +0.034 A 
ATOM      7  C   UNL     1      -1.418   5.382   4.182  0.00  0.00    +0.049 C 
ATOM      8  C   UNL     1      -0.057   5.605   4.797  0.00  0.00    -0.023 C 
ATOM      9  C   UNL     1      -0.164   6.322   5.889  0.00  0.00    -0.030 C 
ATOM     10  C   UNL     1      -1.614   6.681   6.148  0.00  0.00    +0.033 C 
ATOM     11  C   UNL     1      -2.401   5.601   5.348  0.00  0.00    +0.029 C 
ATOM     12  C   UNL     1      -2.480   4.338   6.209  0.00  0.00    +0.105 C 
ATOM     13  N   UNL     1      -2.896   3.213   5.393  0.00  0.00    -0.336 N 
ATOM     14  H   UNL     1      -3.615   2.630   5.683  0.00  0.00    +0.147 HD
ENDROOT
BRANCH  12  15
ATOM     15  C   UNL     1      -1.120   4.032   6.783  0.00  0.00    -0.023 A 
ATOM     16  C   UNL     1      -0.237   3.236   6.079  0.00  0.00    +0.009 A 
ATOM     17  C   UNL     1       1.013   2.957   6.598  0.00  0.00    +0.050 A 
ATOM     18  C   UNL     1       1.380   3.469   7.833  0.00  0.00    +0.162 A 
ATOM     19  C   UNL     1       0.489   4.266   8.545  0.00  0.00    +0.162 A 
ATOM     20  C   UNL     1      -0.761   4.545   8.016  0.00  0.00    +0.055 A 
BRANCH  19  21
ATOM     21  O   UNL     1       0.844   4.770   9.757  0.00  0.00    -0.491 OA
ATOM     22  C   UNL     1      -0.121   5.581  10.430  0.00  0.00    +0.277 C 
ENDBRANCH  19  21
BRANCH  18  23
ATOM     23  O   UNL     1       2.607   3.192   8.348  0.00  0.00    -0.491 OA
ATOM     24  C   UNL     1       3.470   2.367   7.562  0.00  0.00    +0.277 C 
ENDBRANCH  18  23
ENDBRANCH  12  15
BRANCH   1  25
ATOM     25  S   UNL     1      -0.143   2.241   0.241  0.00  0.00    +0.072 S 
ATOM     26  O   UNL     1       0.007   0.833   0.121  0.00  0.00    -0.150 OA
ATOM     27  O   UNL     1       0.965   3.131   0.198  0.00  0.00    -0.150 OA
BRANCH  25  28
ATOM     28  N   UNL     1      -1.175   2.712  -0.966  0.00  0.00    -0.216 N 
ATOM     29  H   UNL     1      -1.522   2.056  -1.590  0.00  0.00    +0.174 HD
BRANCH  28  35
ATOM     30  C   UNL     1      -4.559   6.230  -0.400  0.00  0.00    +0.044 C 
ATOM     31  C   UNL     1      -3.180   5.787  -0.817  0.00  0.00    -0.048 A 
ATOM     32  C   UNL     1      -2.281   6.710  -1.318  0.00  0.00    +0.006 A 
ATOM     33  C   UNL     1      -1.015   6.308  -1.702  0.00  0.00    -0.048 A 
ATOM     34  C   UNL     1      -0.644   4.983  -1.587  0.00  0.00    +0.028 A 
ATOM     35  C   UNL     1      -1.546   4.053  -1.084  0.00  0.00    +0.049 A 
ATOM     36  C   UNL     1      -2.819   4.460  -0.704  0.00  0.00    +0.028 A 
ATOM     37  C   UNL     1      -0.038   7.318  -2.248  0.00  0.00    +0.044 C 
ENDBRANCH  28  35
ENDBRANCH  25  28
ENDBRANCH   1  25
TORSDOF 6
