REMARK  Name = ZINC45442454
REMARK  12 active torsions:
REMARK  status: ('A' for Active; 'I' for Inactive)
REMARK    1  A    between atoms: C_1  and  C_2
REMARK    2  A    between atoms: C_2  and  C_3
REMARK    3  A    between atoms: C_3  and  C_4
REMARK    4  A    between atoms: C_4  and  C_5
REMARK    5  A    between atoms: C_5  and  C_31
REMARK    6  A    between atoms: N_8  and  C_12
REMARK    7  A    between atoms: C_12  and  C_13
REMARK    8  A    between atoms: C_14  and  C_26
REMARK    9  A    between atoms: C_15  and  C_21
REMARK   10  A    between atoms: C_26  and  O_28
REMARK   11  A    between atoms: O_28  and  C_29
REMARK   12  A    between atoms: C_29  and  C_30
REMARK                            x       y       z     vdW  Elec       q    Type
REMARK                         _______ _______ _______ _____ _____    ______ ____
ROOT
ATOM      1  C   UNL     1      -5.794  -0.561   1.605  0.00  0.00    +0.169 C 
ENDROOT
BRANCH   1   2
ATOM      2  C   UNL     1      -5.242   0.835   1.743  0.00  0.00    +0.042 C 
ATOM      3  C   UNL     1      -5.797   1.842   1.035  0.00  0.00    +0.083 C 
ATOM      4  C   UNL     1      -5.211   3.229   1.204  0.00  0.00    +0.179 C 
ATOM      5  N   UNL     1      -4.077   3.366   2.133  0.00  0.00    -0.285 N 
ATOM      6  C   UNL     1      -3.633   2.264   2.770  0.00  0.00    +0.304 C 
ATOM      7  O   UNL     1      -2.697   2.366   3.539  0.00  0.00    -0.252 OA
ATOM      8  N   UNL     1      -4.192   1.061   2.587  0.00  0.00    -0.271 N 
ATOM      9  H   UNL     1      -3.659   4.228   2.283  0.00  0.00    +0.151 HD
ATOM     10  H   UNL     1      -3.829   0.308   3.078  0.00  0.00    +0.156 HD
BRANCH   4  11
ATOM     11  C   UNL     1      -4.761   3.712  -0.151  0.00  0.00    +0.130 A 
ATOM     12  C   UNL     1      -5.435   4.561  -0.948  0.00  0.00    +0.047 A 
ATOM     13  C   UNL     1      -4.654   4.738  -2.112  0.00  0.00    +0.041 A 
ATOM     14  C   UNL     1      -3.549   3.986  -1.958  0.00  0.00    +0.195 A 
ATOM     15  O   UNL     1      -3.616   3.372  -0.766  0.00  0.00    -0.466 OA
ENDBRANCH   4  11
BRANCH   3  16
ATOM     16  C   UNL     1      -6.887   1.610   0.164  0.00  0.00    +0.339 C 
ATOM     17  O   UNL     1      -6.699   1.513  -1.034  0.00  0.00    -0.245 OA
BRANCH  16  18
ATOM     18  O   UNL     1      -8.136   1.495   0.663  0.00  0.00    -0.462 OA
BRANCH  18  19
ATOM     19  C   UNL     1      -9.189   1.261  -0.274  0.00  0.00    +0.229 C 
ATOM     20  C   UNL     1     -10.521   1.160   0.472  0.00  0.00    +0.048 C 
ENDBRANCH  18  19
ENDBRANCH  16  18
ENDBRANCH   3  16
ENDBRANCH   1   2
BRANCH   1  24
ATOM     21  C   UNL     1      -3.032  -2.884   0.726  0.00  0.00    +0.138 C 
ATOM     22  C   UNL     1      -3.873  -2.134   1.740  0.00  0.00    +0.251 C 
ATOM     23  O   UNL     1      -3.760  -2.157   2.946  0.00  0.00    -0.272 OA
ATOM     24  N   UNL     1      -4.773  -1.434   1.020  0.00  0.00    -0.218 N 
ATOM     25  C   UNL     1      -4.619  -1.636  -0.293  0.00  0.00    +0.310 C 
ATOM     26  O   UNL     1      -5.313  -1.113  -1.143  0.00  0.00    -0.252 OA
ATOM     27  N   UNL     1      -3.610  -2.482  -0.569  0.00  0.00    -0.281 N 
ATOM     28  H   UNL     1      -3.320  -2.771  -1.448  0.00  0.00    +0.152 HD
BRANCH  21  29
ATOM     29  C   UNL     1      -3.160  -4.372   0.924  0.00  0.00    -0.015 A 
ATOM     30  C   UNL     1      -2.256  -5.042   1.727  0.00  0.00    +0.009 A 
ATOM     31  C   UNL     1      -2.372  -6.407   1.910  0.00  0.00    +0.039 A 
ATOM     32  C   UNL     1      -3.394  -7.104   1.289  0.00  0.00    +0.123 A 
ATOM     33  C   UNL     1      -4.300  -6.432   0.485  0.00  0.00    +0.039 A 
ATOM     34  C   UNL     1      -4.184  -5.066   0.307  0.00  0.00    +0.009 A 
ATOM     35  F   UNL     1      -3.509  -8.438   1.467  0.00  0.00    -0.205 F 
ENDBRANCH  21  29
BRANCH  21  36
ATOM     36  C   UNL     1      -1.567  -2.454   0.818  0.00  0.00    +0.040 C 
BRANCH  36  37
ATOM     37  C   UNL     1      -1.471  -0.934   0.666  0.00  0.00    +0.003 C 
BRANCH  37  39
ATOM     38  C   UNL     1       0.090   1.015   0.607  0.00  0.00    +0.004 C 
ATOM     39  C   UNL     1      -0.005  -0.504   0.758  0.00  0.00    -0.003 C 
ENDBRANCH  37  39
ENDBRANCH  36  37
ENDBRANCH  21  36
ENDBRANCH   1  24
TORSDOF 10
