REMARK  Name = ZINC41584931
REMARK  9 active torsions:
REMARK  status: ('A' for Active; 'I' for Inactive)
REMARK    1  A    between atoms: C_1  and  O_2
REMARK    2  A    between atoms: O_2  and  C_3
REMARK    3  A    between atoms: C_8  and  C_9
REMARK    4  A    between atoms: C_9  and  C_10
REMARK    5  A    between atoms: C_14  and  O_33
REMARK    6  A    between atoms: C_15  and  C_19
REMARK    7  A    between atoms: C_19  and  N_20
REMARK    8  A    between atoms: N_23  and  C_26
REMARK    9  A    between atoms: C_26  and  C_27
REMARK                            x       y       z     vdW  Elec       q    Type
REMARK                         _______ _______ _______ _____ _____    ______ ____
ROOT
ATOM      1  C   UNL     1       0.522  -3.000   1.397  0.00  0.00    +0.096 A 
ATOM      2  C   UNL     1       1.435  -2.101   2.107  0.00  0.00    +0.045 A 
ATOM      3  C   UNL     1       2.080  -0.911   1.760  0.00  0.00    +0.017 A 
ATOM      4  C   UNL     1       2.893  -0.290   2.664  0.00  0.00    +0.046 A 
ATOM      5  C   UNL     1       3.084  -0.834   3.932  0.00  0.00    +0.122 A 
ATOM      6  C   UNL     1       2.454  -2.011   4.293  0.00  0.00    +0.023 A 
ATOM      7  C   UNL     1       1.624  -2.655   3.385  0.00  0.00    +0.172 A 
ATOM      8  O   UNL     1       0.891  -3.785   3.439  0.00  0.00    -0.354 OA
ATOM      9  N   UNL     1       0.222  -3.969   2.207  0.00  0.00    -0.082 NA
ENDROOT
BRANCH   5  10
ATOM     10  O   UNL     1       3.896  -0.204   4.821  0.00  0.00    -0.506 OA
ATOM     11  H   UNL     1       3.441   0.441   5.380  0.00  0.00    +0.292 HD
ENDBRANCH   5  10
BRANCH   1  12
ATOM     12  C   UNL     1       0.018  -2.829  -0.013  0.00  0.00    +0.098 C 
BRANCH  12  18
ATOM     13  C   UNL     1      -1.200  -0.637   0.010  0.00  0.00    +0.124 A 
ATOM     14  C   UNL     1      -2.375   0.101   0.019  0.00  0.00    +0.046 A 
ATOM     15  C   UNL     1      -3.596  -0.545   0.027  0.00  0.00    +0.004 A 
ATOM     16  C   UNL     1      -3.648  -1.927   0.026  0.00  0.00    +0.001 A 
ATOM     17  C   UNL     1      -2.479  -2.665   0.017  0.00  0.00    +0.007 A 
ATOM     18  C   UNL     1      -1.255  -2.023   0.003  0.00  0.00    +0.000 A 
BRANCH  13  20
ATOM     19  C   UNL     1      -0.017   1.425   0.010  0.00  0.00    +0.277 C 
ATOM     20  O   UNL     1       0.002  -0.004   0.002  0.00  0.00    -0.495 OA
ENDBRANCH  13  20
ENDBRANCH  12  18
ENDBRANCH   1  12
BRANCH   6  21
ATOM     21  C   UNL     1       2.667  -2.593   5.666  0.00  0.00    -0.035 C 
BRANCH  21  22
ATOM     22  N   UNL     1       1.655  -2.058   6.587  0.00  0.00    +0.384 N 
ATOM     23  C   UNL     1       1.851  -0.610   6.742  0.00  0.00    -0.063 C 
ATOM     24  C   UNL     1       0.786  -0.049   7.687  0.00  0.00    +0.066 C 
ATOM     25  N   UNL     1       0.892  -0.718   8.991  0.00  0.00    -0.302 NA
ATOM     26  C   UNL     1       0.722  -2.171   8.849  0.00  0.00    +0.066 C 
ATOM     27  C   UNL     1       1.788  -2.714   7.895  0.00  0.00    -0.063 C 
ATOM     28  H   UNL     1       0.735  -2.234   6.215  0.00  0.00    -0.081 HD
BRANCH  25  29
ATOM     29  C   UNL     1      -0.079  -0.166   9.946  0.00  0.00    +0.119 C 
BRANCH  29  30
ATOM     30  C   UNL     1       0.217  -0.693  11.326  0.00  0.00    -0.033 A 
ATOM     31  C   UNL     1      -0.368  -1.868  11.757  0.00  0.00    +0.005 A 
ATOM     32  C   UNL     1      -0.096  -2.352  13.023  0.00  0.00    +0.000 A 
ATOM     33  C   UNL     1       0.762  -1.660  13.858  0.00  0.00    +0.000 A 
ATOM     34  C   UNL     1       1.348  -0.485  13.426  0.00  0.00    +0.000 A 
ATOM     35  C   UNL     1       1.079  -0.003  12.159  0.00  0.00    +0.005 A 
ENDBRANCH  29  30
ENDBRANCH  25  29
ENDBRANCH  21  22
ENDBRANCH   6  21
TORSDOF 8
