REMARK  Name = ZINC66396820
REMARK  12 active torsions:
REMARK  status: ('A' for Active; 'I' for Inactive)
REMARK    1  A    between atoms: C_1  and  C_2
REMARK    2  A    between atoms: C_2  and  C_3
REMARK    3  A    between atoms: C_3  and  C_4
REMARK    4  A    between atoms: C_4  and  C_6
REMARK    5  A    between atoms: C_4  and  N_23
REMARK    6  A    between atoms: N_8  and  C_9
REMARK    7  A    between atoms: C_9  and  C_11
REMARK    8  A    between atoms: C_9  and  C_13
REMARK    9  A    between atoms: C_16  and  C_19
REMARK   10  A    between atoms: C_19  and  C_20
REMARK   11  A    between atoms: C_19  and  C_21
REMARK   12  A    between atoms: C_19  and  C_22
REMARK                            x       y       z     vdW  Elec       q    Type
REMARK                         _______ _______ _______ _____ _____    ______ ____
ROOT
ATOM      1  C   UNL     1       1.334  -2.514  -2.561  0.00  0.00    +0.235 C 
ATOM      2  O   UNL     1       2.492  -2.873  -2.600  0.00  0.00    -0.274 OA
ATOM      3  N   UNL     1       0.579  -2.552  -3.677  0.00  0.00    -0.295 N 
ATOM      4  H   UNL     1      -0.347  -2.266  -3.646  0.00  0.00    +0.150 HD
ENDROOT
BRANCH   1   5
ATOM      5  C   UNL     1       0.739  -2.027  -1.265  0.00  0.00    +0.160 C 
BRANCH   5   6
ATOM      6  N   UNL     1       1.548  -2.511  -0.144  0.00  0.00    -0.288 N 
ATOM      7  C   UNL     1       2.849  -2.168  -0.055  0.00  0.00    +0.298 C 
ATOM      8  O   UNL     1       3.350  -1.458  -0.904  0.00  0.00    -0.253 OA
ATOM      9  N   UNL     1       3.594  -2.613   0.977  0.00  0.00    -0.313 N 
ATOM     10  H   UNL     1       1.149  -3.078   0.534  0.00  0.00    +0.151 HD
ATOM     11  H   UNL     1       3.194  -3.180   1.655  0.00  0.00    +0.146 HD
ATOM     12  H   UNL     1       4.529  -2.366   1.041  0.00  0.00    +0.146 HD
ENDBRANCH   5   6
BRANCH   5  13
ATOM     13  C   UNL     1       0.718  -0.497  -1.257  0.00  0.00    +0.031 C 
BRANCH  13  15
ATOM     14  C   UNL     1      -0.019   1.526   0.010  0.00  0.00    +0.004 C 
ATOM     15  C   UNL     1       0.002  -0.004   0.002  0.00  0.00    -0.001 C 
ENDBRANCH  13  15
ENDBRANCH   5  13
ENDBRANCH   1   5
BRANCH   3  16
ATOM     16  C   UNL     1       1.157  -3.026  -4.937  0.00  0.00    +0.207 C 
BRANCH  16  17
ATOM     17  C   UNL     1       0.398  -2.429  -6.094  0.00  0.00    -0.013 A 
ATOM     18  C   UNL     1      -0.977  -2.308  -6.029  0.00  0.00    +0.007 A 
ATOM     19  C   UNL     1      -1.673  -1.760  -7.091  0.00  0.00    +0.004 A 
ATOM     20  C   UNL     1      -0.994  -1.333  -8.216  0.00  0.00    -0.042 A 
ATOM     21  C   UNL     1       0.381  -1.453  -8.280  0.00  0.00    +0.004 A 
ATOM     22  C   UNL     1       1.078  -1.997  -7.218  0.00  0.00    +0.007 A 
BRANCH  20  23
ATOM     23  C   UNL     1      -1.753  -0.737  -9.374  0.00  0.00    -0.013 C 
ATOM     24  C   UNL     1      -2.507   0.508  -8.902  0.00  0.00    +0.015 C 
ATOM     25  C   UNL     1      -0.772  -0.350 -10.482  0.00  0.00    +0.015 C 
ATOM     26  C   UNL     1      -2.752  -1.764  -9.912  0.00  0.00    +0.015 C 
ENDBRANCH  20  23
ENDBRANCH  16  17
BRANCH  16  27
ATOM     27  C   UNL     1       1.068  -4.494  -4.997  0.00  0.00    +0.090 C 
ATOM     28  N   UNL     1       0.999  -5.627  -5.043  0.00  0.00    -0.194 NA
ENDBRANCH  16  27
ENDBRANCH   3  16
TORSDOF 8
