REMARK  Name = ZINC16475011
REMARK  12 active torsions:
REMARK  status: ('A' for Active; 'I' for Inactive)
REMARK    1  A    between atoms: C_1  and  C_2
REMARK    2  A    between atoms: C_2  and  C_3
REMARK    3  A    between atoms: C_3  and  C_4
REMARK    4  A    between atoms: C_4  and  N_5
REMARK    5  A    between atoms: N_5  and  C_6
REMARK    6  A    between atoms: C_7  and  N_22
REMARK    7  A    between atoms: N_8  and  C_15
REMARK    8  A    between atoms: C_15  and  C_16
REMARK    9  A    between atoms: C_23  and  C_25
REMARK   10  A    between atoms: C_25  and  N_67
REMARK   11  A    between atoms: C_27  and  C_34
REMARK   12  A    between atoms: C_30  and  C_33
REMARK                            x       y       z     vdW  Elec       q    Type
REMARK                         _______ _______ _______ _____ _____    ______ ____
ROOT
ATOM      1  C   UNL     1       0.227  -0.003  -0.029  0.00  0.00    +0.140 A 
ATOM      2  C   UNL     1       0.986  -0.588   0.964  0.00  0.00    +0.128 A 
ATOM      3  N   UNL     1       1.164  -1.952   0.957  0.00  0.00    -0.276 N 
ATOM      4  C   UNL     1       0.614  -2.705  -0.012  0.00  0.00    +0.331 A 
ATOM      5  O   UNL     1       0.788  -3.909  -0.003  0.00  0.00    -0.246 OA
ATOM      6  N   UNL     1      -0.124  -2.152  -0.990  0.00  0.00    -0.273 N 
ATOM      7  H   UNL     1      -0.522  -2.735  -1.698  0.00  0.00    +0.173 HD
ATOM      8  C   UNL     1      -0.334  -0.822  -1.027  0.00  0.00    +0.277 A 
ATOM      9  O   UNL     1      -1.005  -0.331  -1.919  0.00  0.00    -0.266 OA
ENDROOT
BRANCH   1  10
ATOM     10  N   UNL     1       0.020   1.393  -0.046  0.00  0.00    -0.266 N 
ATOM     11  C   UNL     1      -1.218   1.894   0.143  0.00  0.00    +0.203 C 
ATOM     12  O   UNL     1      -2.138   1.152   0.418  0.00  0.00    -0.277 OA
BRANCH  10  13
ATOM     13  C   UNL     1       1.150   2.297  -0.277  0.00  0.00    +0.114 C 
BRANCH  13  14
ATOM     14  C   UNL     1       1.217   2.661  -1.761  0.00  0.00    +0.019 C 
BRANCH  14  16
ATOM     15  C   UNL     1       2.464   3.970  -3.486  0.00  0.00    +0.004 C 
ATOM     16  C   UNL     1       2.397   3.606  -2.001  0.00  0.00    -0.002 C 
ENDBRANCH  14  16
ENDBRANCH  13  14
ENDBRANCH  10  13
BRANCH  11  17
ATOM     17  C   UNL     1      -1.458   3.376   0.014  0.00  0.00    +0.019 C 
BRANCH  17  25
ATOM     18  C   UNL     1      -3.106   5.112   0.383  0.00  0.00    -0.075 C 
ATOM     19  C   UNL     1      -4.559   5.368   0.787  0.00  0.00    -0.031 C 
ATOM     20  C   UNL     1      -5.491   4.769  -0.270  0.00  0.00    +0.003 C 
ATOM     21  C   UNL     1      -5.199   3.272  -0.407  0.00  0.00    -0.031 C 
ATOM     22  C   UNL     1      -3.727   3.076  -0.777  0.00  0.00    -0.075 C 
ATOM     23  C   UNL     1      -6.084   2.677  -1.504  0.00  0.00    +0.005 C 
ATOM     24  C   UNL     1      -4.803   6.875   0.889  0.00  0.00    +0.005 C 
ATOM     25  N   UNL     1      -2.883   3.653   0.292  0.00  0.00    +0.386 N 
ATOM     26  H   UNL     1      -3.138   3.221   1.187  0.00  0.00    -0.081 HD
ENDBRANCH  17  25
ENDBRANCH  11  17
ENDBRANCH   1  10
BRANCH   2  27
ATOM     27  N   UNL     1       1.553   0.183   1.950  0.00  0.00    -0.343 N 
ATOM     28  H   UNL     1       1.464   1.148   1.923  0.00  0.00    +0.144 HD
ATOM     29  H   UNL     1       2.042  -0.239   2.674  0.00  0.00    +0.144 HD
ENDBRANCH   2  27
BRANCH   3  30
ATOM     30  C   UNL     1       1.963  -2.587   2.008  0.00  0.00    +0.163 C 
BRANCH  30  31
ATOM     31  C   UNL     1       3.407  -2.641   1.578  0.00  0.00    -0.028 A 
ATOM     32  C   UNL     1       3.880  -3.739   0.884  0.00  0.00    +0.005 A 
ATOM     33  C   UNL     1       5.203  -3.787   0.485  0.00  0.00    +0.000 A 
ATOM     34  C   UNL     1       6.055  -2.741   0.790  0.00  0.00    +0.000 A 
ATOM     35  C   UNL     1       5.582  -1.646   1.489  0.00  0.00    +0.000 A 
ATOM     36  C   UNL     1       4.258  -1.596   1.883  0.00  0.00    +0.005 A 
ENDBRANCH  30  31
ENDBRANCH   3  30
TORSDOF 9
