REMARK  Name = ZINC20562048
REMARK  13 active torsions:
REMARK  status: ('A' for Active; 'I' for Inactive)
REMARK    1  A    between atoms: C_1  and  C_2
REMARK    2  A    between atoms: C_2  and  C_3
REMARK    3  A    between atoms: C_3  and  C_5
REMARK    4  A    between atoms: C_3  and  O_6
REMARK    5  A    between atoms: O_6  and  C_7
REMARK    6  A    between atoms: C_7  and  C_9
REMARK    7  A    between atoms: C_10  and  C_35
REMARK    8  A    between atoms: C_14  and  C_16
REMARK    9  A    between atoms: C_20  and  O_22
REMARK   10  A    between atoms: C_25  and  C_31
REMARK   11  A    between atoms: C_27  and  C_30
REMARK   12  A    between atoms: C_31  and  O_33
REMARK   13  A    between atoms: O_33  and  C_34
REMARK                            x       y       z     vdW  Elec       q    Type
REMARK                         _______ _______ _______ _____ _____    ______ ____
ROOT
ATOM      1  C   UNL     1      -0.337  -2.745   0.259  0.00  0.00    +0.065 C 
ATOM      2  C   UNL     1      -1.287  -1.978  -0.303  0.00  0.00    +0.016 C 
ATOM      3  N   UNL     1      -1.032  -0.668  -0.601  0.00  0.00    -0.321 N 
ATOM      4  C   UNL     1       0.002  -0.004   0.002  0.00  0.00    +0.016 C 
ATOM      5  C   UNL     1       1.013  -0.689   0.577  0.00  0.00    +0.025 C 
ATOM      6  C   UNL     1       1.026  -2.197   0.566  0.00  0.00    +0.092 C 
ATOM      7  C   UNL     1       2.082  -0.020   1.198  0.00  0.00    +0.176 C 
ATOM      8  O   UNL     1       2.968  -0.666   1.721  0.00  0.00    -0.291 OA
ATOM      9  C   UNL     1       2.150   1.483   1.225  0.00  0.00    +0.171 C 
ATOM     10  C   UNL     1       1.416   2.038  -0.001  0.00  0.00    +0.013 C 
ATOM     11  C   UNL     1      -0.018   1.504   0.010  0.00  0.00    +0.055 C 
ATOM     12  C   UNL     1       2.126   1.578  -1.276  0.00  0.00    +0.009 C 
ATOM     13  C   UNL     1      -2.641  -2.565  -0.606  0.00  0.00    +0.061 C 
ATOM     14  H   UNL     1      -1.662  -0.138  -1.331  0.00  0.00    +0.152 HD
ENDROOT
BRANCH   6  15
ATOM     15  C   UNL     1       1.999  -2.675  -0.482  0.00  0.00    -0.032 A 
ATOM     16  C   UNL     1       1.796  -2.353  -1.811  0.00  0.00    +0.005 A 
ATOM     17  C   UNL     1       2.687  -2.789  -2.774  0.00  0.00    +0.004 A 
ATOM     18  C   UNL     1       3.783  -3.547  -2.410  0.00  0.00    +0.045 A 
ATOM     19  C   UNL     1       3.988  -3.872  -1.077  0.00  0.00    +0.117 A 
ATOM     20  C   UNL     1       3.095  -3.429  -0.112  0.00  0.00    +0.050 A 
BRANCH  19  21
ATOM     21  O   UNL     1       5.066  -4.618  -0.717  0.00  0.00    -0.507 OA
ATOM     22  H   UNL     1       5.228  -4.875   0.341  0.00  0.00    +0.292 HD
ENDBRANCH  19  21
ENDBRANCH   6  15
BRANCH   1  23
ATOM     23  C   UNL     1      -0.627  -4.095   0.565  0.00  0.00    +0.338 C 
ATOM     24  O   UNL     1      -1.728  -4.551   0.320  0.00  0.00    -0.245 OA
BRANCH  23  25
ATOM     25  O   UNL     1       0.317  -4.877   1.129  0.00  0.00    -0.458 OA
BRANCH  25  26
ATOM     26  C   UNL     1      -0.045  -6.230   1.411  0.00  0.00    +0.173 C 
ATOM     27  C   UNL     1      -0.629  -6.318   2.823  0.00  0.00    +0.052 C 
BRANCH  26  29
ATOM     28  C   UNL     1       1.707  -7.131  -0.125  0.00  0.00    +0.007 C 
ATOM     29  C   UNL     1       1.196  -7.121   1.317  0.00  0.00    +0.041 C 
ENDBRANCH  26  29
ENDBRANCH  25  26
ENDBRANCH  23  25
ENDBRANCH   1  23
BRANCH   9  30
ATOM     30  C   UNL     1       3.591   1.924   1.195  0.00  0.00    +0.318 C 
ATOM     31  O   UNL     1       3.991   2.619   0.291  0.00  0.00    -0.250 OA
BRANCH  30  32
ATOM     32  O   UNL     1       4.429   1.545   2.173  0.00  0.00    -0.467 OA
ATOM     33  C   UNL     1       5.802   2.007   2.079  0.00  0.00    +0.280 C 
ENDBRANCH  30  32
ENDBRANCH   9  30
TORSDOF 8
