REMARK  Name = ZINC07719341
REMARK  4 active torsions:
REMARK  status: ('A' for Active; 'I' for Inactive)
REMARK    1  A    between atoms: C_9  and  C_11
REMARK    2  A    between atoms: C_13  and  C_17
REMARK    3  A    between atoms: C_17  and  C_19
REMARK    4  A    between atoms: C_24  and  O_25
REMARK                            x       y       z     vdW  Elec       q    Type
REMARK                         _______ _______ _______ _____ _____    ______ ____
ROOT
ATOM      1  C   UNL     1      -3.494   2.342  -0.177  0.00  0.00    +0.083 A 
ATOM      2  C   UNL     1      -2.592   1.336  -0.019  0.00  0.00    +0.042 A 
ATOM      3  C   UNL     1      -1.303   1.917  -0.104  0.00  0.00    +0.040 A 
ATOM      4  C   UNL     1      -1.483   3.272  -0.308  0.00  0.00    +0.095 A 
ATOM      5  N   UNL     1      -2.805   3.520  -0.356  0.00  0.00    -0.358 N 
ATOM      6  H   UNL     1      -3.208   4.391  -0.492  0.00  0.00    +0.165 HD
ENDROOT
BRANCH   1  15
ATOM      7  C   UNL     1      -9.493   2.353  -0.197  0.00  0.00    +0.002 A 
ATOM      8  C   UNL     1      -9.313   0.994   0.013  0.00  0.00    +0.002 A 
ATOM      9  C   UNL     1      -8.058   0.462   0.099  0.00  0.00    +0.030 A 
ATOM     10  C   UNL     1      -6.939   1.292  -0.026  0.00  0.00    +0.090 A 
ATOM     11  C   UNL     1      -7.122   2.670  -0.239  0.00  0.00    +0.067 A 
ATOM     12  C   UNL     1      -8.405   3.192  -0.323  0.00  0.00    +0.028 A 
ATOM     13  N   UNL     1      -5.856   3.220  -0.320  0.00  0.00    -0.337 N 
ATOM     14  H   UNL     1      -5.636   4.184  -0.468  0.00  0.00    +0.167 HD
ATOM     15  C   UNL     1      -4.959   2.196  -0.159  0.00  0.00    +0.156 A 
ATOM     16  N   UNL     1      -5.604   1.065   0.009  0.00  0.00    -0.226 NA
ENDBRANCH   1  15
BRANCH   3  17
ATOM     17  C   UNL     1      -0.014   1.212   0.009  0.00  0.00    +0.198 C 
ATOM     18  O   UNL     1       0.009  -0.001   0.098  0.00  0.00    -0.286 OA
BRANCH  17  19
ATOM     19  C   UNL     1       1.247   1.977   0.008  0.00  0.00    +0.066 A 
ATOM     20  C   UNL     1       2.055   1.999  -1.133  0.00  0.00    +0.053 A 
ATOM     21  C   UNL     1       3.232   2.719  -1.128  0.00  0.00    +0.124 A 
ATOM     22  C   UNL     1       3.621   3.414   0.008  0.00  0.00    +0.042 A 
ATOM     23  C   UNL     1       2.834   3.396   1.142  0.00  0.00    +0.049 A 
ATOM     24  C   UNL     1       1.646   2.680   1.153  0.00  0.00    +0.128 A 
ATOM     25  F   UNL     1       4.010   2.744  -2.232  0.00  0.00    -0.205 F 
BRANCH  24  26
ATOM     26  O   UNL     1       0.872   2.661   2.268  0.00  0.00    -0.506 OA
ATOM     27  H   UNL     1       1.081   1.942   2.879  0.00  0.00    +0.292 HD
ENDBRANCH  24  26
ENDBRANCH  17  19
ENDBRANCH   3  17
TORSDOF 4
