REMARK  Name = ZINC14959993
REMARK  5 active torsions:
REMARK  status: ('A' for Active; 'I' for Inactive)
REMARK    1  A    between atoms: N_9  and  C_11
REMARK    2  A    between atoms: C_12  and  C_16
REMARK    3  A    between atoms: C_16  and  N_17
REMARK    4  A    between atoms: C_18  and  C_20
REMARK    5  A    between atoms: C_21  and  C_25
REMARK                            x       y       z     vdW  Elec       q    Type
REMARK                         _______ _______ _______ _____ _____    ______ ____
ROOT
ATOM      1  C   UNL     1      -0.042   3.797  -0.009  0.00  0.00    +0.104 A 
ATOM      2  C   UNL     1       1.149   3.095  -0.159  0.00  0.00    +0.008 A 
ATOM      3  C   UNL     1       1.123   1.712  -0.132  0.00  0.00    +0.010 A 
ATOM      4  C   UNL     1      -0.099   1.076   0.044  0.00  0.00    +0.018 A 
ATOM      5  C   UNL     1      -1.243   1.836   0.181  0.00  0.00    +0.084 A 
ATOM      6  N   UNL     1      -1.254   3.196   0.165  0.00  0.00    -0.349 N 
ATOM      7  H   UNL     1      -2.120   3.736   0.278  0.00  0.00    +0.167 HD
ENDROOT
BRANCH   1  16
ATOM      8  C   UNL     1      -1.018   9.970  -1.139  0.00  0.00    +0.000 A 
ATOM      9  C   UNL     1      -1.306   9.259  -2.289  0.00  0.00    +0.000 A 
ATOM     10  C   UNL     1      -1.232   7.881  -2.282  0.00  0.00    +0.005 A 
ATOM     11  C   UNL     1      -0.870   7.204  -1.127  0.00  0.00    -0.027 A 
ATOM     12  C   UNL     1      -0.579   7.913   0.019  0.00  0.00    -0.041 A 
ATOM     13  C   UNL     1      -0.656   9.298   0.011  0.00  0.00    +0.004 A 
ATOM     14  C   UNL     1      -0.170   7.223   1.294  0.00  0.00    +0.054 C 
ATOM     15  C   UNL     1      -0.542   5.742   1.229  0.00  0.00    +0.111 C 
ATOM     16  N   UNL     1      -0.029   5.187  -0.034  0.00  0.00    -0.312 N 
ATOM     17  C   UNL     1      -0.807   5.699  -1.167  0.00  0.00    +0.141 C 
ENDBRANCH   1  16
BRANCH   2  18
ATOM     18  C   UNL     1       2.451   3.830  -0.349  0.00  0.00    +0.143 C 
BRANCH  18  19
ATOM     19  N   UNL     1       2.901   4.366   0.938  0.00  0.00    -0.306 N 
ATOM     20  C   UNL     1       4.051   5.065   1.012  0.00  0.00    +0.266 C 
ATOM     21  O   UNL     1       4.715   5.251   0.010  0.00  0.00    -0.268 OA
ATOM     22  H   UNL     1       2.372   4.217   1.737  0.00  0.00    +0.149 HD
BRANCH  20  23
ATOM     23  C   UNL     1       4.504   5.604   2.307  0.00  0.00    +0.167 A 
ATOM     24  C   UNL     1       5.639   6.321   2.532  0.00  0.00    +0.140 A 
ATOM     25  O   UNL     1       5.663   6.615   3.842  0.00  0.00    -0.446 OA
ATOM     26  C   UNL     1       4.572   6.083   4.411  0.00  0.00    +0.308 A 
ATOM     27  N   UNL     1       3.869   5.475   3.503  0.00  0.00    -0.211 NA
BRANCH  24  28
ATOM     28  C   UNL     1       6.671   6.712   1.506  0.00  0.00    +0.058 C 
ATOM     29  C   UNL     1       7.970   7.340   2.014  0.00  0.00    +0.012 C 
ATOM     30  C   UNL     1       6.930   8.206   1.298  0.00  0.00    +0.012 C 
ENDBRANCH  24  28
ENDBRANCH  20  23
ENDBRANCH  18  19
ENDBRANCH   2  18
TORSDOF 5
