REMARK  Name = ZINC08795891
REMARK  7 active torsions:
REMARK  status: ('A' for Active; 'I' for Inactive)
REMARK    1  A    between atoms: C_7  and  S_20
REMARK    2  A    between atoms: N_9  and  C_10
REMARK    3  A    between atoms: C_10  and  C_11
REMARK    4  A    between atoms: C_14  and  N_17
REMARK    5  A    between atoms: S_20  and  C_21
REMARK    6  A    between atoms: C_21  and  C_22
REMARK    7  A    between atoms: N_24  and  C_25
REMARK                            x       y       z     vdW  Elec       q    Type
REMARK                         _______ _______ _______ _____ _____    ______ ____
ROOT
ATOM      1  C   UNL     1       6.430  -9.035   0.626  0.00  0.00    +0.001 A 
ATOM      2  C   UNL     1       7.814  -9.121   0.676  0.00  0.00    +0.002 A 
ATOM      3  C   UNL     1       8.591  -7.984   0.622  0.00  0.00    +0.026 A 
ATOM      4  C   UNL     1       7.983  -6.737   0.515  0.00  0.00    +0.050 A 
ATOM      5  C   UNL     1       6.580  -6.656   0.470  0.00  0.00    +0.013 A 
ATOM      6  C   UNL     1       5.813  -7.821   0.521  0.00  0.00    +0.011 A 
ATOM      7  C   UNL     1       6.256  -5.229   0.354  0.00  0.00    +0.034 A 
ATOM      8  C   UNL     1       7.426  -4.561   0.346  0.00  0.00    +0.102 A 
ATOM      9  N   UNL     1       8.470  -5.451   0.442  0.00  0.00    -0.341 N 
ENDROOT
BRANCH   9  10
ATOM     10  C   UNL     1       9.889  -5.086   0.463  0.00  0.00    +0.157 C 
BRANCH  10  11
ATOM     11  C   UNL     1      10.452  -5.178  -0.932  0.00  0.00    -0.028 A 
ATOM     12  C   UNL     1      11.008  -6.364  -1.375  0.00  0.00    +0.007 A 
ATOM     13  C   UNL     1      11.520  -6.450  -2.656  0.00  0.00    +0.033 A 
ATOM     14  C   UNL     1      11.486  -5.348  -3.490  0.00  0.00    +0.126 A 
ATOM     15  C   UNL     1      10.935  -4.161  -3.045  0.00  0.00    +0.033 A 
ATOM     16  C   UNL     1      10.419  -4.076  -1.765  0.00  0.00    +0.007 A 
BRANCH  14  17
ATOM     17  N   UNL     1      12.038  -5.439  -4.860  0.00  0.00    +0.056 N 
ATOM     18  O   UNL     1      12.008  -4.468  -5.595  0.00  0.00    -0.126 OA
ATOM     19  O   UNL     1      12.524  -6.485  -5.253  0.00  0.00    -0.126 OA
ENDBRANCH  14  17
ENDBRANCH  10  11
ENDBRANCH   9  10
BRANCH   7  20
ATOM     20  S   UNL     1       4.645  -4.523   0.254  0.00  0.00    -0.114 S 
BRANCH  20  21
ATOM     21  C   UNL     1       4.953  -2.739   0.140  0.00  0.00    +0.170 C 
BRANCH  21  22
ATOM     22  C   UNL     1       3.639  -2.007   0.048  0.00  0.00    +0.227 C 
ATOM     23  O   UNL     1       2.597  -2.628   0.057  0.00  0.00    -0.275 OA
ATOM     24  N   UNL     1       3.621  -0.663  -0.046  0.00  0.00    -0.285 N 
ATOM     25  H   UNL     1       4.453  -0.172  -0.131  0.00  0.00    +0.155 HD
BRANCH  24  26
ATOM     26  C   UNL     1       2.401   0.025  -0.021  0.00  0.00    +0.037 A 
ATOM     27  C   UNL     1       1.346  -0.460   0.740  0.00  0.00    +0.027 A 
ATOM     28  C   UNL     1       0.142   0.217   0.764  0.00  0.00    +0.051 A 
ATOM     29  C   UNL     1      -0.016   1.384   0.030  0.00  0.00    +0.162 A 
ATOM     30  C   UNL     1       1.040   1.873  -0.730  0.00  0.00    +0.164 A 
ATOM     31  C   UNL     1       2.247   1.192  -0.756  0.00  0.00    +0.072 A 
ATOM     32  O   UNL     1       0.906   3.021  -1.451  0.00  0.00    -0.485 OA
ATOM     33  C   UNL     1      -0.429   3.473  -1.699  0.00  0.00    +0.270 C 
ATOM     34  C   UNL     1      -1.216   3.395  -0.384  0.00  0.00    +0.270 C 
ATOM     35  O   UNL     1      -1.213   2.033   0.059  0.00  0.00    -0.485 OA
ENDBRANCH  24  26
ENDBRANCH  21  22
ENDBRANCH  20  21
ENDBRANCH   7  20
TORSDOF 7
