REMARK  Name = ZINC39690435
REMARK  5 active torsions:
REMARK  status: ('A' for Active; 'I' for Inactive)
REMARK    1  A    between atoms: N_4  and  C_6
REMARK    2  A    between atoms: C_9  and  C_12
REMARK    3  A    between atoms: C_12  and  N_13
REMARK    4  A    between atoms: C_14  and  C_16
REMARK    5  A    between atoms: C_27  and  C_29
REMARK                            x       y       z     vdW  Elec       q    Type
REMARK                         _______ _______ _______ _____ _____    ______ ____
ROOT
ATOM      1  C   UNL     1       3.823  -8.023   2.971  0.00  0.00    +0.100 C 
ATOM      2  C   UNL     1       2.491  -7.895   3.742  0.00  0.00    +0.121 C 
ATOM      3  N   UNL     1       1.859  -9.230   3.622  0.00  0.00    -0.296 N 
ATOM      4  C   UNL     1       2.985 -10.184   3.758  0.00  0.00    +0.115 C 
ATOM      5  C   UNL     1       4.146  -9.526   2.986  0.00  0.00    -0.004 C 
ATOM      6  C   UNL     1       4.205 -10.069   1.562  0.00  0.00    -0.010 C 
ATOM      7  C   UNL     1       4.583 -11.552   1.601  0.00  0.00    -0.082 C 
ATOM      8  N   UNL     1       5.885 -11.710   2.261  0.00  0.00    +0.379 N 
ATOM      9  C   UNL     1       5.794 -11.272   3.659  0.00  0.00    -0.082 C 
ATOM     10  C   UNL     1       5.467  -9.777   3.707  0.00  0.00    -0.010 C 
ATOM     11  C   UNL     1       0.554  -9.512   3.432  0.00  0.00    +0.252 C 
ATOM     12  O   UNL     1       0.188 -10.669   3.353  0.00  0.00    -0.270 OA
ATOM     13  H   UNL     1       6.160 -12.681   2.232  0.00  0.00    -0.086 HD
ATOM     14  H   UNL     1       6.574 -11.153   1.779  0.00  0.00    -0.086 HD
ENDROOT
BRANCH  11  15
ATOM     15  C   UNL     1      -0.428  -8.417   3.318  0.00  0.00    +0.108 A 
ATOM     16  C   UNL     1      -0.733  -7.872   2.066  0.00  0.00    +0.138 A 
ATOM     17  C   UNL     1      -1.655  -6.847   1.968  0.00  0.00    +0.041 A 
ATOM     18  C   UNL     1      -2.276  -6.360   3.103  0.00  0.00    +0.026 A 
ATOM     19  C   UNL     1      -1.982  -6.893   4.346  0.00  0.00    +0.077 A 
ATOM     20  C   UNL     1      -1.066  -7.923   4.461  0.00  0.00    +0.156 A 
ATOM     21  F   UNL     1      -0.783  -8.447   5.674  0.00  0.00    -0.203 F 
ATOM     22 CL   UNL     1      -2.769  -6.272   5.763  0.00  0.00    -0.081 Cl
ATOM     23  F   UNL     1      -0.126  -8.345   0.956  0.00  0.00    -0.205 F 
ENDBRANCH  11  15
BRANCH   1  25
ATOM     24  N   UNL     1       4.714  -7.024   0.891  0.00  0.00    -0.311 N 
ATOM     25  C   UNL     1       3.659  -7.536   1.554  0.00  0.00    +0.218 C 
ATOM     26  O   UNL     1       2.576  -7.606   1.011  0.00  0.00    -0.275 OA
ATOM     27  H   UNL     1       5.579  -6.968   1.325  0.00  0.00    +0.149 HD
BRANCH  24  28
ATOM     28  C   UNL     1       4.553  -6.550  -0.487  0.00  0.00    +0.139 C 
BRANCH  28  32
ATOM     29  C   UNL     1       8.294  -5.072  -1.929  0.00  0.00    +0.046 A 
ATOM     30  C   UNL     1       7.961  -6.408  -2.103  0.00  0.00    +0.026 A 
ATOM     31  C   UNL     1       6.752  -6.883  -1.636  0.00  0.00    +0.007 A 
ATOM     32  C   UNL     1       5.872  -6.029  -0.995  0.00  0.00    -0.030 A 
ATOM     33  C   UNL     1       6.201  -4.697  -0.821  0.00  0.00    +0.007 A 
ATOM     34  C   UNL     1       7.412  -4.218  -1.282  0.00  0.00    +0.026 A 
BRANCH  29  38
ATOM     35  C   UNL     1      11.185  -3.224  -2.863  0.00  0.00    +0.019 A 
ATOM     36  C   UNL     1      11.505  -4.508  -3.348  0.00  0.00    +0.019 A 
ATOM     37  C   UNL     1      10.472  -5.322  -3.053  0.00  0.00    +0.091 A 
ATOM     38  N   UNL     1       9.522  -4.587  -2.402  0.00  0.00    -0.323 N 
ATOM     39  C   UNL     1       9.967  -3.300  -2.290  0.00  0.00    +0.091 A 
ENDBRANCH  29  38
ENDBRANCH  28  32
ENDBRANCH  24  28
ENDBRANCH   1  25
TORSDOF 5
