REMARK  Name = ZINC58993407
REMARK  12 active torsions:
REMARK  status: ('A' for Active; 'I' for Inactive)
REMARK    1  A    between atoms: C_1  and  C_2
REMARK    2  A    between atoms: C_2  and  N_3
REMARK    3  A    between atoms: N_3  and  C_4
REMARK    4  A    between atoms: N_3  and  C_6
REMARK    5  A    between atoms: C_4  and  C_5
REMARK    6  A    between atoms: C_9  and  N_12
REMARK    7  A    between atoms: C_13  and  C_15
REMARK    8  A    between atoms: C_15  and  S_16
REMARK    9  A    between atoms: S_16  and  C_17
REMARK   10  A    between atoms: N_22  and  N_23
REMARK   11  A    between atoms: C_24  and  C_25
REMARK   12  A    between atoms: C_28  and  N_31
REMARK                            x       y       z     vdW  Elec       q    Type
REMARK                         _______ _______ _______ _____ _____    ______ ____
ROOT
ATOM      1  C   UNL     1      -2.252 -10.396   3.310  0.00  0.00    +0.211 A 
ATOM      2  N   UNL     1      -2.675 -11.206   4.287  0.00  0.00    -0.186 NA
ATOM      3  C   UNL     1      -2.344 -12.449   4.006  0.00  0.00    +0.232 A 
ATOM      4  N   UNL     1      -1.693 -12.450   2.823  0.00  0.00    -0.245 N 
ATOM      5  N   UNL     1      -1.651 -11.114   2.391  0.00  0.00    -0.144 NA
ATOM      6  N   UNL     1      -2.616 -13.559   4.785  0.00  0.00    -0.205 N 
ATOM      7  H   UNL     1      -2.330 -14.438   4.492  0.00  0.00    +0.177 HD
ATOM      8  H   UNL     1      -1.329 -13.221   2.361  0.00  0.00    +0.192 HD
ENDROOT
BRANCH   6   9
ATOM      9  N   UNL     1      -3.304 -13.413   5.996  0.00  0.00    -0.188 NA
ATOM     10  C   UNL     1      -3.559 -14.454   6.728  0.00  0.00    +0.138 C 
BRANCH  10  11
ATOM     11  C   UNL     1      -4.284 -14.300   8.003  0.00  0.00    -0.005 A 
ATOM     12  C   UNL     1      -4.702 -13.036   8.424  0.00  0.00    +0.012 A 
ATOM     13  C   UNL     1      -5.379 -12.899   9.618  0.00  0.00    +0.033 A 
ATOM     14  C   UNL     1      -5.644 -14.011  10.398  0.00  0.00    +0.126 A 
ATOM     15  C   UNL     1      -5.232 -15.267   9.987  0.00  0.00    +0.033 A 
ATOM     16  C   UNL     1      -4.560 -15.419   8.792  0.00  0.00    +0.012 A 
BRANCH  14  17
ATOM     17  N   UNL     1      -6.371 -13.857  11.679  0.00  0.00    +0.056 N 
ATOM     18  O   UNL     1      -6.732 -12.761  12.040  0.00  0.00    -0.126 OA
ATOM     19  O   UNL     1      -6.604 -14.826  12.362  0.00  0.00    -0.126 OA
ENDBRANCH  14  17
ENDBRANCH  10  11
ENDBRANCH   6   9
BRANCH   1  20
ATOM     20  S   UNL     1      -2.473  -8.649   3.262  0.00  0.00    -0.075 S 
BRANCH  20  21
ATOM     21  C   UNL     1      -1.694  -8.151   1.701  0.00  0.00    +0.173 C 
BRANCH  21  23
ATOM     22  N   UNL     1      -1.303  -6.060   0.439  0.00  0.00    -0.285 N 
ATOM     23  C   UNL     1      -1.814  -6.658   1.533  0.00  0.00    +0.227 C 
ATOM     24  O   UNL     1      -2.370  -5.995   2.383  0.00  0.00    -0.275 OA
ATOM     25  H   UNL     1      -0.927  -6.596  -0.276  0.00  0.00    +0.155 HD
BRANCH  22  29
ATOM     26  C   UNL     1      -1.340  -1.905   0.128  0.00  0.00    +0.014 A 
ATOM     27  C   UNL     1      -1.188  -2.503   1.366  0.00  0.00    +0.023 A 
ATOM     28  C   UNL     1      -1.176  -3.880   1.472  0.00  0.00    +0.025 A 
ATOM     29  C   UNL     1      -1.316  -4.665   0.335  0.00  0.00    +0.034 A 
ATOM     30  C   UNL     1      -1.468  -4.061  -0.907  0.00  0.00    +0.025 A 
ATOM     31  C   UNL     1      -1.485  -2.684  -1.006  0.00  0.00    +0.023 A 
BRANCH  26  32
ATOM     32  N   UNL     1      -1.352  -0.511   0.023  0.00  0.00    -0.394 NA
ATOM     33  H   UNL     1      -1.475  -0.248  -0.943  0.00  0.00    +0.126 HD
BRANCH  32  35
ATOM     34  C   UNL     1      -2.550   1.542   0.611  0.00  0.00    +0.022 C 
ATOM     35  C   UNL     1      -2.459   0.030   0.823  0.00  0.00    +0.081 C 
ENDBRANCH  32  35
BRANCH  32  36
ATOM     36  C   UNL     1      -0.079   0.028   0.520  0.00  0.00    +0.081 C 
ATOM     37  C   UNL     1       1.061  -0.436  -0.389  0.00  0.00    +0.022 C 
ENDBRANCH  32  36
ENDBRANCH  26  32
ENDBRANCH  22  29
ENDBRANCH  21  23
ENDBRANCH  20  21
ENDBRANCH   1  20
TORSDOF 10
