REMARK  Name = ZINC16884771
REMARK  9 active torsions:
REMARK  status: ('A' for Active; 'I' for Inactive)
REMARK    1  A    between atoms: C_1  and  C_2
REMARK    2  A    between atoms: C_5  and  C_32
REMARK    3  A    between atoms: C_6  and  C_8
REMARK    4  A    between atoms: C_8  and  C_9
REMARK    5  A    between atoms: C_10  and  C_31
REMARK    6  A    between atoms: N_13  and  C_16
REMARK    7  A    between atoms: C_16  and  C_17
REMARK    8  A    between atoms: N_23  and  C_24
REMARK    9  A    between atoms: C_29  and  N_30
REMARK                            x       y       z     vdW  Elec       q    Type
REMARK                         _______ _______ _______ _____ _____    ______ ____
ROOT
ATOM      1  C   UNL     1       0.017  -0.012   0.369  0.00  0.00    +0.042 A 
ATOM      2  C   UNL     1       0.029   1.314   0.689  0.00  0.00    +0.050 A 
ATOM      3  N   UNL     1       1.161   2.010   0.611  0.00  0.00    -0.220 NA
ATOM      4  C   UNL     1       2.288   1.445   0.227  0.00  0.00    +0.203 A 
ATOM      5  N   UNL     1       2.337   0.126  -0.104  0.00  0.00    -0.276 N 
ATOM      6  C   UNL     1       1.216  -0.623  -0.041  0.00  0.00    +0.259 A 
ATOM      7  O   UNL     1       1.241  -1.807  -0.335  0.00  0.00    -0.267 OA
ATOM      8  N   UNL     1       3.430   2.199   0.160  0.00  0.00    -0.283 N 
ATOM      9  C   UNL     1      -1.243   1.994   1.126  0.00  0.00    +0.066 C 
ATOM     10  H   UNL     1       4.281   1.774  -0.035  0.00  0.00    +0.155 HD
ENDROOT
BRANCH   8  11
ATOM     11  C   UNL     1       3.370   3.582   0.372  0.00  0.00    +0.054 A 
ATOM     12  C   UNL     1       2.222   4.287   0.043  0.00  0.00    +0.025 A 
ATOM     13  C   UNL     1       2.163   5.651   0.258  0.00  0.00    +0.002 A 
ATOM     14  C   UNL     1       3.250   6.319   0.792  0.00  0.00    +0.002 A 
ATOM     15  C   UNL     1       4.400   5.625   1.118  0.00  0.00    +0.024 A 
ATOM     16  C   UNL     1       4.467   4.256   0.910  0.00  0.00    +0.046 A 
BRANCH  16  17
ATOM     17  N   UNL     1       5.630   3.552   1.240  0.00  0.00    -0.357 N 
ATOM     18  H   UNL     1       5.675   2.594   1.093  0.00  0.00    +0.142 HD
ATOM     19  H   UNL     1       6.392   4.021   1.614  0.00  0.00    +0.142 HD
ENDBRANCH  16  17
ENDBRANCH   8  11
BRANCH   1  20
ATOM     20  C   UNL     1      -1.258  -0.810   0.455  0.00  0.00    +0.077 C 
BRANCH  20  26
ATOM     21  C   UNL     1      -1.432   0.665  -4.324  0.00  0.00    +0.044 C 
ATOM     22  C   UNL     1      -2.006  -0.136  -3.184  0.00  0.00    -0.050 A 
ATOM     23  C   UNL     1      -3.140  -0.902  -3.379  0.00  0.00    +0.003 A 
ATOM     24  C   UNL     1      -3.666  -1.636  -2.333  0.00  0.00    +0.004 A 
ATOM     25  C   UNL     1      -3.054  -1.611  -1.093  0.00  0.00    -0.047 A 
ATOM     26  C   UNL     1      -1.923  -0.842  -0.897  0.00  0.00    -0.040 A 
ATOM     27  C   UNL     1      -1.397  -0.106  -1.943  0.00  0.00    +0.007 A 
ATOM     28  C   UNL     1      -3.624  -2.417   0.045  0.00  0.00    +0.044 C 
ENDBRANCH  20  26
ENDBRANCH   1  20
BRANCH   5  29
ATOM     29  C   UNL     1       3.602  -0.479  -0.529  0.00  0.00    +0.163 C 
BRANCH  29  30
ATOM     30  C   UNL     1       3.740  -0.358  -2.025  0.00  0.00    -0.028 A 
ATOM     31  C   UNL     1       3.259  -1.359  -2.847  0.00  0.00    +0.005 A 
ATOM     32  C   UNL     1       3.381  -1.246  -4.219  0.00  0.00    +0.000 A 
ATOM     33  C   UNL     1       3.994  -0.136  -4.769  0.00  0.00    +0.000 A 
ATOM     34  C   UNL     1       4.481   0.863  -3.946  0.00  0.00    +0.000 A 
ATOM     35  C   UNL     1       4.354   0.752  -2.574  0.00  0.00    +0.005 A 
ENDBRANCH  29  30
ENDBRANCH   5  29
TORSDOF 6
