REMARK  Name = ZINC40322878
REMARK  11 active torsions:
REMARK  status: ('A' for Active; 'I' for Inactive)
REMARK    1  A    between atoms: C_1  and  C_2
REMARK    2  A    between atoms: C_5  and  S_8
REMARK    3  A    between atoms: S_8  and  C_11
REMARK    4  A    between atoms: C_14  and  C_16
REMARK    5  A    between atoms: N_18  and  C_19
REMARK    6  A    between atoms: C_19  and  C_20
REMARK    7  A    between atoms: C_20  and  C_22
REMARK    8  A    between atoms: C_20  and  N_31
REMARK    9  A    between atoms: C_25  and  C_28
REMARK   10  A    between atoms: C_28  and  C_29
REMARK   11  A    between atoms: C_28  and  C_30
REMARK                            x       y       z     vdW  Elec       q    Type
REMARK                         _______ _______ _______ _____ _____    ______ ____
ROOT
ATOM      1  C   UNL     1       7.487  -5.191  -2.464  0.00  0.00    +0.279 C 
ATOM      2  O   UNL     1       6.979  -5.755  -1.514  0.00  0.00    -0.267 OA
ATOM      3  N   UNL     1       6.930  -5.295  -3.687  0.00  0.00    -0.310 N 
ATOM      4  H   UNL     1       7.335  -4.846  -4.445  0.00  0.00    +0.149 HD
ENDROOT
BRANCH   1   8
ATOM      5  C   UNL     1      10.437  -3.119  -2.710  0.00  0.00    +0.246 A 
ATOM      6  C   UNL     1      10.476  -3.392  -1.387  0.00  0.00    +0.070 A 
ATOM      7  C   UNL     1       9.372  -4.211  -1.102  0.00  0.00    +0.056 A 
ATOM      8  C   UNL     1       8.707  -4.399  -2.280  0.00  0.00    +0.192 A 
ATOM      9  O   UNL     1       9.367  -3.723  -3.244  0.00  0.00    -0.433 OA
BRANCH   5  10
ATOM     10  S   UNL     1      11.598  -2.126  -3.587  0.00  0.00    +0.058 S 
ATOM     11  O   UNL     1      12.197  -1.261  -2.631  0.00  0.00    -0.161 OA
ATOM     12  O   UNL     1      10.926  -1.638  -4.740  0.00  0.00    -0.161 OA
BRANCH  10  17
ATOM     13  C   UNL     1      15.960  -5.797  -5.561  0.00  0.00    +0.044 C 
ATOM     14  C   UNL     1      14.871  -4.880  -5.068  0.00  0.00    -0.050 A 
ATOM     15  C   UNL     1      13.760  -4.641  -5.855  0.00  0.00    +0.005 A 
ATOM     16  C   UNL     1      12.760  -3.800  -5.403  0.00  0.00    +0.028 A 
ATOM     17  C   UNL     1      12.871  -3.199  -4.163  0.00  0.00    +0.097 A 
ATOM     18  C   UNL     1      13.982  -3.438  -3.376  0.00  0.00    +0.028 A 
ATOM     19  C   UNL     1      14.980  -4.283  -3.826  0.00  0.00    +0.005 A 
ENDBRANCH  10  17
ENDBRANCH   5  10
ENDBRANCH   1   8
BRANCH   3  20
ATOM     20  C   UNL     1       5.711  -6.088  -3.871  0.00  0.00    +0.094 C 
BRANCH  20  21
ATOM     21  C   UNL     1       5.225  -5.947  -5.315  0.00  0.00    -0.020 C 
BRANCH  21  22
ATOM     22  N   UNL     1       3.967  -6.687  -5.482  0.00  0.00    +0.385 N 
ATOM     23  C   UNL     1       3.565  -6.622  -6.901  0.00  0.00    -0.078 C 
ATOM     24  C   UNL     1       2.685  -7.810  -7.199  0.00  0.00    -0.019 C 
ATOM     25  C   UNL     1       1.192  -7.447  -7.089  0.00  0.00    -0.002 C 
ATOM     26  C   UNL     1       0.914  -6.527  -5.883  0.00  0.00    -0.002 C 
ATOM     27  C   UNL     1       1.687  -6.938  -4.657  0.00  0.00    -0.019 C 
ATOM     28  C   UNL     1       3.015  -6.154  -4.612  0.00  0.00    -0.078 C 
ATOM     29  H   UNL     1       4.125  -7.653  -5.237  0.00  0.00    -0.081 HD
ENDBRANCH  21  22
BRANCH  21  30
ATOM     30  C   UNL     1       6.265  -6.506  -6.252  0.00  0.00    -0.059 A 
ATOM     31  C   UNL     1       6.350  -7.871  -6.455  0.00  0.00    +0.002 A 
ATOM     32  C   UNL     1       7.304  -8.384  -7.314  0.00  0.00    +0.004 A 
ATOM     33  C   UNL     1       8.173  -7.532  -7.970  0.00  0.00    -0.045 A 
ATOM     34  C   UNL     1       8.087  -6.167  -7.768  0.00  0.00    +0.004 A 
ATOM     35  C   UNL     1       7.130  -5.654  -6.912  0.00  0.00    +0.002 A 
BRANCH  33  36
ATOM     36  C   UNL     1       9.213  -8.091  -8.906  0.00  0.00    +0.013 C 
ATOM     37  C   UNL     1       8.995  -7.523 -10.309  0.00  0.00    +0.012 C 
ATOM     38  C   UNL     1      10.607  -7.703  -8.409  0.00  0.00    +0.012 C 
ENDBRANCH  33  36
ENDBRANCH  21  30
ENDBRANCH  20  21
ENDBRANCH   3  20
TORSDOF 8
