REMARK  Name = ZINC52588056
REMARK  12 active torsions:
REMARK  status: ('A' for Active; 'I' for Inactive)
REMARK    1  A    between atoms: C_1  and  C_2
REMARK    2  A    between atoms: C_7  and  C_9
REMARK    3  A    between atoms: C_7  and  N_27
REMARK    4  A    between atoms: C_9  and  N_10
REMARK    5  A    between atoms: C_16  and  N_19
REMARK    6  A    between atoms: C_20  and  O_22
REMARK    7  A    between atoms: O_22  and  C_23
REMARK    8  A    between atoms: C_23  and  C_24
REMARK    9  A    between atoms: C_23  and  C_25
REMARK   10  A    between atoms: C_23  and  C_26
REMARK   11  A    between atoms: N_27  and  C_28
REMARK   12  A    between atoms: N_27  and  C_29
REMARK                            x       y       z     vdW  Elec       q    Type
REMARK                         _______ _______ _______ _____ _____    ______ ____
ROOT
ATOM      1  N   UNL     1      -0.679  -3.970   1.065  0.00  0.00    -0.301 N 
ATOM      2  C   UNL     1      -1.836  -4.637   0.881  0.00  0.00    +0.302 C 
ATOM      3  O   UNL     1      -2.887  -4.028   0.834  0.00  0.00    -0.253 OA
ATOM      4  N   UNL     1      -1.827  -5.978   0.747  0.00  0.00    -0.286 N 
ATOM      5  C   UNL     1      -0.583  -6.740   0.923  0.00  0.00    +0.111 C 
ATOM      6  C   UNL     1      -0.360  -7.612  -0.317  0.00  0.00    +0.041 C 
ATOM      7  C   UNL     1      -1.599  -8.478  -0.555  0.00  0.00    +0.079 C 
ATOM      8  C   UNL     1      -2.811  -7.579  -0.809  0.00  0.00    +0.041 C 
ATOM      9  C   UNL     1      -3.063  -6.707   0.430  0.00  0.00    +0.111 C 
ATOM     10  H   UNL     1       0.150  -4.461   1.182  0.00  0.00    +0.150 HD
ENDROOT
BRANCH   7  11
ATOM     11  N   UNL     1      -1.377  -9.338  -1.721  0.00  0.00    -0.278 N 
ATOM     12  C   UNL     1      -2.052 -10.498  -1.841  0.00  0.00    +0.401 C 
ATOM     13  O   UNL     1      -2.845 -10.831  -0.983  0.00  0.00    -0.226 OA
ATOM     14  H   UNL     1      -0.743  -9.072  -2.406  0.00  0.00    +0.152 HD
BRANCH  12  15
ATOM     15  O   UNL     1      -1.847 -11.288  -2.912  0.00  0.00    -0.445 OA
BRANCH  15  16
ATOM     16  C   UNL     1      -2.596 -12.503  -2.974  0.00  0.00    +0.107 C 
ATOM     17  C   UNL     1      -4.092 -12.180  -2.981  0.00  0.00    +0.055 C 
ATOM     18  C   UNL     1      -2.232 -13.262  -4.252  0.00  0.00    +0.055 C 
ATOM     19  C   UNL     1      -2.267 -13.368  -1.756  0.00  0.00    +0.055 C 
ENDBRANCH  15  16
ENDBRANCH  12  15
ENDBRANCH   7  11
BRANCH   1  20
ATOM     20  C   UNL     1      -0.673  -2.506   1.090  0.00  0.00    +0.094 C 
BRANCH  20  26
ATOM     21  C   UNL     1       0.117   1.629   0.088  0.00  0.00    +0.007 C 
ATOM     22  C   UNL     1       0.114   0.101   0.010  0.00  0.00    -0.015 C 
ATOM     23  C   UNL     1       0.895  -0.348  -1.226  0.00  0.00    +0.003 C 
ATOM     24  C   UNL     1       0.892  -1.876  -1.304  0.00  0.00    -0.001 C 
ATOM     25  C   UNL     1       1.550  -2.452  -0.049  0.00  0.00    -0.010 C 
ATOM     26  C   UNL     1       0.768  -2.003   1.188  0.00  0.00    -0.050 C 
ATOM     27  C   UNL     1       0.771  -0.475   1.266  0.00  0.00    -0.007 C 
BRANCH  26  28
ATOM     28  N   UNL     1       1.399  -2.556   2.393  0.00  0.00    +0.381 N 
ATOM     29  C   UNL     1       2.749  -1.994   2.541  0.00  0.00    -0.096 C 
ATOM     30  C   UNL     1       0.593  -2.209   3.571  0.00  0.00    -0.096 C 
ATOM     31  H   UNL     1       1.460  -3.560   2.311  0.00  0.00    -0.082 HD
ENDBRANCH  26  28
ENDBRANCH  20  26
ENDBRANCH   1  20
TORSDOF 6
