REMARK  Name = ZINC39303586
REMARK  7 active torsions:
REMARK  status: ('A' for Active; 'I' for Inactive)
REMARK    1  A    between atoms: C_4  and  C_7
REMARK    2  A    between atoms: C_7  and  C_8
REMARK    3  A    between atoms: C_7  and  N_14
REMARK    4  A    between atoms: N_14  and  C_15
REMARK    5  A    between atoms: C_15  and  C_17
REMARK    6  A    between atoms: C_15  and  C_22
REMARK    7  A    between atoms: N_27  and  C_30
REMARK                            x       y       z     vdW  Elec       q    Type
REMARK                         _______ _______ _______ _____ _____    ______ ____
ROOT
ATOM      1  C   UNL     1       3.991  -1.225  -1.889  0.00  0.00    +0.055 C 
ENDROOT
BRANCH   1   2
ATOM      2  C   UNL     1       3.894  -1.931  -3.217  0.00  0.00    +0.206 C 
ATOM      3  O   UNL     1       3.748  -3.134  -3.255  0.00  0.00    -0.277 OA
ATOM      4  N   UNL     1       3.971  -1.225  -4.363  0.00  0.00    -0.300 N 
ATOM      5  C   UNL     1       4.263   0.215  -4.336  0.00  0.00    +0.126 C 
ATOM      6  C   UNL     1       5.486   0.484  -5.221  0.00  0.00    +0.124 C 
ATOM      7  N   UNL     1       5.280  -0.173  -6.519  0.00  0.00    -0.327 N 
ATOM      8  C   UNL     1       4.988  -1.613  -6.546  0.00  0.00    +0.124 C 
ATOM      9  C   UNL     1       3.770  -1.883  -5.661  0.00  0.00    +0.126 C 
BRANCH   7  10
ATOM     10  C   UNL     1       5.359   0.557  -7.704  0.00  0.00    +0.035 C 
ATOM     11  C   UNL     1       5.461   1.927  -7.722  0.00  0.00    +0.023 C 
ATOM     12  C   UNL     1       5.604   2.620  -8.946  0.00  0.00    -0.000 C 
ATOM     13  C   UNL     1       5.342   2.078 -10.141  0.00  0.00    +0.004 C 
ATOM     14  C   UNL     1       4.815   0.675 -10.204  0.00  0.00    +0.160 C 
ATOM     15  C   UNL     1       5.347  -0.057  -8.977  0.00  0.00    +0.003 C 
ATOM     16  C   UNL     1       5.764  -1.246  -9.430  0.00  0.00    +0.027 C 
ATOM     17  C   UNL     1       5.796  -1.223 -10.845  0.00  0.00    +0.106 C 
ATOM     18  N   UNL     1       5.281  -0.119 -11.330  0.00  0.00    -0.279 NA
ENDBRANCH   7  10
ENDBRANCH   1   2
BRANCH   1  19
ATOM     19  C   UNL     1       2.670  -0.572  -1.570  0.00  0.00    -0.015 A 
ATOM     20  C   UNL     1       1.519  -1.142  -1.137  0.00  0.00    +0.010 A 
ATOM     21  C   UNL     1       0.419  -0.338  -0.906  0.00  0.00    +0.008 A 
ATOM     22  C   UNL     1       0.524   0.996  -1.119  0.00  0.00    +0.045 A 
ATOM     23  S   UNL     1       2.219   1.153  -1.657  0.00  0.00    -0.103 S 
ENDBRANCH   1  19
BRANCH   1  24
ATOM     24  N   UNL     1       4.322  -2.198  -0.840  0.00  0.00    +0.397 N 
ATOM     25  H   UNL     1       5.152  -2.708  -1.104  0.00  0.00    -0.083 HD
ATOM     26  H   UNL     1       3.554  -2.843  -0.724  0.00  0.00    -0.083 HD
BRANCH  24  27
ATOM     27  C   UNL     1       4.563  -1.492   0.425  0.00  0.00    -0.009 C 
BRANCH  27  31
ATOM     28  C   UNL     1       5.121  -4.338   3.561  0.00  0.00    +0.000 A 
ATOM     29  C   UNL     1       4.395  -3.186   3.795  0.00  0.00    +0.000 A 
ATOM     30  C   UNL     1       4.215  -2.264   2.780  0.00  0.00    +0.002 A 
ATOM     31  C   UNL     1       4.761  -2.495   1.532  0.00  0.00    -0.057 A 
ATOM     32  C   UNL     1       5.487  -3.648   1.298  0.00  0.00    +0.002 A 
ATOM     33  C   UNL     1       5.667  -4.570   2.312  0.00  0.00    +0.000 A 
ENDBRANCH  27  31
BRANCH  27  34
ATOM     34  C   UNL     1       5.798  -0.637   0.296  0.00  0.00    -0.057 A 
ATOM     35  C   UNL     1       6.900  -1.114  -0.388  0.00  0.00    +0.002 A 
ATOM     36  C   UNL     1       8.032  -0.330  -0.506  0.00  0.00    +0.000 A 
ATOM     37  C   UNL     1       8.062   0.931   0.059  0.00  0.00    +0.000 A 
ATOM     38  C   UNL     1       6.959   1.409   0.742  0.00  0.00    +0.000 A 
ATOM     39  C   UNL     1       5.825   0.626   0.857  0.00  0.00    +0.002 A 
ENDBRANCH  27  34
ENDBRANCH  24  27
ENDBRANCH   1  24
TORSDOF 7
