REMARK  Name = ZINC59487865
REMARK  9 active torsions:
REMARK  status: ('A' for Active; 'I' for Inactive)
REMARK    1  A    between atoms: C_4  and  CA_7
REMARK    2  A    between atoms: CA_7  and  C_9
REMARK    3  A    between atoms: CA_7  and  N_12
REMARK    4  A    between atoms: C_13  and  C_15
REMARK    5  A    between atoms: C_15  and  C_16
REMARK    6  A    between atoms: C_16  and  C_18
REMARK    7  A    between atoms: C_16  and  C_28
REMARK    8  A    between atoms: C_18  and  N_19
REMARK    9  A    between atoms: C_20  and  C_22
REMARK                            x       y       z     vdW  Elec       q    Type
REMARK                         _______ _______ _______ _____ _____    ______ ____
ROOT
ATOM      1  C   UNL     1       6.012  -3.931  -2.935  0.00  0.00    +0.045 C 
ENDROOT
BRANCH   1   2
ATOM      2  C   UNL     1       6.546  -2.812  -3.791  0.00  0.00    -0.042 A 
ATOM      3  C   UNL     1       5.860  -2.423  -4.926  0.00  0.00    +0.005 A 
ATOM      4  C   UNL     1       6.349  -1.397  -5.712  0.00  0.00    +0.020 A 
ATOM      5  C   UNL     1       7.526  -0.759  -5.362  0.00  0.00    +0.041 A 
ATOM      6  C   UNL     1       8.212  -1.149  -4.226  0.00  0.00    +0.020 A 
ATOM      7  C   UNL     1       7.719  -2.171  -3.438  0.00  0.00    +0.005 A 
ATOM      8 CL   UNL     1       8.142   0.530  -6.349  0.00  0.00    -0.084 Cl
ENDBRANCH   1   2
BRANCH   1   9
ATOM      9  C   UNL     1       4.619  -3.561  -2.422  0.00  0.00    +0.105 C 
BRANCH   9  11
ATOM     10  N   UNL     1       3.611  -1.865  -0.930  0.00  0.00    -0.299 N 
ATOM     11  C   UNL     1       4.721  -2.370  -1.504  0.00  0.00    +0.215 C 
ATOM     12  O   UNL     1       5.802  -1.868  -1.281  0.00  0.00    -0.276 OA
ATOM     13  H   UNL     1       2.747  -2.267  -1.108  0.00  0.00    +0.150 HD
BRANCH  10  14
ATOM     14  CA  UNL     1       3.711  -0.707  -0.038  0.00  0.00    +0.217 C 
BRANCH  14  18
ATOM     15  C   UNL     1      -0.017   1.378   0.010  0.00  0.00    +0.000 A 
ATOM     16  C   UNL     1       1.171   2.086   0.002  0.00  0.00    +0.000 A 
ATOM     17  C   UNL     1       2.377   1.411  -0.013  0.00  0.00    +0.006 A 
ATOM     18  C   UNL     1       2.396   0.029  -0.020  0.00  0.00    -0.016 A 
ATOM     19  C   UNL     1       1.208  -0.679  -0.012  0.00  0.00    +0.006 A 
ATOM     20  C   UNL     1       0.002  -0.004   0.002  0.00  0.00    +0.000 A 
ENDBRANCH  14  18
BRANCH  14  21
ATOM     21  C   UNL     1       4.044  -1.175   1.356  0.00  0.00    +0.380 C 
ATOM     22  O   UNL     1       4.006  -2.363   1.626  0.00  0.00    -0.244 OA
ATOM     23  OXT UNL     1       4.351  -0.364   2.214  0.00  0.00    -0.244 OA
ENDBRANCH  14  21
ENDBRANCH  10  14
ENDBRANCH   9  11
ENDBRANCH   1   9
BRANCH   1  24
ATOM     24  C   UNL     1       5.926  -5.213  -3.766  0.00  0.00    +0.112 C 
BRANCH  24  25
ATOM     25  N   UNL     1       7.273  -5.633  -4.157  0.00  0.00    -0.313 N 
ATOM     26  C   UNL     1       7.444  -6.745  -4.899  0.00  0.00    +0.231 C 
ATOM     27  O   UNL     1       6.481  -7.398  -5.243  0.00  0.00    -0.274 OA
ATOM     28  H   UNL     1       8.043  -5.111  -3.881  0.00  0.00    +0.149 HD
BRANCH  26  29
ATOM     29  C   UNL     1       8.831  -7.178  -5.301  0.00  0.00    +0.151 C 
ATOM     30  C   UNL     1       9.308  -6.277  -6.466  0.00  0.00    +0.098 C 
ATOM     31  S   UNL     1      10.221  -7.522  -7.482  0.00  0.00    -0.143 S 
ATOM     32  C   UNL     1       9.202  -8.982  -6.989  0.00  0.00    +0.151 C 
ATOM     33  N   UNL     1       8.798  -8.600  -5.618  0.00  0.00    -0.296 NA
ATOM     34  H   UNL     1       9.308  -9.135  -4.932  0.00  0.00    +0.123 HD
ENDBRANCH  26  29
ENDBRANCH  24  25
ENDBRANCH   1  24
TORSDOF 9
