REMARK  Name = ZINC11710788
REMARK  8 active torsions:
REMARK  status: ('A' for Active; 'I' for Inactive)
REMARK    1  A    between atoms: C_1  and  C_2
REMARK    2  A    between atoms: C_4  and  C_7
REMARK    3  A    between atoms: C_7  and  N_8
REMARK    4  A    between atoms: C_9  and  C_11
REMARK    5  A    between atoms: C_11  and  C_12
REMARK    6  A    between atoms: N_19  and  C_20
REMARK    7  A    between atoms: C_20  and  C_21
REMARK    8  A    between atoms: C_26  and  C_27
REMARK                            x       y       z     vdW  Elec       q    Type
REMARK                         _______ _______ _______ _____ _____    ______ ____
ROOT
ATOM      1  C   UNL     1       2.544  -6.033  -4.407  0.00  0.00    +0.028 C 
ATOM      2  C   UNL     1       3.861  -6.257  -5.096  0.00  0.00    +0.200 C 
ATOM      3  O   UNL     1       4.507  -5.291  -5.443  0.00  0.00    -0.278 OA
ATOM      4  N   UNL     1       4.349  -7.478  -5.341  0.00  0.00    -0.318 N 
ATOM      5  C   UNL     1       3.656  -8.699  -4.935  0.00  0.00    +0.085 C 
ATOM      6  C   UNL     1       2.190  -8.388  -4.628  0.00  0.00    -0.058 C 
ATOM      7  N   UNL     1       2.135  -7.251  -3.697  0.00  0.00    +0.391 N 
ATOM      8  H   UNL     1       5.196  -7.556  -5.806  0.00  0.00    +0.149 HD
ATOM      9  H   UNL     1       2.760  -7.416  -2.922  0.00  0.00    -0.080 HD
ENDROOT
BRANCH   1  10
ATOM     10  C   UNL     1       2.685  -4.884  -3.406  0.00  0.00    +0.089 C 
BRANCH  10  12
ATOM     11  N   UNL     1       4.065  -4.354  -1.423  0.00  0.00    -0.308 N 
ATOM     12  C   UNL     1       3.824  -5.176  -2.463  0.00  0.00    +0.212 C 
ATOM     13  O   UNL     1       4.523  -6.151  -2.641  0.00  0.00    -0.276 OA
ATOM     14  H   UNL     1       3.505  -3.575  -1.281  0.00  0.00    +0.149 HD
BRANCH  11  15
ATOM     15  C   UNL     1       5.172  -4.638  -0.506  0.00  0.00    +0.181 C 
BRANCH  15  19
ATOM     16  C   UNL     1       4.395  -2.059   3.818  0.00  0.00    +0.069 C 
ATOM     17  C   UNL     1       4.897  -2.432   2.447  0.00  0.00    +0.081 A 
ATOM     18  C   UNL     1       4.585  -3.611   1.746  0.00  0.00    +0.072 A 
ATOM     19  C   UNL     1       5.225  -3.575   0.561  0.00  0.00    +0.154 A 
ATOM     20  O   UNL     1       5.919  -2.429   0.499  0.00  0.00    -0.358 OA
ATOM     21  N   UNL     1       5.692  -1.717   1.702  0.00  0.00    -0.083 NA
ENDBRANCH  15  19
ENDBRANCH  11  15
ENDBRANCH  10  12
ENDBRANCH   1  10
BRANCH   7  22
ATOM     22  C   UNL     1       0.762  -7.092  -3.199  0.00  0.00    -0.041 C 
BRANCH  22  23
ATOM     23  C   UNL     1       0.371  -8.311  -2.404  0.00  0.00    -0.052 A 
ATOM     24  C   UNL     1      -0.333  -9.335  -3.010  0.00  0.00    +0.002 A 
ATOM     25  C   UNL     1      -0.691 -10.453  -2.281  0.00  0.00    +0.000 A 
ATOM     26  C   UNL     1      -0.344 -10.548  -0.946  0.00  0.00    +0.001 A 
ATOM     27  C   UNL     1       0.361  -9.525  -0.341  0.00  0.00    +0.012 A 
ATOM     28  C   UNL     1       0.723  -8.409  -1.071  0.00  0.00    +0.056 A 
BRANCH  28  29
ATOM     29  C   UNL     1       1.497  -7.295  -0.413  0.00  0.00    +0.418 C 
ATOM     30  F   UNL     1       1.626  -7.563   0.955  0.00  0.00    -0.166 F 
ATOM     31  F   UNL     1       2.767  -7.204  -0.992  0.00  0.00    -0.166 F 
ATOM     32  F   UNL     1       0.816  -6.086  -0.589  0.00  0.00    -0.166 F 
ENDBRANCH  28  29
ENDBRANCH  22  23
ENDBRANCH   7  22
TORSDOF 7
