REMARK  Name = ZINC40364274
REMARK  5 active torsions:
REMARK  status: ('A' for Active; 'I' for Inactive)
REMARK    1  A    between atoms: C_5  and  S_6
REMARK    2  A    between atoms: S_6  and  N_9
REMARK    3  A    between atoms: N_9  and  C_10
REMARK    4  A    between atoms: C_10  and  C_16
REMARK    5  A    between atoms: C_16  and  N_18
REMARK                            x       y       z     vdW  Elec       q    Type
REMARK                         _______ _______ _______ _____ _____    ______ ____
ROOT
ATOM      1  N   UNL     1      -1.730  -1.359  -1.427  0.00  0.00    -0.177 NA
ATOM      2  H   UNL     1      -1.513  -0.551  -0.937  0.00  0.00    +0.149 HD
ENDROOT
BRANCH   1   3
ATOM      3  C   UNL     1      -0.750  -1.948  -2.342  0.00  0.00    +0.084 C 
ATOM      4  C   UNL     1       0.564  -1.169  -2.252  0.00  0.00    +0.030 C 
ATOM      5  C   UNL     1       0.319   0.291  -2.637  0.00  0.00    +0.002 C 
ATOM      6  C   UNL     1      -0.216   0.358  -4.069  0.00  0.00    +0.000 C 
ATOM      7  C   UNL     1      -1.530  -0.421  -4.159  0.00  0.00    +0.002 C 
ATOM      8  C   UNL     1      -1.285  -1.881  -3.774  0.00  0.00    +0.030 C 
BRANCH   3   9
ATOM      9  C   UNL     1      -0.508  -3.386  -1.963  0.00  0.00    +0.068 C 
ATOM     10  S   UNL     1      -0.664  -4.539  -3.060  0.00  0.00    -0.039 S 
BRANCH   9  11
ATOM     11  N   UNL     1      -0.161  -3.701  -0.699  0.00  0.00    -0.354 N 
ATOM     12  H   UNL     1      -0.137  -3.011  -0.017  0.00  0.00    +0.143 HD
ATOM     13  H   UNL     1       0.064  -4.616  -0.472  0.00  0.00    +0.143 HD
ENDBRANCH   9  11
ENDBRANCH   3   9
ENDBRANCH   1   3
BRANCH   1  14
ATOM     14  S   UNL     1      -3.211  -2.075  -1.227  0.00  0.00    +0.066 S 
ATOM     15  O   UNL     1      -3.693  -2.380  -2.528  0.00  0.00    -0.153 OA
ATOM     16  O   UNL     1      -3.937  -1.259  -0.318  0.00  0.00    -0.153 OA
BRANCH  14  21
ATOM     17  C   UNL     1      -2.771  -3.866   0.905  0.00  0.00    +0.037 A 
ATOM     18  C   UNL     1      -2.571  -5.170   1.321  0.00  0.00    +0.025 A 
ATOM     19  C   UNL     1      -2.549  -6.159   0.393  0.00  0.00    +0.057 A 
ATOM     20  S   UNL     1      -2.817  -5.251  -1.121  0.00  0.00    -0.062 S 
ATOM     21  C   UNL     1      -2.940  -3.615  -0.416  0.00  0.00    +0.143 A 
ATOM     22 BR   UNL     1      -2.299  -8.017   0.639  0.00  0.00    -0.043 Br
ENDBRANCH  14  21
ENDBRANCH   1  14
TORSDOF 5
