REMARK  Name = ZINC44837193
REMARK  5 active torsions:
REMARK  status: ('A' for Active; 'I' for Inactive)
REMARK    1  A    between atoms: C_3  and  C_8
REMARK    2  A    between atoms: C_8  and  N_9
REMARK    3  A    between atoms: N_14  and  C_17
REMARK    4  A    between atoms: C_17  and  C_18
REMARK    5  A    between atoms: N_20  and  C_21
REMARK                            x       y       z     vdW  Elec       q    Type
REMARK                         _______ _______ _______ _____ _____    ______ ____
ROOT
ATOM      1  N   UNL     1       4.081   2.451   1.328  0.00  0.00    -0.222 N 
ATOM      2  C   UNL     1       3.760   3.520   2.109  0.00  0.00    +0.186 A 
ATOM      3  C   UNL     1       4.396   3.306   3.339  0.00  0.00    +0.196 A 
ATOM      4  C   UNL     1       4.219   4.317   4.385  0.00  0.00    +0.284 A 
ATOM      5  O   UNL     1       4.744   4.194   5.477  0.00  0.00    -0.265 OA
ATOM      6  N   UNL     1       3.451   5.393   4.093  0.00  0.00    -0.288 N 
ATOM      7  C   UNL     1       2.876   5.513   2.871  0.00  0.00    +0.205 A 
ATOM      8  N   UNL     1       3.022   4.625   1.931  0.00  0.00    -0.216 NA
ATOM      9  N   UNL     1       5.064   2.147   3.266  0.00  0.00    -0.122 NA
ATOM     10  N   UNL     1       4.898   1.615   2.104  0.00  0.00    -0.063 NA
ENDROOT
BRANCH   1  11
ATOM     11  C   UNL     1       3.652   2.217  -0.053  0.00  0.00    +0.182 C 
BRANCH  11  14
ATOM     12  C   UNL     1      -0.041   1.432  -0.038  0.00  0.00    +0.003 A 
ATOM     13  C   UNL     1       1.151   2.132  -0.039  0.00  0.00    +0.005 A 
ATOM     14  C   UNL     1       2.354   1.452  -0.053  0.00  0.00    -0.023 A 
ATOM     15  C   UNL     1       2.367   0.070  -0.068  0.00  0.00    +0.043 A 
ATOM     16  C   UNL     1       1.174  -0.633  -0.067  0.00  0.00    +0.124 A 
ATOM     17  C   UNL     1      -0.031   0.050  -0.053  0.00  0.00    +0.038 A 
ATOM     18  F   UNL     1       1.185  -1.984  -0.082  0.00  0.00    -0.205 F 
ENDBRANCH  11  14
ENDBRANCH   1  11
BRANCH   6  19
ATOM     19  C   UNL     1       3.241   6.433   5.103  0.00  0.00    +0.222 C 
BRANCH  19  20
ATOM     20  C   UNL     1       4.317   7.481   4.976  0.00  0.00    +0.237 C 
ATOM     21  O   UNL     1       5.176   7.369   4.126  0.00  0.00    -0.274 OA
ATOM     22  N   UNL     1       4.327   8.541   5.808  0.00  0.00    -0.282 N 
ATOM     23  H   UNL     1       3.605   8.665   6.444  0.00  0.00    +0.155 HD
BRANCH  22  24
ATOM     24  C   UNL     1       5.378   9.466   5.752  0.00  0.00    +0.069 A 
ATOM     25  C   UNL     1       5.975   9.768   4.536  0.00  0.00    +0.027 A 
ATOM     26  C   UNL     1       7.011  10.680   4.484  0.00  0.00    +0.017 A 
ATOM     27  C   UNL     1       7.455  11.292   5.643  0.00  0.00    +0.021 A 
ATOM     28  C   UNL     1       6.863  10.994   6.857  0.00  0.00    +0.055 A 
ATOM     29  C   UNL     1       5.821  10.086   6.915  0.00  0.00    +0.146 A 
ATOM     30  F   UNL     1       5.239   9.799   8.100  0.00  0.00    -0.204 F 
ATOM     31 BR   UNL     1       8.875  12.539   5.566  0.00  0.00    -0.050 Br
ENDBRANCH  22  24
ENDBRANCH  19  20
ENDBRANCH   6  19
TORSDOF 5
