REMARK  Name = ZINC19356554
REMARK  8 active torsions:
REMARK  status: ('A' for Active; 'I' for Inactive)
REMARK    1  A    between atoms: C_1  and  N_2
REMARK    2  A    between atoms: C_12  and  C_14
REMARK    3  A    between atoms: C_17  and  O_31
REMARK    4  A    between atoms: C_18  and  O_20
REMARK    5  A    between atoms: O_20  and  C_21
REMARK    6  A    between atoms: C_21  and  C_22
REMARK    7  A    between atoms: C_25  and  N_28
REMARK    8  A    between atoms: O_31  and  C_32
REMARK                            x       y       z     vdW  Elec       q    Type
REMARK                         _______ _______ _______ _____ _____    ______ ____
ROOT
ATOM      1  C   UNL     1      -5.137   4.004   1.057  0.00  0.00    -0.006 A 
ATOM      2  C   UNL     1      -5.895   4.113   2.208  0.00  0.00    +0.011 A 
ATOM      3  C   UNL     1      -5.400   3.651   3.413  0.00  0.00    +0.050 A 
ATOM      4  C   UNL     1      -4.140   3.077   3.469  0.00  0.00    +0.162 A 
ATOM      5  C   UNL     1      -3.376   2.968   2.311  0.00  0.00    +0.163 A 
ATOM      6  C   UNL     1      -3.876   3.438   1.108  0.00  0.00    +0.056 A 
ENDROOT
BRANCH   1  18
ATOM      7  C   UNL     1      -6.713   2.365  -0.682  0.00  0.00    +0.131 C 
ATOM      8  N   UNL     1      -6.934   3.811  -0.553  0.00  0.00    -0.310 N 
ATOM      9  C   UNL     1      -7.567   4.319  -1.676  0.00  0.00    +0.043 A 
ATOM     10  C   UNL     1      -8.257   3.487  -2.547  0.00  0.00    +0.024 A 
ATOM     11  C   UNL     1      -8.881   4.020  -3.657  0.00  0.00    +0.002 A 
ATOM     12  C   UNL     1      -8.828   5.381  -3.913  0.00  0.00    +0.001 A 
ATOM     13  C   UNL     1      -8.147   6.224  -3.059  0.00  0.00    +0.015 A 
ATOM     14  C   UNL     1      -7.511   5.698  -1.938  0.00  0.00    +0.058 A 
ATOM     15  C   UNL     1      -6.763   6.560  -1.000  0.00  0.00    +0.247 C 
ATOM     16  O   UNL     1      -6.925   7.765  -0.983  0.00  0.00    -0.270 OA
ATOM     17  N   UNL     1      -5.889   5.954  -0.162  0.00  0.00    -0.289 N 
ATOM     18  C   UNL     1      -5.682   4.509  -0.254  0.00  0.00    +0.192 C 
ATOM     19  H   UNL     1      -5.337   6.542   0.586  0.00  0.00    +0.151 HD
ENDBRANCH   1  18
BRANCH   4  20
ATOM     20  O   UNL     1      -3.650   2.622   4.654  0.00  0.00    -0.491 OA
ATOM     21  C   UNL     1      -4.490   2.768   5.801  0.00  0.00    +0.277 C 
ENDBRANCH   4  20
BRANCH   5  22
ATOM     22  O   UNL     1      -2.139   2.405   2.362  0.00  0.00    -0.484 OA
BRANCH  22  23
ATOM     23  C   UNL     1      -1.411   2.326   1.134  0.00  0.00    +0.264 C 
BRANCH  23  24
ATOM     24  C   UNL     1      -0.074   1.679   1.383  0.00  0.00    -0.010 A 
ATOM     25  C   UNL     1       1.021   2.458   1.707  0.00  0.00    +0.009 A 
ATOM     26  C   UNL     1       2.250   1.865   1.929  0.00  0.00    +0.033 A 
ATOM     27  C   UNL     1       2.384   0.493   1.829  0.00  0.00    +0.126 A 
ATOM     28  C   UNL     1       1.288  -0.286   1.506  0.00  0.00    +0.033 A 
ATOM     29  C   UNL     1       0.060   0.307   1.283  0.00  0.00    +0.009 A 
BRANCH  27  30
ATOM     30  N   UNL     1       3.699  -0.142   2.069  0.00  0.00    +0.056 N 
ATOM     31  O   UNL     1       3.816  -1.351   1.982  0.00  0.00    -0.126 OA
ATOM     32  O   UNL     1       4.664   0.544   2.354  0.00  0.00    -0.126 OA
ENDBRANCH  27  30
ENDBRANCH  23  24
ENDBRANCH  22  23
ENDBRANCH   5  22
TORSDOF 6
