REMARK  Name = ZINC19939196
REMARK  6 active torsions:
REMARK  status: ('A' for Active; 'I' for Inactive)
REMARK    1  A    between atoms: C_1  and  C_2
REMARK    2  A    between atoms: C_2  and  C_3
REMARK    3  A    between atoms: C_3  and  N_4
REMARK    4  A    between atoms: C_12  and  N_18
REMARK    5  A    between atoms: C_14  and  S_16
REMARK    6  A    between atoms: S_16  and  C_17
REMARK                            x       y       z     vdW  Elec       q    Type
REMARK                         _______ _______ _______ _____ _____    ______ ____
ROOT
ATOM      1  N   UNL     1       2.000   6.095   1.102  0.00  0.00    -0.297 NA
ATOM      2  C   UNL     1       0.735   5.585   1.651  0.00  0.00    +0.089 C 
ATOM      3  C   UNL     1       0.248   4.392   0.825  0.00  0.00    +0.052 C 
ATOM      4  C   UNL     1       1.393   3.389   0.715  0.00  0.00    -0.022 A 
ATOM      5  C   UNL     1       2.658   3.781   0.975  0.00  0.00    +0.010 A 
ATOM      6  S   UNL     1       3.649   2.333   0.738  0.00  0.00    -0.072 S 
ATOM      7  C   UNL     1       2.361   1.199   0.287  0.00  0.00    +0.115 A 
ATOM      8  C   UNL     1       1.195   1.990   0.336  0.00  0.00    +0.051 A 
ATOM      9  C   UNL     1      -0.016   1.318   0.009  0.00  0.00    +0.129 A 
ATOM     10  N   UNL     1       0.022   0.035  -0.309  0.00  0.00    -0.207 NA
ATOM     11  C   UNL     1       1.157  -0.652  -0.334  0.00  0.00    +0.191 A 
ATOM     12  N   UNL     1       2.316  -0.078  -0.040  0.00  0.00    -0.215 NA
ATOM     13  C   UNL     1       3.102   5.154   1.377  0.00  0.00    +0.127 C 
ENDROOT
BRANCH   9  14
ATOM     14  N   UNL     1      -1.219   2.001   0.019  0.00  0.00    -0.343 N 
ATOM     15  H   UNL     1      -2.151   1.476  -0.235  0.00  0.00    +0.144 HD
ATOM     16  H   UNL     1      -1.243   3.069   0.280  0.00  0.00    +0.144 HD
ENDBRANCH   9  14
BRANCH  11  17
ATOM     17  S   UNL     1       1.125  -2.360  -0.768  0.00  0.00    -0.089 S 
ATOM     18  C   UNL     1      -0.649  -2.578  -1.052  0.00  0.00    +0.093 C 
ENDBRANCH  11  17
BRANCH   1  19
ATOM     19  C   UNL     1       2.303   7.431   1.633  0.00  0.00    +0.084 C 
BRANCH  19  21
ATOM     20  C   UNL     1       4.046   9.213   1.796  0.00  0.00    +0.005 C 
ATOM     21  C   UNL     1       3.730   7.822   1.244  0.00  0.00    +0.012 C 
ENDBRANCH  19  21
ENDBRANCH   1  19
TORSDOF 4
