REMARK  Name = ZINC26921452
REMARK  14 active torsions:
REMARK  status: ('A' for Active; 'I' for Inactive)
REMARK    1  A    between atoms: C_1  and  C_2
REMARK    2  A    between atoms: C_2  and  C_3
REMARK    3  A    between atoms: C_3  and  N_4
REMARK    4  A    between atoms: N_4  and  C_5
REMARK    5  A    between atoms: N_4  and  C_16
REMARK    6  A    between atoms: C_5  and  C_6
REMARK    7  A    between atoms: N_8  and  C_9
REMARK    8  A    between atoms: C_14  and  C_15
REMARK    9  A    between atoms: C_16  and  C_17
REMARK   10  A    between atoms: N_19  and  N_20
REMARK   11  A    between atoms: C_23  and  C_27
REMARK   12  A    between atoms: C_23  and  C_28
REMARK   13  A    between atoms: C_28  and  C_29
REMARK   14  A    between atoms: C_29  and  C_30
REMARK                            x       y       z     vdW  Elec       q    Type
REMARK                         _______ _______ _______ _____ _____    ______ ____
ROOT
ATOM      1  C   UNL     1       0.180   0.079   0.515  0.00  0.00    +0.213 C 
ATOM      2  O   UNL     1       1.251  -0.471   0.367  0.00  0.00    -0.276 OA
ATOM      3  N   UNL     1      -0.884  -0.624   0.951  0.00  0.00    -0.225 N 
ATOM      4  H   UNL     1      -1.855  -0.126   1.086  0.00  0.00    +0.173 HD
ENDROOT
BRANCH   3   5
ATOM      5  N   UNL     1      -0.753  -1.990   1.234  0.00  0.00    -0.137 N 
ATOM      6  C   UNL     1      -0.699  -2.504   2.479  0.00  0.00    +0.263 C 
ATOM      7  O   UNL     1      -0.751  -1.895   3.526  0.00  0.00    -0.271 OA
ATOM      8  C   UNL     1      -0.558  -4.002   2.298  0.00  0.00    +0.112 C 
ATOM      9  N   UNL     1      -0.548  -4.175   0.835  0.00  0.00    -0.284 N 
ATOM     10  C   UNL     1      -0.672  -2.946   0.302  0.00  0.00    +0.326 C 
ATOM     11  O   UNL     1      -0.703  -2.729  -0.894  0.00  0.00    -0.251 OA
ATOM     12  C   UNL     1       0.755  -4.497   2.907  0.00  0.00    +0.041 C 
ATOM     13  H   UNL     1      -0.452  -5.181   0.401  0.00  0.00    +0.151 HD
BRANCH   8  14
ATOM     14  C   UNL     1      -1.749  -4.734   2.922  0.00  0.00    +0.040 C 
BRANCH  14  15
ATOM     15  C   UNL     1      -1.581  -6.242   2.725  0.00  0.00    +0.038 C 
BRANCH  15  16
ATOM     16  C   UNL     1      -2.753  -6.963   3.339  0.00  0.00    -0.047 A 
ATOM     17  C   UNL     1      -2.700  -7.368   4.660  0.00  0.00    +0.003 A 
ATOM     18  C   UNL     1      -3.777  -8.025   5.225  0.00  0.00    +0.000 A 
ATOM     19  C   UNL     1      -4.903  -8.285   4.466  0.00  0.00    +0.000 A 
ATOM     20  C   UNL     1      -4.954  -7.884   3.144  0.00  0.00    +0.000 A 
ATOM     21  C   UNL     1      -3.879  -7.223   2.581  0.00  0.00    +0.003 A 
ENDBRANCH  15  16
ENDBRANCH  14  15
ENDBRANCH   8  14
ENDBRANCH   3   5
BRANCH   1  22
ATOM     22  C   UNL     1       0.039   1.548   0.211  0.00  0.00    +0.021 C 
BRANCH  22  23
ATOM     23  N   UNL     1       1.330   2.079  -0.245  0.00  0.00    +0.391 N 
ATOM     24  H   UNL     1       2.092   1.798   0.497  0.00  0.00    -0.080 HD
BRANCH  23  25
ATOM     25  C   UNL     1       1.717   1.491  -1.534  0.00  0.00    -0.078 C 
BRANCH  25  27
ATOM     26  C   UNL     1       1.004   1.114  -3.899  0.00  0.00    +0.002 C 
ATOM     27  C   UNL     1       0.625   1.770  -2.569  0.00  0.00    -0.022 C 
ENDBRANCH  25  27
ENDBRANCH  23  25
BRANCH  23  28
ATOM     28  C   UNL     1       1.297   3.546  -0.324  0.00  0.00    +0.020 C 
BRANCH  28  29
ATOM     29  C   UNL     1       2.706   4.077  -0.397  0.00  0.00    +0.201 C 
ATOM     30  O   UNL     1       3.646   3.319  -0.283  0.00  0.00    -0.278 OA
ATOM     31  N   UNL     1       2.921   5.394  -0.590  0.00  0.00    -0.287 N 
ATOM     32  H   UNL     1       2.071   6.092  -0.609  0.00  0.00    +0.155 HD
BRANCH  31  33
ATOM     33  C   UNL     1       4.224   5.872  -0.765  0.00  0.00    +0.036 A 
ATOM     34  C   UNL     1       5.296   5.195  -0.196  0.00  0.00    +0.023 A 
ATOM     35  C   UNL     1       6.581   5.667  -0.376  0.00  0.00    +0.002 A 
ATOM     36  C   UNL     1       6.801   6.817  -1.111  0.00  0.00    +0.000 A 
ATOM     37  C   UNL     1       5.736   7.495  -1.674  0.00  0.00    +0.005 A 
ATOM     38  C   UNL     1       4.448   7.026  -1.503  0.00  0.00    -0.029 A 
ATOM     39  C   UNL     1       3.288   7.767  -2.116  0.00  0.00    +0.045 C 
ENDBRANCH  31  33
ENDBRANCH  28  29
ENDBRANCH  23  28
ENDBRANCH  22  23
ENDBRANCH   1  22
TORSDOF 11
