REMARK  Name = ZINC61685402
REMARK  4 active torsions:
REMARK  status: ('A' for Active; 'I' for Inactive)
REMARK    1  A    between atoms: C_2  and  N_6
REMARK    2  A    between atoms: N_6  and  S_7
REMARK    3  A    between atoms: S_7  and  N_10
REMARK    4  A    between atoms: C_14  and  C_17
REMARK                            x       y       z     vdW  Elec       q    Type
REMARK                         _______ _______ _______ _____ _____    ______ ____
ROOT
ATOM      1  S   UNL     1       3.348   3.469  -0.011  0.00  0.00    +0.131 S 
ATOM      2  O   UNL     1       3.878   3.015   1.227  0.00  0.00    -0.136 OA
ATOM      3  O   UNL     1       3.854   3.029  -1.264  0.00  0.00    -0.136 OA
ENDROOT
BRANCH   1   4
ATOM      4  N   UNL     1       3.473   5.120  -0.004  0.00  0.00    -0.161 NA
ATOM      5  C   UNL     1       3.511   5.874  -1.264  0.00  0.00    +0.111 C 
ATOM      6  C   UNL     1       4.750   6.775  -1.262  0.00  0.00    +0.018 C 
ATOM      7  C   UNL     1       4.737   7.650  -0.007  0.00  0.00    +0.017 C 
ATOM      8  C   UNL     1       4.785   6.761   1.237  0.00  0.00    +0.118 C 
ATOM      9  C   UNL     1       3.541   5.860   1.264  0.00  0.00    +0.125 C 
BRANCH   8  10
ATOM     10  C   UNL     1       4.806   7.624   2.472  0.00  0.00    +0.360 C 
ATOM     11  O   UNL     1       4.785   8.838   2.367  0.00  0.00    -0.246 OA
ATOM     12  O   UNL     1       4.845   7.108   3.576  0.00  0.00    -0.246 OA
ENDBRANCH   8  10
ENDBRANCH   1   4
BRANCH   1  13
ATOM     13  N   UNL     1       1.734   3.100   0.002  0.00  0.00    -0.082 NA
BRANCH  13  15
ATOM     14  C   UNL     1      -0.016   1.299   0.009  0.00  0.00    +0.183 A 
ATOM     15  C   UNL     1       1.319   1.755  -0.001  0.00  0.00    +0.134 A 
ATOM     16  C   UNL     1       2.130   0.675  -0.015  0.00  0.00    +0.256 A 
ATOM     17  O   UNL     1       1.354  -0.424  -0.013  0.00  0.00    -0.361 OA
ATOM     18  N   UNL     1       0.002  -0.004   0.002  0.00  0.00    -0.085 NA
ENDBRANCH  13  15
ENDBRANCH   1  13
TORSDOF 4
