REMARK  Name = ZINC11843684
REMARK  12 active torsions:
REMARK  status: ('A' for Active; 'I' for Inactive)
REMARK    1  A    between atoms: C_1  and  C_2
REMARK    2  A    between atoms: C_7  and  N_8
REMARK    3  A    between atoms: C_10  and  C_22
REMARK    4  A    between atoms: C_11  and  C_13
REMARK    5  A    between atoms: C_16  and  O_20
REMARK    6  A    between atoms: O_20  and  C_21
REMARK    7  A    between atoms: C_22  and  N_59
REMARK    8  A    between atoms: C_23  and  C_25
REMARK    9  A    between atoms: C_23  and  C_26
REMARK   10  A    between atoms: C_23  and  N_59
REMARK   11  A    between atoms: N_28  and  C_32
REMARK   12  A    between atoms: C_30  and  C_31
REMARK                            x       y       z     vdW  Elec       q    Type
REMARK                         _______ _______ _______ _____ _____    ______ ____
ROOT
ATOM      1  N   UNL     1       4.174  -0.415   0.353  0.00  0.00    -0.239 N 
ATOM      2  C   UNL     1       4.605   0.573  -0.473  0.00  0.00    +0.116 A 
ATOM      3  C   UNL     1       3.576   1.425  -0.674  0.00  0.00    -0.019 A 
ATOM      4  C   UNL     1       2.472   0.950   0.062  0.00  0.00    +0.095 A 
ATOM      5  N   UNL     1       2.835  -0.157   0.675  0.00  0.00    -0.166 NA
ENDROOT
BRANCH   1  12
ATOM      6  C   UNL     1       4.112  -1.037   3.130  0.00  0.00    +0.046 C 
ATOM      7  C   UNL     1       4.933  -1.839   2.152  0.00  0.00    -0.025 A 
ATOM      8  C   UNL     1       5.680  -2.913   2.594  0.00  0.00    +0.005 A 
ATOM      9  C   UNL     1       6.438  -3.645   1.699  0.00  0.00    +0.000 A 
ATOM     10  C   UNL     1       6.446  -3.308   0.358  0.00  0.00    +0.002 A 
ATOM     11  C   UNL     1       5.696  -2.238  -0.091  0.00  0.00    +0.028 A 
ATOM     12  C   UNL     1       4.934  -1.501   0.806  0.00  0.00    +0.068 A 
ENDBRANCH   1  12
BRANCH   4  13
ATOM     13  C   UNL     1       1.132   1.584   0.129  0.00  0.00    +0.005 A 
ATOM     14  C   UNL     1      -0.016   0.798   0.057  0.00  0.00    +0.014 A 
ATOM     15  C   UNL     1      -1.261   1.390   0.113  0.00  0.00    +0.049 A 
ATOM     16  C   UNL     1      -1.372   2.766   0.252  0.00  0.00    +0.155 A 
ATOM     17  C   UNL     1      -0.229   3.554   0.324  0.00  0.00    +0.165 A 
ATOM     18  C   UNL     1       1.020   2.967   0.263  0.00  0.00    +0.052 A 
ATOM     19  F   UNL     1      -0.339   4.894   0.454  0.00  0.00    -0.202 F 
BRANCH  16  20
ATOM     20  O   UNL     1      -2.600   3.346   0.312  0.00  0.00    -0.492 OA
ATOM     21  C   UNL     1      -3.732   2.477   0.232  0.00  0.00    +0.277 C 
ENDBRANCH  16  20
ENDBRANCH   4  13
BRANCH   3  22
ATOM     22  C   UNL     1       3.605   2.664  -1.530  0.00  0.00    -0.042 C 
BRANCH  22  23
ATOM     23  N   UNL     1       2.914   2.388  -2.804  0.00  0.00    +0.386 N 
ATOM     24  H   UNL     1       1.964   2.052  -2.608  0.00  0.00    -0.085 HD
ATOM     25  H   UNL     1       3.432   1.668  -3.321  0.00  0.00    -0.085 HD
BRANCH  23  26
ATOM     26  C   UNL     1       2.837   3.613  -3.622  0.00  0.00    -0.040 C 
ATOM     27  C   UNL     1       1.611   4.429  -3.206  0.00  0.00    -0.009 C 
BRANCH  26  28
ATOM     28  C   UNL     1       2.717   3.232  -5.074  0.00  0.00    -0.021 A 
ATOM     29  C   UNL     1       2.223   2.067  -5.554  0.00  0.00    +0.110 A 
ATOM     30  N   UNL     1       2.288   2.116  -6.901  0.00  0.00    -0.274 N 
ATOM     31  N   UNL     1       2.841   3.351  -7.261  0.00  0.00    -0.177 NA
ATOM     32  C   UNL     1       3.092   4.022  -6.166  0.00  0.00    +0.062 A 
ATOM     33  C   UNL     1       3.687   5.404  -6.094  0.00  0.00    +0.068 C 
ATOM     34  C   UNL     1       1.857   1.062  -7.823  0.00  0.00    +0.172 C 
ENDBRANCH  26  28
ENDBRANCH  23  26
ENDBRANCH  22  23
ENDBRANCH   3  22
TORSDOF 7
