REMARK  Name = ZINC35745669
REMARK  9 active torsions:
REMARK  status: ('A' for Active; 'I' for Inactive)
REMARK    1  A    between atoms: C_4  and  C_7
REMARK    2  A    between atoms: C_7  and  C_8
REMARK    3  A    between atoms: C_8  and  C_10
REMARK    4  A    between atoms: C_8  and  O_36
REMARK    5  A    between atoms: C_10  and  N_11
REMARK    6  A    between atoms: N_11  and  C_12
REMARK    7  A    between atoms: N_11  and  C_30
REMARK    8  A    between atoms: C_12  and  C_13
REMARK    9  A    between atoms: C_19  and  C_24
REMARK                            x       y       z     vdW  Elec       q    Type
REMARK                         _______ _______ _______ _____ _____    ______ ____
ROOT
ATOM      1  N   UNL     1       5.788  -2.340   2.791  0.00  0.00    +0.388 N 
ATOM      2  H   UNL     1       5.612  -1.737   3.581  0.00  0.00    -0.081 HD
ENDROOT
BRANCH   1   3
ATOM      3  C   UNL     1       4.923  -3.524   2.877  0.00  0.00    -0.068 C 
ATOM      4  C   UNL     1       5.279  -4.326   4.130  0.00  0.00    -0.015 C 
ATOM      5  C   UNL     1       4.378  -5.559   4.220  0.00  0.00    -0.002 C 
ATOM      6  C   UNL     1       4.583  -6.432   2.980  0.00  0.00    -0.000 C 
ATOM      7  C   UNL     1       4.227  -5.630   1.727  0.00  0.00    -0.002 C 
ATOM      8  C   UNL     1       5.128  -4.396   1.637  0.00  0.00    -0.015 C 
ENDBRANCH   1   3
BRANCH   1   9
ATOM      9  C   UNL     1       5.500  -1.613   1.547  0.00  0.00    -0.046 C 
BRANCH   9  10
ATOM     10  C   UNL     1       4.072  -1.065   1.594  0.00  0.00    +0.102 C 
BRANCH  10  11
ATOM     11  O   UNL     1       3.940  -0.174   2.703  0.00  0.00    -0.393 OA
ATOM     12  H   UNL     1       4.536   0.587   2.669  0.00  0.00    +0.210 HD
ENDBRANCH  10  11
BRANCH  10  13
ATOM     13  C   UNL     1       3.771  -0.314   0.296  0.00  0.00    +0.064 C 
BRANCH  13  17
ATOM     14  C   UNL     1      -0.320   0.915   0.276  0.00  0.00    +0.000 A 
ATOM     15  C   UNL     1       0.649   1.746   0.806  0.00  0.00    +0.000 A 
ATOM     16  C   UNL     1       1.973   1.349   0.813  0.00  0.00    +0.004 A 
ATOM     17  C   UNL     1       2.328   0.119   0.290  0.00  0.00    -0.045 A 
ATOM     18  C   UNL     1       1.359  -0.713  -0.240  0.00  0.00    +0.004 A 
ATOM     19  C   UNL     1       0.035  -0.315  -0.248  0.00  0.00    +0.000 A 
ENDBRANCH  13  17
ENDBRANCH  10  13
ENDBRANCH   9  10
ENDBRANCH   1   9
BRANCH   1  20
ATOM     20  C   UNL     1       7.195  -2.760   2.799  0.00  0.00    -0.003 C 
BRANCH  20  21
ATOM     21  C   UNL     1       7.662  -2.926   4.222  0.00  0.00    +0.094 A 
ATOM     22  N   UNL     1       8.893  -3.446   4.464  0.00  0.00    -0.312 N 
ATOM     23  H   UNL     1       9.455  -3.703   3.717  0.00  0.00    +0.170 HD
ATOM     24  C   UNL     1       9.347  -3.610   5.720  0.00  0.00    +0.260 A 
ATOM     25  O   UNL     1      10.455  -4.077   5.921  0.00  0.00    -0.267 OA
ATOM     26  C   UNL     1       8.510  -3.227   6.817  0.00  0.00    +0.080 A 
ATOM     27  C   UNL     1       8.773  -3.305   8.249  0.00  0.00    +0.004 A 
ATOM     28  C   UNL     1       7.819  -2.878   9.110  0.00  0.00    +0.056 A 
ATOM     29  S   UNL     1       6.502  -2.342   8.035  0.00  0.00    -0.076 S 
ATOM     30  C   UNL     1       7.256  -2.701   6.469  0.00  0.00    +0.116 A 
ATOM     31  N   UNL     1       6.878  -2.563   5.201  0.00  0.00    -0.229 NA
BRANCH  27  32
ATOM     32  C   UNL     1      10.059  -3.842   8.753  0.00  0.00    -0.017 A 
ATOM     33  C   UNL     1      10.543  -5.061   8.278  0.00  0.00    +0.008 A 
ATOM     34  C   UNL     1      11.741  -5.556   8.750  0.00  0.00    +0.001 A 
ATOM     35  C   UNL     1      12.463  -4.845   9.693  0.00  0.00    +0.000 A 
ATOM     36  C   UNL     1      11.988  -3.636  10.168  0.00  0.00    +0.001 A 
ATOM     37  C   UNL     1      10.793  -3.129   9.699  0.00  0.00    +0.008 A 
ENDBRANCH  27  32
ENDBRANCH  20  21
ENDBRANCH   1  20
TORSDOF 9
