REMARK  Name = ZINC05885964
REMARK  10 active torsions:
REMARK  status: ('A' for Active; 'I' for Inactive)
REMARK    1  A    between atoms: C_1  and  C_2
REMARK    2  A    between atoms: C_7  and  S_15
REMARK    3  A    between atoms: S_15  and  C_16
REMARK    4  A    between atoms: C_16  and  C_17
REMARK    5  A    between atoms: N_19  and  C_20
REMARK    6  A    between atoms: C_20  and  C_21
REMARK    7  A    between atoms: C_21  and  C_23
REMARK    8  A    between atoms: C_21  and  N_29
REMARK    9  A    between atoms: N_29  and  C_30
REMARK   10  A    between atoms: N_29  and  C_31
REMARK                            x       y       z     vdW  Elec       q    Type
REMARK                         _______ _______ _______ _____ _____    ______ ____
ROOT
ATOM      1  C   UNL     1       0.750  -7.215  -1.374  0.00  0.00    +0.173 C 
ENDROOT
BRANCH   1   2
ATOM      2  C   UNL     1       0.507  -8.306  -0.363  0.00  0.00    +0.223 C 
ATOM      3  O   UNL     1       0.319  -8.023   0.801  0.00  0.00    -0.275 OA
ATOM      4  N   UNL     1       0.497  -9.596  -0.753  0.00  0.00    -0.316 N 
ATOM      5  H   UNL     1       0.647  -9.822  -1.685  0.00  0.00    +0.149 HD
BRANCH   4   6
ATOM      6  C   UNL     1       0.260 -10.656   0.230  0.00  0.00    +0.093 C 
BRANCH   6   7
ATOM      7  C   UNL     1       0.173 -12.005  -0.487  0.00  0.00    -0.021 C 
BRANCH   7   8
ATOM      8  C   UNL     1      -1.038 -12.020  -1.384  0.00  0.00    -0.059 A 
ATOM      9  C   UNL     1      -2.291 -12.255  -0.850  0.00  0.00    +0.002 A 
ATOM     10  C   UNL     1      -3.402 -12.269  -1.673  0.00  0.00    +0.000 A 
ATOM     11  C   UNL     1      -3.260 -12.047  -3.030  0.00  0.00    +0.000 A 
ATOM     12  C   UNL     1      -2.007 -11.810  -3.564  0.00  0.00    +0.000 A 
ATOM     13  C   UNL     1      -0.896 -11.793  -2.740  0.00  0.00    +0.002 A 
ENDBRANCH   7   8
BRANCH   7  14
ATOM     14  N   UNL     1       0.059 -13.081   0.507  0.00  0.00    +0.382 N 
ATOM     15  C   UNL     1      -0.075 -14.372  -0.182  0.00  0.00    -0.096 C 
ATOM     16  C   UNL     1       1.262 -13.099   1.349  0.00  0.00    -0.096 C 
ATOM     17  H   UNL     1      -0.753 -12.921   1.084  0.00  0.00    -0.082 HD
ENDBRANCH   7  14
ENDBRANCH   6   7
ENDBRANCH   4   6
ENDBRANCH   1   2
BRANCH   1  18
ATOM     18  S   UNL     1       0.702  -5.602  -0.546  0.00  0.00    -0.076 S 
BRANCH  18  25
ATOM     19  C   UNL     1       1.447   1.142  -2.451  0.00  0.00    +0.044 C 
ATOM     20  C   UNL     1       1.313  -0.338  -2.202  0.00  0.00    -0.038 A 
ATOM     21  C   UNL     1       1.438  -1.218  -3.221  0.00  0.00    +0.052 A 
ATOM     22  C   UNL     1       1.312  -2.607  -2.987  0.00  0.00    +0.162 A 
ATOM     23  N   UNL     1       1.389  -3.655  -3.786  0.00  0.00    -0.129 NA
ATOM     24  N   UNL     1       1.205  -4.734  -3.111  0.00  0.00    -0.122 NA
ATOM     25  C   UNL     1       1.000  -4.447  -1.844  0.00  0.00    +0.197 A 
ATOM     26  N   UNL     1       1.061  -3.090  -1.722  0.00  0.00    -0.270 N 
ATOM     27  C   UNL     1       0.924  -2.228  -0.648  0.00  0.00    +0.058 A 
ATOM     28  C   UNL     1       1.052  -0.842  -0.851  0.00  0.00    +0.002 A 
ATOM     29  C   UNL     1       0.921   0.033   0.231  0.00  0.00    +0.010 A 
ATOM     30  C   UNL     1       0.675  -0.469   1.490  0.00  0.00    +0.001 A 
ATOM     31  C   UNL     1       0.557  -1.836   1.688  0.00  0.00    +0.002 A 
ATOM     32  C   UNL     1       0.671  -2.713   0.628  0.00  0.00    +0.027 A 
ENDBRANCH  18  25
ENDBRANCH   1  18
TORSDOF 7
