REMARK  Name = ZINC63383873
REMARK  11 active torsions:
REMARK  status: ('A' for Active; 'I' for Inactive)
REMARK    1  A    between atoms: C_1  and  C_2
REMARK    2  A    between atoms: C_2  and  C_3
REMARK    3  A    between atoms: C_3  and  C_4
REMARK    4  A    between atoms: C_4  and  N_5
REMARK    5  A    between atoms: C_6  and  C_8
REMARK    6  A    between atoms: C_8  and  C_10
REMARK    7  A    between atoms: C_8  and  N_15
REMARK    8  A    between atoms: C_10  and  C_12
REMARK    9  A    between atoms: C_10  and  C_13
REMARK   10  A    between atoms: C_13  and  C_14
REMARK   11  A    between atoms: C_16  and  C_18
REMARK                            x       y       z     vdW  Elec       q    Type
REMARK                         _______ _______ _______ _____ _____    ______ ____
ROOT
ATOM      1  C   UNL     1      -7.086  -5.994  -0.569  0.00  0.00    +0.167 C 
ATOM      2  C   UNL     1      -6.368  -6.611  -1.785  0.00  0.00    +0.065 C 
ATOM      3  C   UNL     1      -7.368  -6.656  -2.912  0.00  0.00    -0.034 C 
ATOM      4  C   UNL     1      -7.731  -7.662  -3.704  0.00  0.00    -0.001 A 
ATOM      5  C   UNL     1      -7.230  -9.040  -3.825  0.00  0.00    +0.010 A 
ATOM      6  C   UNL     1      -7.852  -9.825  -4.744  0.00  0.00    +0.001 A 
ATOM      7  C   UNL     1      -8.909  -9.382  -5.545  0.00  0.00    +0.002 A 
ATOM      8  C   UNL     1      -9.429  -8.129  -5.505  0.00  0.00    +0.026 A 
ATOM      9  C   UNL     1      -8.853  -7.209  -4.581  0.00  0.00    +0.043 A 
ATOM     10  N   UNL     1      -9.137  -5.962  -4.348  0.00  0.00    -0.375 N 
ATOM     11  C   UNL     1      -8.201  -5.457  -3.342  0.00  0.00    +0.131 C 
ATOM     12  C   UNL     1      -8.920  -4.934  -2.100  0.00  0.00    +0.134 C 
ATOM     13  N   UNL     1      -8.484  -5.743  -0.943  0.00  0.00    -0.276 N 
ATOM     14  C   UNL     1      -9.577  -6.215  -0.312  0.00  0.00    +0.248 C 
ATOM     15  O   UNL     1      -9.567  -6.812   0.746  0.00  0.00    -0.270 OA
ATOM     16  C   UNL     1     -10.778  -5.903  -1.089  0.00  0.00    +0.042 A 
ATOM     17  C   UNL     1     -10.400  -5.098  -2.211  0.00  0.00    -0.013 A 
ATOM     18  C   UNL     1     -11.310  -4.636  -3.136  0.00  0.00    +0.006 A 
ATOM     19  C   UNL     1     -12.645  -4.973  -2.932  0.00  0.00    +0.000 A 
ATOM     20  C   UNL     1     -13.047  -5.733  -1.852  0.00  0.00    +0.001 A 
ATOM     21  C   UNL     1     -12.116  -6.247  -0.879  0.00  0.00    +0.013 A 
ATOM     22  H   UNL     1      -9.847  -5.453  -4.769  0.00  0.00    +0.160 HD
ENDROOT
BRANCH   1  24
ATOM     23  N   UNL     1      -5.124  -4.686   0.178  0.00  0.00    -0.302 N 
ATOM     24  C   UNL     1      -6.421  -4.696  -0.189  0.00  0.00    +0.235 C 
ATOM     25  O   UNL     1      -7.052  -3.661  -0.214  0.00  0.00    -0.274 OA
ATOM     26  H   UNL     1      -4.600  -5.501   0.129  0.00  0.00    +0.150 HD
BRANCH  23  27
ATOM     27  C   UNL     1      -4.506  -3.445   0.651  0.00  0.00    +0.162 C 
BRANCH  27  29
ATOM     28  N   UNL     1      -2.336  -2.280   0.417  0.00  0.00    -0.314 N 
ATOM     29  C   UNL     1      -3.086  -3.368   0.151  0.00  0.00    +0.234 C 
ATOM     30  O   UNL     1      -2.619  -4.285  -0.490  0.00  0.00    -0.274 OA
ATOM     31  H   UNL     1      -2.733  -1.513   0.858  0.00  0.00    +0.149 HD
BRANCH  28  32
ATOM     32  C   UNL     1      -0.921  -2.257   0.039  0.00  0.00    +0.104 C 
BRANCH  32  33
ATOM     33  C   UNL     1      -0.306  -0.918   0.451  0.00  0.00    +0.018 C 
BRANCH  33  35
ATOM     34  C   UNL     1       1.788   0.446   0.468  0.00  0.00    +0.004 C 
ATOM     35  C   UNL     1       1.173  -0.893   0.056  0.00  0.00    -0.002 C 
ENDBRANCH  33  35
ENDBRANCH  32  33
ENDBRANCH  28  32
ENDBRANCH  27  29
BRANCH  27  36
ATOM     36  C   UNL     1      -4.510  -3.424   2.181  0.00  0.00    +0.015 C 
ATOM     37  C   UNL     1      -5.951  -3.329   2.686  0.00  0.00    +0.010 C 
BRANCH  36  38
ATOM     38  C   UNL     1      -3.867  -4.708   2.710  0.00  0.00    +0.002 C 
ATOM     39  C   UNL     1      -2.376  -4.710   2.368  0.00  0.00    +0.004 C 
ENDBRANCH  36  38
ENDBRANCH  27  36
ENDBRANCH  23  27
ENDBRANCH   1  24
TORSDOF 8
