REMARK  Name = ZINC00131709
REMARK  5 active torsions:
REMARK  status: ('A' for Active; 'I' for Inactive)
REMARK    1  A    between atoms: C_1  and  C_2
REMARK    2  A    between atoms: C_2  and  C_3
REMARK    3  A    between atoms: C_6  and  C_9
REMARK    4  A    between atoms: N_16  and  C_19
REMARK    5  A    between atoms: C_19  and  C_20
REMARK                            x       y       z     vdW  Elec       q    Type
REMARK                         _______ _______ _______ _____ _____    ______ ____
ROOT
ATOM      1  C   UNL     1      -1.309   2.116   0.020  0.00  0.00    +0.004 A 
ATOM      2  C   UNL     1      -2.280   1.810  -0.874  0.00  0.00    +0.056 A 
ATOM      3  S   UNL     1      -3.597   2.935  -0.454  0.00  0.00    -0.076 S 
ATOM      4  C   UNL     1      -2.818   3.788   0.893  0.00  0.00    +0.116 A 
ATOM      5  C   UNL     1      -1.556   3.178   0.988  0.00  0.00    +0.080 A 
ATOM      6  C   UNL     1      -0.699   3.684   2.016  0.00  0.00    +0.263 A 
ATOM      7  O   UNL     1       0.416   3.219   2.177  0.00  0.00    -0.267 OA
ATOM      8  N   UNL     1      -1.143   4.683   2.803  0.00  0.00    -0.290 N 
ATOM      9  C   UNL     1      -2.381   5.213   2.638  0.00  0.00    +0.203 A 
ATOM     10  N   UNL     1      -3.186   4.773   1.708  0.00  0.00    -0.230 NA
ENDROOT
BRANCH   1  14
ATOM     11  C   UNL     1       2.396   0.033  -0.021  0.00  0.00    -0.048 A 
ATOM     12  C   UNL     1       1.208  -0.675  -0.013  0.00  0.00    +0.004 A 
ATOM     13  C   UNL     1       0.002  -0.004   0.002  0.00  0.00    +0.009 A 
ATOM     14  C   UNL     1      -0.017   1.390   0.010  0.00  0.00    -0.017 A 
ATOM     15  C   UNL     1       1.184   2.098   0.002  0.00  0.00    +0.009 A 
ATOM     16  C   UNL     1       2.384   1.416  -0.013  0.00  0.00    +0.004 A 
BRANCH  11  18
ATOM     17  C   UNL     1       4.141  -0.948  -1.485  0.00  0.00    +0.009 C 
ATOM     18  C   UNL     1       3.710  -0.706  -0.037  0.00  0.00    +0.032 C 
ENDBRANCH  11  18
ENDBRANCH   1  14
BRANCH   8  19
ATOM     19  C   UNL     1      -0.271   5.207   3.857  0.00  0.00    +0.221 C 
BRANCH  19  20
ATOM     20  C   UNL     1       0.556   6.340   3.308  0.00  0.00    +0.230 C 
ATOM     21  O   UNL     1       0.431   6.676   2.150  0.00  0.00    -0.274 OA
ATOM     22  N   UNL     1       1.436   6.979   4.104  0.00  0.00    -0.328 N 
ATOM     23  H   UNL     1       1.536   6.710   5.030  0.00  0.00    +0.145 HD
ATOM     24  H   UNL     1       1.969   7.709   3.750  0.00  0.00    +0.145 HD
ENDBRANCH  19  20
ENDBRANCH   8  19
TORSDOF 4
