REMARK  Name = ZINC14550614
REMARK  7 active torsions:
REMARK  status: ('A' for Active; 'I' for Inactive)
REMARK    1  A    between atoms: C_1  and  C_2
REMARK    2  A    between atoms: C_2  and  C_3
REMARK    3  A    between atoms: C_3  and  C_4
REMARK    4  A    between atoms: N_6  and  C_7
REMARK    5  A    between atoms: C_20  and  C_23
REMARK    6  A    between atoms: C_27  and  O_29
REMARK    7  A    between atoms: O_29  and  C_30
REMARK                            x       y       z     vdW  Elec       q    Type
REMARK                         _______ _______ _______ _____ _____    ______ ____
ROOT
ATOM      1  C   UNL     1      -1.016   8.928   1.064  0.00  0.00    +0.034 A 
ATOM      2  C   UNL     1      -1.403   8.920  -0.270  0.00  0.00    +0.025 A 
ATOM      3  C   UNL     1      -1.864   7.757  -0.849  0.00  0.00    +0.025 A 
ATOM      4  C   UNL     1      -1.945   6.585  -0.107  0.00  0.00    +0.031 A 
ATOM      5  C   UNL     1      -1.542   6.594   1.233  0.00  0.00    -0.018 A 
ATOM      6  C   UNL     1      -1.089   7.760   1.811  0.00  0.00    +0.029 A 
ATOM      7  C   UNL     1      -1.602   5.315   1.974  0.00  0.00    +0.049 C 
ATOM      8  C   UNL     1      -1.784   5.270   3.447  0.00  0.00    -0.023 C 
ATOM      9  C   UNL     1      -2.451   4.165   3.759  0.00  0.00    -0.030 C 
ATOM     10  C   UNL     1      -2.802   3.390   2.487  0.00  0.00    +0.033 C 
ATOM     11  C   UNL     1      -2.842   4.519   1.458  0.00  0.00    +0.029 C 
ATOM     12  C   UNL     1      -2.511   4.142   0.025  0.00  0.00    +0.105 C 
ATOM     13  N   UNL     1      -2.432   5.419  -0.717  0.00  0.00    -0.336 N 
ATOM     14  H   UNL     1      -2.722   5.452  -1.642  0.00  0.00    +0.147 HD
ENDROOT
BRANCH  12  15
ATOM     15  C   UNL     1      -1.187   3.424  -0.031  0.00  0.00    -0.024 A 
ATOM     16  C   UNL     1      -0.017   4.144  -0.191  0.00  0.00    +0.006 A 
ATOM     17  C   UNL     1       1.199   3.488  -0.243  0.00  0.00    +0.004 A 
ATOM     18  C   UNL     1       1.247   2.111  -0.138  0.00  0.00    +0.045 A 
ATOM     19  C   UNL     1       0.075   1.387   0.022  0.00  0.00    +0.120 A 
ATOM     20  C   UNL     1      -1.144   2.047   0.070  0.00  0.00    +0.051 A 
BRANCH  19  21
ATOM     21  O   UNL     1       0.120   0.033   0.126  0.00  0.00    -0.495 OA
ATOM     22  C   UNL     1       1.410  -0.580   0.062  0.00  0.00    +0.277 C 
ENDBRANCH  19  21
ENDBRANCH  12  15
BRANCH   1  25
ATOM     23  C   UNL     1      -1.057  11.300   1.264  0.00  0.00    +0.217 C 
ATOM     24  O   UNL     1      -1.973  11.340   0.471  0.00  0.00    -0.275 OA
ATOM     25  N   UNL     1      -0.554  10.112   1.655  0.00  0.00    -0.285 N 
ATOM     26  H   UNL     1       0.127  10.076   2.344  0.00  0.00    +0.155 HD
BRANCH  23  27
ATOM     27  C   UNL     1      -0.480  12.579   1.814  0.00  0.00    +0.096 C 
BRANCH  27  29
ATOM     28  C   UNL     1      -0.639  15.072   1.772  0.00  0.00    +0.004 C 
ATOM     29  C   UNL     1      -1.224  13.774   1.214  0.00  0.00    +0.006 C 
ENDBRANCH  27  29
ENDBRANCH  23  27
ENDBRANCH   1  25
TORSDOF 5
