REMARK  Name = ZINC67649044
REMARK  6 active torsions:
REMARK  status: ('A' for Active; 'I' for Inactive)
REMARK    1  A    between atoms: C_1  and  C_2
REMARK    2  A    between atoms: C_2  and  C_3
REMARK    3  A    between atoms: C_2  and  C_4
REMARK    4  A    between atoms: C_6  and  C_10
REMARK    5  A    between atoms: C_16  and  C_18
REMARK    6  A    between atoms: C_18  and  C_19
REMARK                            x       y       z     vdW  Elec       q    Type
REMARK                         _______ _______ _______ _____ _____    ______ ____
ROOT
ATOM      1  C   UNL     1      -4.570  -1.548   1.630  0.00  0.00    +0.040 C 
ATOM      2  C   UNL     1      -4.534  -3.044   1.950  0.00  0.00    +0.028 C 
ATOM      3  C   UNL     1      -5.699  -3.390   2.882  0.00  0.00    +0.108 C 
ATOM      4  N   UNL     1      -6.951  -2.937   2.262  0.00  0.00    -0.301 N 
ATOM      5  C   UNL     1      -7.059  -1.536   1.832  0.00  0.00    +0.108 C 
ATOM      6  C   UNL     1      -5.879  -1.210   0.912  0.00  0.00    +0.028 C 
ATOM      7  C   UNL     1      -7.981  -3.789   2.091  0.00  0.00    +0.220 C 
ATOM      8  O   UNL     1      -7.879  -4.943   2.450  0.00  0.00    -0.275 OA
ENDROOT
BRANCH   1  11
ATOM      9  C   UNL     1      -1.412  -0.526   0.013  0.00  0.00    +0.066 A 
ATOM     10  C   UNL     1      -2.207  -0.718   1.147  0.00  0.00    +0.048 A 
ATOM     11  C   UNL     1      -3.405  -1.197   0.741  0.00  0.00    +0.039 A 
ATOM     12  N   UNL     1      -3.370  -1.304  -0.604  0.00  0.00    -0.281 N 
ATOM     13  H   UNL     1      -4.091  -1.621  -1.171  0.00  0.00    +0.189 HD
ATOM     14  N   UNL     1      -2.110  -0.872  -1.038  0.00  0.00    -0.178 NA
BRANCH   9  16
ATOM     15  C   UNL     1      -0.019   1.526   0.010  0.00  0.00    +0.014 C 
ATOM     16  C   UNL     1       0.002  -0.004   0.002  0.00  0.00    +0.033 C 
ATOM     17  C   UNL     1       0.742  -0.511   1.242  0.00  0.00    +0.014 C 
ENDBRANCH   9  16
ENDBRANCH   1  11
BRANCH   7  18
ATOM     18  C   UNL     1      -9.259  -3.308   1.453  0.00  0.00    +0.133 C 
BRANCH  18  19
ATOM     19  C   UNL     1     -10.243  -4.447   1.379  0.00  0.00    -0.014 A 
ATOM     20  C   UNL     1     -10.441  -5.265   0.333  0.00  0.00    +0.087 A 
ATOM     21  N   UNL     1     -11.414  -6.179   0.632  0.00  0.00    -0.360 N 
ATOM     22  H   UNL     1     -11.730  -6.873   0.033  0.00  0.00    +0.165 HD
ATOM     23  C   UNL     1     -11.878  -5.966   1.911  0.00  0.00    +0.047 A 
ATOM     24  C   UNL     1     -11.161  -4.876   2.437  0.00  0.00    +0.003 A 
ATOM     25  C   UNL     1     -11.419  -4.434   3.736  0.00  0.00    +0.010 A 
ATOM     26  C   UNL     1     -12.366  -5.065   4.492  0.00  0.00    +0.001 A 
ATOM     27  C   UNL     1     -13.074  -6.144   3.979  0.00  0.00    +0.002 A 
ATOM     28  C   UNL     1     -12.842  -6.591   2.696  0.00  0.00    +0.026 A 
ENDBRANCH  18  19
ENDBRANCH   7  18
TORSDOF 4
