REMARK  Name = ZINC14944165
REMARK  8 active torsions:
REMARK  status: ('A' for Active; 'I' for Inactive)
REMARK    1  A    between atoms: C_1  and  C_2
REMARK    2  A    between atoms: C_2  and  O_3
REMARK    3  A    between atoms: O_3  and  C_4
REMARK    4  A    between atoms: C_4  and  C_6
REMARK    5  A    between atoms: C_6  and  N_7
REMARK    6  A    between atoms: C_21  and  C_24
REMARK    7  A    between atoms: C_24  and  C_25
REMARK    8  A    between atoms: N_33  and  C_36
REMARK                            x       y       z     vdW  Elec       q    Type
REMARK                         _______ _______ _______ _____ _____    ______ ____
ROOT
ATOM      1  N   UNL     1       0.180   5.231   0.025  0.00  0.00    -0.259 N 
ATOM      2  C   UNL     1      -0.049   3.853   0.022  0.00  0.00    +0.042 A 
ATOM      3  C   UNL     1      -1.240   3.132   0.029  0.00  0.00    +0.024 A 
ATOM      4  C   UNL     1      -1.219   1.753   0.017  0.00  0.00    +0.002 A 
ATOM      5  C   UNL     1      -0.013   1.076   0.008  0.00  0.00    +0.000 A 
ATOM      6  C   UNL     1       1.174   1.785   0.000  0.00  0.00    +0.008 A 
ATOM      7  C   UNL     1       1.161   3.162   0.010  0.00  0.00    +0.004 A 
ATOM      8  C   UNL     1       2.228   4.214   0.007  0.00  0.00    +0.136 C 
ATOM      9  C   UNL     1       1.495   5.527   0.014  0.00  0.00    +0.246 C 
ATOM     10  O   UNL     1       1.990   6.634   0.010  0.00  0.00    -0.273 OA
ATOM     11  C   UNL     1       3.214   4.089   1.149  0.00  0.00    +0.123 C 
ATOM     12  C   UNL     1       4.023   2.862   0.583  0.00  0.00    +0.108 C 
ATOM     13  C   UNL     1       4.161   3.099  -0.855  0.00  0.00    +0.072 C 
ATOM     14  N   UNL     1       3.098   4.104  -1.200  0.00  0.00    -0.295 NA
ATOM     15  C   UNL     1       4.764   2.432   1.745  0.00  0.00    +0.232 C 
ATOM     16  O   UNL     1       5.892   1.990   1.789  0.00  0.00    -0.274 OA
ATOM     17  N   UNL     1       3.894   2.640   2.791  0.00  0.00    -0.210 N 
ATOM     18  C   UNL     1       2.846   3.451   2.453  0.00  0.00    +0.233 C 
ATOM     19  O   UNL     1       1.824   3.620   3.082  0.00  0.00    -0.274 OA
ATOM     20  H   UNL     1       2.496   3.767  -2.057  0.00  0.00    +0.124 HD
ENDROOT
BRANCH  17  21
ATOM     21  C   UNL     1       4.063   2.081   4.066  0.00  0.00    +0.044 A 
ATOM     22  C   UNL     1       3.141   2.345   5.069  0.00  0.00    +0.024 A 
ATOM     23  C   UNL     1       3.308   1.789   6.322  0.00  0.00    +0.002 A 
ATOM     24  C   UNL     1       4.397   0.978   6.581  0.00  0.00    +0.000 A 
ATOM     25  C   UNL     1       5.321   0.717   5.585  0.00  0.00    +0.002 A 
ATOM     26  C   UNL     1       5.156   1.266   4.328  0.00  0.00    +0.024 A 
ENDBRANCH  17  21
BRANCH   1  27
ATOM     27  C   UNL     1      -0.884   6.238   0.038  0.00  0.00    +0.234 C 
BRANCH  27  28
ATOM     28  C   UNL     1      -1.262   6.587  -1.379  0.00  0.00    +0.325 C 
ATOM     29  O   UNL     1      -0.700   6.050  -2.304  0.00  0.00    -0.249 OA
BRANCH  28  30
ATOM     30  O   UNL     1      -2.223   7.494  -1.613  0.00  0.00    -0.464 OA
BRANCH  30  32
ATOM     31  C   UNL     1      -3.646   8.831  -3.069  0.00  0.00    +0.048 C 
ATOM     32  C   UNL     1      -2.535   7.781  -3.002  0.00  0.00    +0.229 C 
ENDBRANCH  30  32
ENDBRANCH  28  30
ENDBRANCH  27  28
ENDBRANCH   1  27
BRANCH  13  33
ATOM     33  C   UNL     1       3.935   1.800  -1.630  0.00  0.00    +0.054 C 
BRANCH  33  34
ATOM     34  C   UNL     1       4.201   2.036  -3.095  0.00  0.00    -0.046 A 
ATOM     35  C   UNL     1       3.173   2.434  -3.928  0.00  0.00    +0.004 A 
ATOM     36  C   UNL     1       3.419   2.655  -5.271  0.00  0.00    +0.000 A 
ATOM     37  C   UNL     1       4.689   2.468  -5.781  0.00  0.00    +0.000 A 
ATOM     38  C   UNL     1       5.716   2.064  -4.948  0.00  0.00    +0.000 A 
ATOM     39  C   UNL     1       5.472   1.848  -3.605  0.00  0.00    +0.004 A 
ENDBRANCH  33  34
ENDBRANCH  13  33
TORSDOF 7
