REMARK  Name = ZINC61460520
REMARK  7 active torsions:
REMARK  status: ('A' for Active; 'I' for Inactive)
REMARK    1  A    between atoms: C_1  and  C_2
REMARK    2  A    between atoms: C_2  and  C_3
REMARK    3  A    between atoms: C_2  and  C_4
REMARK    4  A    between atoms: C_7  and  C_10
REMARK    5  A    between atoms: C_11  and  C_12
REMARK    6  A    between atoms: N_14  and  C_15
REMARK    7  A    between atoms: C_19  and  C_21
REMARK                            x       y       z     vdW  Elec       q    Type
REMARK                         _______ _______ _______ _____ _____    ______ ____
ROOT
ATOM      1  C   UNL     1      -7.202  -3.283  -0.954  0.00  0.00    +0.241 C 
ATOM      2  O   UNL     1      -7.945  -3.008  -0.030  0.00  0.00    -0.270 OA
ATOM      3  N   UNL     1      -7.641  -4.061  -1.963  0.00  0.00    -0.282 N 
ATOM      4  H   UNL     1      -7.072  -4.226  -2.731  0.00  0.00    +0.155 HD
ENDROOT
BRANCH   3   5
ATOM      5  C   UNL     1      -8.917  -4.631  -1.902  0.00  0.00    +0.034 A 
ATOM      6  C   UNL     1      -9.137  -5.899  -2.428  0.00  0.00    +0.023 A 
ATOM      7  C   UNL     1     -10.396  -6.465  -2.370  0.00  0.00    +0.002 A 
ATOM      8  C   UNL     1     -11.442  -5.776  -1.789  0.00  0.00    +0.010 A 
ATOM      9  C   UNL     1     -11.230  -4.504  -1.259  0.00  0.00    +0.004 A 
ATOM     10  C   UNL     1      -9.960  -3.934  -1.312  0.00  0.00    +0.033 A 
BRANCH   9  11
ATOM     11  C   UNL     1     -12.353  -3.762  -0.635  0.00  0.00    +0.091 A 
ATOM     12  C   UNL     1     -13.638  -4.349  -0.573  0.00  0.00    +0.035 A 
ATOM     13  C   UNL     1     -14.646  -3.637   0.008  0.00  0.00    +0.073 A 
ATOM     14  C   UNL     1     -14.342  -2.354   0.513  0.00  0.00    +0.265 A 
ATOM     15  O   UNL     1     -15.212  -1.680   1.042  0.00  0.00    -0.266 OA
ATOM     16  N   UNL     1     -13.087  -1.879   0.407  0.00  0.00    -0.243 N 
ATOM     17  H   UNL     1     -12.885  -0.997   0.756  0.00  0.00    +0.192 HD
ATOM     18  N   UNL     1     -12.148  -2.565  -0.138  0.00  0.00    -0.171 NA
ENDBRANCH   9  11
ENDBRANCH   3   5
BRANCH   1  20
ATOM     19  C   UNL     1      -5.392  -1.991   0.041  0.00  0.00    +0.013 C 
ATOM     20  C   UNL     1      -5.832  -2.769  -0.969  0.00  0.00    +0.068 C 
BRANCH  19  24
ATOM     21  C   UNL     1      -1.420  -0.502  -0.003  0.00  0.00    -0.045 A 
ATOM     22  C   UNL     1      -2.262  -0.187   1.050  0.00  0.00    +0.004 A 
ATOM     23  C   UNL     1      -3.555  -0.667   1.071  0.00  0.00    +0.008 A 
ATOM     24  C   UNL     1      -4.014  -1.474   0.025  0.00  0.00    -0.025 A 
ATOM     25  C   UNL     1      -3.157  -1.788  -1.034  0.00  0.00    +0.008 A 
ATOM     26  C   UNL     1      -1.869  -1.296  -1.044  0.00  0.00    +0.004 A 
BRANCH  21  28
ATOM     27  C   UNL     1      -0.037   1.556  -0.003  0.00  0.00    +0.012 C 
ATOM     28  C   UNL     1      -0.009   0.027  -0.018  0.00  0.00    +0.013 C 
ATOM     29  C   UNL     1       0.739  -0.481   1.216  0.00  0.00    +0.012 C 
ENDBRANCH  21  28
ENDBRANCH  19  24
ENDBRANCH   1  20
TORSDOF 5
