REMARK  Name = ZINC16607665
REMARK  13 active torsions:
REMARK  status: ('A' for Active; 'I' for Inactive)
REMARK    1  A    between atoms: C_1  and  C_2
REMARK    2  A    between atoms: C_2  and  C_3
REMARK    3  A    between atoms: C_3  and  C_5
REMARK    4  A    between atoms: C_3  and  C_6
REMARK    5  A    between atoms: C_6  and  C_8
REMARK    6  A    between atoms: C_6  and  N_25
REMARK    7  A    between atoms: C_14  and  C_16
REMARK    8  A    between atoms: C_19  and  N_22
REMARK    9  A    between atoms: N_22  and  C_23
REMARK   10  A    between atoms: N_22  and  C_24
REMARK   11  A    between atoms: N_25  and  S_26
REMARK   12  A    between atoms: S_26  and  C_29
REMARK   13  A    between atoms: C_32  and  C_35
REMARK                            x       y       z     vdW  Elec       q    Type
REMARK                         _______ _______ _______ _____ _____    ______ ____
ROOT
ATOM      1  C   UNL     1      -2.743   1.385   2.746  0.00  0.00    +0.238 C 
ATOM      2  O   UNL     1      -3.786   1.976   2.566  0.00  0.00    -0.274 OA
ATOM      3  N   UNL     1      -2.259   1.236   3.995  0.00  0.00    -0.262 N 
ATOM      4  C   UNL     1      -3.004   1.669   5.085  0.00  0.00    +0.188 A 
ATOM      5  N   UNL     1      -4.194   2.255   5.126  0.00  0.00    -0.125 NA
ATOM      6  N   UNL     1      -4.738   2.585   6.215  0.00  0.00    -0.140 NA
ATOM      7  C   UNL     1      -4.146   2.377   7.385  0.00  0.00    +0.134 A 
ATOM      8  S   UNL     1      -2.627   1.605   6.834  0.00  0.00    -0.030 S 
ATOM      9  H   UNL     1      -1.391   0.825   4.133  0.00  0.00    +0.157 HD
ENDROOT
BRANCH   7  10
ATOM     10  C   UNL     1      -4.609   2.694   8.752  0.00  0.00    +0.009 A 
ATOM     11  C   UNL     1      -3.810   2.376   9.853  0.00  0.00    +0.012 A 
ATOM     12  C   UNL     1      -4.242   2.678  11.126  0.00  0.00    +0.024 A 
ATOM     13  C   UNL     1      -5.476   3.288  11.316  0.00  0.00    +0.029 A 
ATOM     14  C   UNL     1      -6.277   3.601  10.223  0.00  0.00    +0.024 A 
ATOM     15  C   UNL     1      -5.848   3.307   8.947  0.00  0.00    +0.012 A 
BRANCH  13  16
ATOM     16  N   UNL     1      -5.914   3.587  12.608  0.00  0.00    -0.336 N 
ATOM     17  C   UNL     1      -7.215   4.229  12.810  0.00  0.00    +0.129 C 
ATOM     18  C   UNL     1      -5.072   3.258  13.761  0.00  0.00    +0.129 C 
ENDBRANCH  13  16
ENDBRANCH   7  10
BRANCH   1  19
ATOM     19  C   UNL     1      -1.987   0.818   1.572  0.00  0.00    +0.165 C 
BRANCH  19  20
ATOM     20  C   UNL     1      -0.747   1.673   1.303  0.00  0.00    +0.013 C 
ATOM     21  C   UNL     1      -1.164   3.135   1.127  0.00  0.00    +0.009 C 
BRANCH  20  23
ATOM     22  C   UNL     1       0.758   0.126   2.562  0.00  0.00    +0.004 C 
ATOM     23  C   UNL     1       0.220   1.556   2.483  0.00  0.00    +0.002 C 
ENDBRANCH  20  23
ENDBRANCH  19  20
BRANCH  19  24
ATOM     24  N   UNL     1      -2.849   0.821   0.388  0.00  0.00    -0.178 NA
ATOM     25  H   UNL     1      -3.490   1.537   0.257  0.00  0.00    +0.149 HD
BRANCH  24  26
ATOM     26  S   UNL     1      -2.729  -0.397  -0.727  0.00  0.00    +0.059 S 
ATOM     27  O   UNL     1      -3.705  -0.132  -1.726  0.00  0.00    -0.153 OA
ATOM     28  O   UNL     1      -1.348  -0.537  -1.030  0.00  0.00    -0.153 OA
BRANCH  26  29
ATOM     29  C   UNL     1      -3.222  -1.887   0.074  0.00  0.00    +0.105 A 
ATOM     30  C   UNL     1      -2.281  -2.669   0.718  0.00  0.00    +0.029 A 
ATOM     31  C   UNL     1      -2.669  -3.836   1.351  0.00  0.00    +0.005 A 
ATOM     32  C   UNL     1      -3.995  -4.225   1.331  0.00  0.00    -0.050 A 
ATOM     33  C   UNL     1      -4.934  -3.446   0.683  0.00  0.00    +0.005 A 
ATOM     34  C   UNL     1      -4.548  -2.277   0.054  0.00  0.00    +0.029 A 
ATOM     35  C   UNL     1      -4.416  -5.500   2.017  0.00  0.00    +0.044 C 
ENDBRANCH  26  29
ENDBRANCH  24  26
ENDBRANCH  19  24
ENDBRANCH   1  19
TORSDOF 8
