REMARK  Name = ZINC38931092
REMARK  9 active torsions:
REMARK  status: ('A' for Active; 'I' for Inactive)
REMARK    1  A    between atoms: C_1  and  O_2
REMARK    2  A    between atoms: O_2  and  C_3
REMARK    3  A    between atoms: C_3  and  C_5
REMARK    4  A    between atoms: C_5  and  N_6
REMARK    5  A    between atoms: C_10  and  C_28
REMARK    6  A    between atoms: N_15  and  C_16
REMARK    7  A    between atoms: C_16  and  C_18
REMARK    8  A    between atoms: C_28  and  O_30
REMARK    9  A    between atoms: O_30  and  C_31
REMARK                            x       y       z     vdW  Elec       q    Type
REMARK                         _______ _______ _______ _____ _____    ______ ____
ROOT
ATOM      1  N   UNL     1       1.354  -2.503  -2.345  0.00  0.00    -0.310 N 
ATOM      2  C   UNL     1       0.638  -2.695  -3.508  0.00  0.00    +0.058 A 
ATOM      3  C   UNL     1      -0.751  -2.554  -3.691  0.00  0.00    +0.028 A 
ATOM      4  C   UNL     1      -1.330  -2.777  -4.900  0.00  0.00    +0.017 A 
ATOM      5  C   UNL     1      -0.568  -3.156  -6.011  0.00  0.00    +0.060 A 
ATOM      6  C   UNL     1       0.816  -3.305  -5.860  0.00  0.00    +0.032 A 
ATOM      7  C   UNL     1       1.387  -3.077  -4.635  0.00  0.00    +0.040 A 
ATOM      8  S   UNL     1       3.051  -3.148  -4.018  0.00  0.00    -0.052 S 
ATOM      9  C   UNL     1       2.707  -2.676  -2.330  0.00  0.00    +0.167 A 
ATOM     10  N   UNL     1       3.553  -2.533  -1.318  0.00  0.00    -0.152 NA
ENDROOT
BRANCH  10  11
ATOM     11  C   UNL     1       4.862  -2.750  -1.502  0.00  0.00    +0.271 C 
ATOM     12  O   UNL     1       5.276  -3.081  -2.601  0.00  0.00    -0.268 OA
BRANCH  11  13
ATOM     13  C   UNL     1       5.801  -2.591  -0.378  0.00  0.00    +0.064 A 
ATOM     14  C   UNL     1       5.489  -2.235   0.899  0.00  0.00    +0.096 A 
ATOM     15  N   UNL     1       6.618  -2.192   1.651  0.00  0.00    -0.360 N 
ATOM     16  H   UNL     1       6.647  -1.963   2.594  0.00  0.00    +0.165 HD
ATOM     17  C   UNL     1       7.718  -2.520   0.887  0.00  0.00    +0.047 A 
ATOM     18  C   UNL     1       7.260  -2.791  -0.413  0.00  0.00    +0.012 A 
ATOM     19  C   UNL     1       8.162  -3.159  -1.409  0.00  0.00    +0.011 A 
ATOM     20  C   UNL     1       9.504  -3.260  -1.110  0.00  0.00    +0.001 A 
ATOM     21  C   UNL     1       9.957  -2.997   0.175  0.00  0.00    +0.002 A 
ATOM     22  C   UNL     1       9.076  -2.623   1.167  0.00  0.00    +0.026 A 
ENDBRANCH  11  13
ENDBRANCH  10  11
BRANCH   5  23
ATOM     23  C   UNL     1      -1.210  -3.395  -7.317  0.00  0.00    +0.339 C 
ATOM     24  O   UNL     1      -0.538  -3.724  -8.274  0.00  0.00    -0.245 OA
BRANCH  23  25
ATOM     25  O   UNL     1      -2.543  -3.248  -7.448  0.00  0.00    -0.464 OA
ATOM     26  C   UNL     1      -3.099  -3.496  -8.741  0.00  0.00    +0.280 C 
ENDBRANCH  23  25
ENDBRANCH   5  23
BRANCH   1  27
ATOM     27  C   UNL     1       0.657  -2.104  -1.120  0.00  0.00    +0.244 C 
BRANCH  27  28
ATOM     28  C   UNL     1       0.598  -0.600  -1.043  0.00  0.00    +0.327 C 
ATOM     29  O   UNL     1       1.088   0.070  -1.921  0.00  0.00    -0.249 OA
BRANCH  28  31
ATOM     30  C   UNL     1      -0.017   1.425   0.010  0.00  0.00    +0.280 C 
ATOM     31  O   UNL     1       0.002  -0.004   0.002  0.00  0.00    -0.467 OA
ENDBRANCH  28  31
ENDBRANCH  27  28
ENDBRANCH   1  27
TORSDOF 7
