REMARK  Name = ZINC58159515
REMARK  9 active torsions:
REMARK  status: ('A' for Active; 'I' for Inactive)
REMARK    1  A    between atoms: C_1  and  C_2
REMARK    2  A    between atoms: C_2  and  C_3
REMARK    3  A    between atoms: C_2  and  C_4
REMARK    4  A    between atoms: C_2  and  N_5
REMARK    5  A    between atoms: N_5  and  S_6
REMARK    6  A    between atoms: S_6  and  C_9
REMARK    7  A    between atoms: C_14  and  C_15
REMARK    8  A    between atoms: C_15  and  N_16
REMARK    9  A    between atoms: N_19  and  C_20
REMARK                            x       y       z     vdW  Elec       q    Type
REMARK                         _______ _______ _______ _____ _____    ______ ____
ROOT
ATOM      1  C   UNL     1       3.257  -0.306  -0.062  0.00  0.00    +0.110 A 
ATOM      2  C   UNL     1       4.173  -1.302  -0.346  0.00  0.00    +0.029 A 
ATOM      3  C   UNL     1       4.628  -2.131   0.663  0.00  0.00    +0.002 A 
ATOM      4  C   UNL     1       4.166  -1.964   1.955  0.00  0.00    +0.000 A 
ATOM      5  C   UNL     1       3.250  -0.969   2.239  0.00  0.00    +0.007 A 
ATOM      6  C   UNL     1       2.799  -0.137   1.231  0.00  0.00    -0.004 A 
ENDROOT
BRANCH   1   7
ATOM      7  S   UNL     1       2.677   0.750  -1.347  0.00  0.00    +0.059 S 
ATOM      8  O   UNL     1       1.262   0.799  -1.226  0.00  0.00    -0.153 OA
ATOM      9  O   UNL     1       3.326   0.331  -2.541  0.00  0.00    -0.153 OA
BRANCH   7  10
ATOM     10  N   UNL     1       3.234   2.274  -1.016  0.00  0.00    -0.185 NA
ATOM     11  H   UNL     1       2.610   2.977  -0.776  0.00  0.00    +0.149 HD
BRANCH  10  13
ATOM     12  C   UNL     1       5.199   2.176  -2.468  0.00  0.00    +0.029 C 
ATOM     13  C   UNL     1       4.669   2.561  -1.086  0.00  0.00    +0.032 C 
ATOM     14  C   UNL     1       5.403   1.753  -0.014  0.00  0.00    +0.029 C 
ATOM     15  C   UNL     1       4.902   4.055  -0.848  0.00  0.00    +0.029 C 
ENDBRANCH  10  13
ENDBRANCH   7  10
ENDBRANCH   1   7
BRANCH   6  16
ATOM     16  C   UNL     1       1.804   0.952   1.542  0.00  0.00    +0.143 C 
BRANCH  16  17
ATOM     17  N   UNL     1       0.458   0.500   1.184  0.00  0.00    -0.295 N 
ATOM     18  C   UNL     1      -0.587   1.345   1.287  0.00  0.00    +0.304 C 
ATOM     19  O   UNL     1      -0.400   2.509   1.588  0.00  0.00    -0.252 OA
ATOM     20  N   UNL     1      -1.838   0.901   1.057  0.00  0.00    -0.267 N 
ATOM     21  H   UNL     1       0.318  -0.408   0.873  0.00  0.00    +0.151 HD
ATOM     22  H   UNL     1      -1.996  -0.041   0.893  0.00  0.00    +0.156 HD
BRANCH  20  23
ATOM     23  C   UNL     1      -2.912   1.802   1.055  0.00  0.00    +0.070 A 
ATOM     24  C   UNL     1      -2.676   3.164   0.926  0.00  0.00    +0.026 A 
ATOM     25  C   UNL     1      -3.737   4.050   0.924  0.00  0.00    +0.002 A 
ATOM     26  C   UNL     1      -5.032   3.582   1.051  0.00  0.00    +0.003 A 
ATOM     27  C   UNL     1      -5.271   2.226   1.179  0.00  0.00    +0.040 A 
ATOM     28  C   UNL     1      -4.215   1.333   1.176  0.00  0.00    +0.145 A 
ATOM     29  F   UNL     1      -4.449   0.008   1.296  0.00  0.00    -0.204 F 
ENDBRANCH  20  23
ENDBRANCH  16  17
ENDBRANCH   6  16
TORSDOF 6
