REMARK  Name = ZINC63993887
REMARK  11 active torsions:
REMARK  status: ('A' for Active; 'I' for Inactive)
REMARK    1  A    between atoms: C_1  and  C_2
REMARK    2  A    between atoms: C_2  and  N_3
REMARK    3  A    between atoms: N_6  and  C_29
REMARK    4  A    between atoms: N_12  and  C_15
REMARK    5  A    between atoms: C_15  and  C_17
REMARK    6  A    between atoms: C_15  and  C_18
REMARK    7  A    between atoms: C_18  and  C_19
REMARK    8  A    between atoms: C_19  and  C_20
REMARK    9  A    between atoms: C_29  and  C_30
REMARK   10  A    between atoms: C_34  and  O_36
REMARK   11  A    between atoms: O_36  and  C_37
REMARK                            x       y       z     vdW  Elec       q    Type
REMARK                         _______ _______ _______ _____ _____    ______ ____
ROOT
ATOM      1  N   UNL     1      -1.453  -1.289  -0.373  0.00  0.00    -0.271 N 
ATOM      2  C   UNL     1      -2.312  -1.753   0.555  0.00  0.00    +0.312 C 
ATOM      3  O   UNL     1      -2.067  -1.789   1.745  0.00  0.00    -0.252 OA
ATOM      4  N   UNL     1      -3.466  -2.169   0.019  0.00  0.00    -0.220 N 
ATOM      5  C   UNL     1      -3.475  -2.017  -1.322  0.00  0.00    +0.247 C 
ATOM      6  O   UNL     1      -4.372  -2.299  -2.087  0.00  0.00    -0.273 OA
ATOM      7  C   UNL     1      -2.133  -1.414  -1.667  0.00  0.00    +0.112 C 
ATOM      8  C   UNL     1      -1.356  -2.344  -2.594  0.00  0.00    +0.017 C 
ATOM      9  C   UNL     1      -0.022  -1.689  -2.965  0.00  0.00    -0.076 C 
ATOM     10  N   UNL     1      -0.273  -0.403  -3.626  0.00  0.00    +0.382 N 
ATOM     11  C   UNL     1      -0.938   0.517  -2.696  0.00  0.00    -0.076 C 
ATOM     12  C   UNL     1      -2.311  -0.044  -2.314  0.00  0.00    +0.017 C 
ATOM     13  H   UNL     1      -0.863  -0.550  -4.431  0.00  0.00    -0.081 HD
ENDROOT
BRANCH   1  15
ATOM     14  C   UNL     1       0.803  -1.883   0.361  0.00  0.00    +0.024 C 
ATOM     15  C   UNL     1      -0.108  -0.759  -0.136  0.00  0.00    +0.107 C 
ENDBRANCH   1  15
BRANCH  10  16
ATOM     16  C   UNL     1       1.004   0.180  -4.060  0.00  0.00    -0.071 C 
ATOM     17  C   UNL     1       1.845   0.536  -2.833  0.00  0.00    -0.013 C 
BRANCH  16  18
ATOM     18  C   UNL     1       0.735   1.444  -4.879  0.00  0.00    -0.011 C 
BRANCH  18  19
ATOM     19  C   UNL     1      -0.039   1.076  -6.146  0.00  0.00    +0.031 C 
BRANCH  19  20
ATOM     20  C   UNL     1      -0.193   2.299  -7.013  0.00  0.00    -0.042 C 
ATOM     21  C   UNL     1       0.599   2.669  -8.045  0.00  0.00    -0.001 A 
ATOM     22  C   UNL     1       1.796   2.067  -8.646  0.00  0.00    +0.010 A 
ATOM     23  C   UNL     1       2.384   2.685  -9.695  0.00  0.00    +0.001 A 
ATOM     24  C   UNL     1       1.882   3.883 -10.222  0.00  0.00    +0.002 A 
ATOM     25  C   UNL     1       0.787   4.496  -9.724  0.00  0.00    +0.026 A 
ATOM     26  C   UNL     1       0.088   3.934  -8.620  0.00  0.00    +0.043 A 
ATOM     27  N   UNL     1      -0.979   4.330  -7.969  0.00  0.00    -0.380 N 
ATOM     28  C   UNL     1      -1.269   3.358  -6.910  0.00  0.00    +0.144 C 
ATOM     29  H   UNL     1      -1.492   5.131  -8.159  0.00  0.00    +0.160 HD
ENDBRANCH  19  20
ENDBRANCH  18  19
ENDBRANCH  16  18
ENDBRANCH  10  16
BRANCH   4  30
ATOM     30  C   UNL     1      -4.581  -2.721   0.792  0.00  0.00    +0.153 C 
BRANCH  30  31
ATOM     31  C   UNL     1      -5.505  -1.605   1.209  0.00  0.00    -0.026 A 
ATOM     32  C   UNL     1      -5.296  -0.946   2.406  0.00  0.00    +0.005 A 
ATOM     33  C   UNL     1      -6.141   0.078   2.791  0.00  0.00    +0.004 A 
ATOM     34  C   UNL     1      -7.198   0.445   1.980  0.00  0.00    +0.045 A 
ATOM     35  C   UNL     1      -7.409  -0.215   0.778  0.00  0.00    +0.120 A 
ATOM     36  C   UNL     1      -6.556  -1.238   0.391  0.00  0.00    +0.050 A 
BRANCH  35  37
ATOM     37  O   UNL     1      -8.448   0.144  -0.022  0.00  0.00    -0.495 OA
ATOM     38  C   UNL     1      -9.282   1.210   0.437  0.00  0.00    +0.277 C 
ENDBRANCH  35  37
ENDBRANCH  30  31
ENDBRANCH   4  30
TORSDOF 8
