REMARK  Name = ZINC39912267
REMARK  15 active torsions:
REMARK  status: ('A' for Active; 'I' for Inactive)
REMARK    1  A    between atoms: C_1  and  C_2
REMARK    2  A    between atoms: C_2  and  C_3
REMARK    3  A    between atoms: C_3  and  C_4
REMARK    4  A    between atoms: C_4  and  C_5
REMARK    5  A    between atoms: C_5  and  O_6
REMARK    6  A    between atoms: O_6  and  C_7
REMARK    7  A    between atoms: C_10  and  C_15
REMARK    8  A    between atoms: C_12  and  O_13
REMARK    9  A    between atoms: O_13  and  C_14
REMARK   10  A    between atoms: C_18  and  C_33
REMARK   11  A    between atoms: N_25  and  C_26
REMARK   12  A    between atoms: C_26  and  C_27
REMARK   13  A    between atoms: C_35  and  C_41
REMARK   14  A    between atoms: C_37  and  C_40
REMARK   15  A    between atoms: C_38  and  O_39
REMARK                            x       y       z     vdW  Elec       q    Type
REMARK                         _______ _______ _______ _____ _____    ______ ____
ROOT
ATOM      1  C   UNL     1       3.155  -6.289  -7.270  0.00  0.00    +0.142 C 
ATOM      2  C   UNL     1       2.049  -6.261  -8.289  0.00  0.00    +0.035 A 
ATOM      3  C   UNL     1       0.749  -6.650  -8.629  0.00  0.00    +0.102 A 
ATOM      4  N   UNL     1       0.494  -6.168  -9.829  0.00  0.00    -0.173 NA
ATOM      5  N   UNL     1       1.504  -5.513 -10.280  0.00  0.00    -0.272 N 
ATOM      6  H   UNL     1       1.541  -5.071 -11.143  0.00  0.00    +0.189 HD
ATOM      7  C   UNL     1       2.517  -5.531  -9.364  0.00  0.00    +0.126 A 
ATOM      8  C   UNL     1       3.885  -5.090  -9.068  0.00  0.00    +0.266 C 
ATOM      9  O   UNL     1       4.577  -4.425  -9.816  0.00  0.00    -0.268 OA
ATOM     10  N   UNL     1       4.266  -5.527  -7.853  0.00  0.00    -0.281 N 
ENDROOT
BRANCH   3  11
ATOM     11  C   UNL     1      -0.174  -7.458  -7.793  0.00  0.00    +0.044 A 
ATOM     12  C   UNL     1       0.272  -8.013  -6.596  0.00  0.00    +0.017 A 
ATOM     13  C   UNL     1      -0.590  -8.764  -5.822  0.00  0.00    -0.049 A 
ATOM     14  C   UNL     1      -1.896  -8.967  -6.231  0.00  0.00    +0.010 A 
ATOM     15  C   UNL     1      -2.348  -8.421  -7.417  0.00  0.00    -0.008 A 
ATOM     16  C   UNL     1      -1.495  -7.660  -8.201  0.00  0.00    +0.129 A 
ATOM     17  C   UNL     1      -3.772  -8.648  -7.856  0.00  0.00    +0.047 C 
ATOM     18  C   UNL     1      -0.106  -9.364  -4.527  0.00  0.00    +0.044 C 
BRANCH  16  19
ATOM     19  O   UNL     1      -1.940  -7.118  -9.364  0.00  0.00    -0.506 OA
ATOM     20  H   UNL     1      -1.823  -7.690 -10.135  0.00  0.00    +0.292 HD
ENDBRANCH  16  19
ENDBRANCH   3  11
BRANCH   1  24
ATOM     21  C   UNL     1       1.856  -4.455  -3.631  0.00  0.00    +0.162 A 
ATOM     22  C   UNL     1       2.083  -5.821  -3.679  0.00  0.00    +0.050 A 
ATOM     23  C   UNL     1       2.503  -6.411  -4.857  0.00  0.00    +0.009 A 
ATOM     24  C   UNL     1       2.697  -5.641  -5.989  0.00  0.00    -0.019 A 
ATOM     25  C   UNL     1       2.473  -4.278  -5.947  0.00  0.00    +0.055 A 
ATOM     26  C   UNL     1       2.046  -3.681  -4.772  0.00  0.00    +0.162 A 
BRANCH  26  27
ATOM     27  O   UNL     1       1.820  -2.341  -4.731  0.00  0.00    -0.491 OA
ATOM     28  C   UNL     1       1.992  -1.616  -5.951  0.00  0.00    +0.277 C 
ENDBRANCH  26  27
BRANCH  21  29
ATOM     29  O   UNL     1       1.443  -3.873  -2.474  0.00  0.00    -0.488 OA
BRANCH  29  30
ATOM     30  C   UNL     1       1.269  -4.730  -1.343  0.00  0.00    +0.229 C 
BRANCH  30  31
ATOM     31  C   UNL     1       0.804  -3.902  -0.143  0.00  0.00    +0.041 C 
BRANCH  31  32
ATOM     32  C   UNL     1       0.618  -4.820   1.067  0.00  0.00    +0.003 C 
BRANCH  32  34
ATOM     33  C   UNL     1      -0.033  -4.909   3.478  0.00  0.00    +0.004 C 
ATOM     34  C   UNL     1       0.153  -3.992   2.267  0.00  0.00    -0.003 C 
ENDBRANCH  32  34
ENDBRANCH  31  32
ENDBRANCH  30  31
ENDBRANCH  29  30
ENDBRANCH  21  29
ENDBRANCH   1  24
BRANCH  10  35
ATOM     35  C   UNL     1       5.565  -5.283  -7.221  0.00  0.00    +0.144 C 
BRANCH  35  36
ATOM     36  C   UNL     1       6.519  -6.389  -7.590  0.00  0.00    -0.030 A 
ATOM     37  C   UNL     1       6.602  -7.522  -6.802  0.00  0.00    +0.005 A 
ATOM     38  C   UNL     1       7.478  -8.537  -7.141  0.00  0.00    +0.000 A 
ATOM     39  C   UNL     1       8.270  -8.419  -8.268  0.00  0.00    +0.000 A 
ATOM     40  C   UNL     1       8.186  -7.287  -9.056  0.00  0.00    +0.000 A 
ATOM     41  C   UNL     1       7.308  -6.274  -8.719  0.00  0.00    +0.005 A 
ENDBRANCH  35  36
ENDBRANCH  10  35
TORSDOF 11
