REMARK  Name = ZINC39674638
REMARK  7 active torsions:
REMARK  status: ('A' for Active; 'I' for Inactive)
REMARK    1  A    between atoms: C_1  and  C_2
REMARK    2  A    between atoms: C_4  and  C_14
REMARK    3  A    between atoms: C_7  and  C_12
REMARK    4  A    between atoms: C_14  and  C_15
REMARK    5  A    between atoms: C_15  and  N_16
REMARK    6  A    between atoms: C_17  and  C_19
REMARK    7  A    between atoms: C_30  and  C_32
REMARK                            x       y       z     vdW  Elec       q    Type
REMARK                         _______ _______ _______ _____ _____    ______ ____
ROOT
ATOM      1  C   UNL     1      -7.120  -1.150  -2.393  0.00  0.00    +0.100 C 
ATOM      2  C   UNL     1      -6.658  -1.635  -3.785  0.00  0.00    +0.121 C 
ATOM      3  N   UNL     1      -7.189  -3.014  -3.896  0.00  0.00    -0.296 N 
ATOM      4  C   UNL     1      -8.535  -2.942  -3.278  0.00  0.00    +0.115 C 
ATOM      5  C   UNL     1      -8.354  -2.007  -2.065  0.00  0.00    -0.004 C 
ATOM      6  C   UNL     1      -9.583  -1.120  -1.893  0.00  0.00    -0.010 C 
ATOM      7  C   UNL     1     -10.785  -1.989  -1.511  0.00  0.00    -0.082 C 
ATOM      8  N   UNL     1     -10.495  -2.705  -0.263  0.00  0.00    +0.379 N 
ATOM      9  C   UNL     1      -9.370  -3.625  -0.463  0.00  0.00    -0.082 C 
ATOM     10  C   UNL     1      -8.108  -2.826  -0.801  0.00  0.00    -0.010 C 
ATOM     11  C   UNL     1      -6.586  -4.091  -4.438  0.00  0.00    +0.252 C 
ATOM     12  O   UNL     1      -7.158  -5.164  -4.455  0.00  0.00    -0.270 OA
ATOM     13  H   UNL     1     -10.260  -2.040   0.459  0.00  0.00    -0.086 HD
ATOM     14  H   UNL     1     -11.310  -3.229   0.020  0.00  0.00    -0.086 HD
ENDROOT
BRANCH  11  15
ATOM     15  C   UNL     1      -5.232  -3.967  -5.011  0.00  0.00    +0.107 A 
ATOM     16  C   UNL     1      -4.107  -4.186  -4.210  0.00  0.00    +0.138 A 
ATOM     17  C   UNL     1      -2.842  -4.069  -4.755  0.00  0.00    +0.039 A 
ATOM     18  C   UNL     1      -2.687  -3.736  -6.088  0.00  0.00    +0.006 A 
ATOM     19  C   UNL     1      -3.794  -3.517  -6.887  0.00  0.00    +0.039 A 
ATOM     20  C   UNL     1      -5.067  -3.636  -6.360  0.00  0.00    +0.138 A 
ATOM     21  F   UNL     1      -6.147  -3.427  -7.144  0.00  0.00    -0.205 F 
ATOM     22  F   UNL     1      -4.255  -4.511  -2.907  0.00  0.00    -0.205 F 
ENDBRANCH  11  15
BRANCH   1  24
ATOM     23  N   UNL     1      -5.947  -0.578  -0.291  0.00  0.00    -0.315 N 
ATOM     24  C   UNL     1      -6.035  -1.379  -1.371  0.00  0.00    +0.218 C 
ATOM     25  O   UNL     1      -5.242  -2.284  -1.521  0.00  0.00    -0.275 OA
ATOM     26  H   UNL     1      -6.582   0.146  -0.171  0.00  0.00    +0.149 HD
BRANCH  23  27
ATOM     27  C   UNL     1      -4.893  -0.800   0.702  0.00  0.00    +0.108 C 
BRANCH  27  28
ATOM     28  C   UNL     1      -5.017   0.239   1.818  0.00  0.00    +0.052 C 
BRANCH  28  31
ATOM     29  C   UNL     1      -4.909   0.725   5.021  0.00  0.00    +0.035 C 
ATOM     30  C   UNL     1      -3.689   0.807   4.101  0.00  0.00    +0.103 C 
ATOM     31  C   UNL     1      -3.933   0.010   2.840  0.00  0.00    -0.037 C 
ATOM     32  C   UNL     1      -2.977  -0.954   2.814  0.00  0.00    +0.000 A 
ATOM     33  C   UNL     1      -2.703  -1.991   1.884  0.00  0.00    +0.028 A 
ATOM     34  C   UNL     1      -1.651  -2.851   2.100  0.00  0.00    +0.052 A 
ATOM     35  C   UNL     1      -0.798  -2.724   3.276  0.00  0.00    +0.021 A 
ATOM     36  C   UNL     1      -1.011  -1.758   4.194  0.00  0.00    +0.027 A 
ATOM     37  C   UNL     1      -2.120  -0.815   4.012  0.00  0.00    +0.043 A 
ATOM     38  N   UNL     1      -2.525   0.193   4.749  0.00  0.00    -0.378 N 
ATOM     39  H   UNL     1      -2.123   0.483   5.582  0.00  0.00    +0.160 HD
BRANCH  34  40
ATOM     40  C   UNL     1      -1.389  -3.891   1.151  0.00  0.00    +0.099 C 
ATOM     41  N   UNL     1      -1.181  -4.716   0.399  0.00  0.00    -0.191 NA
ENDBRANCH  34  40
ENDBRANCH  28  31
ENDBRANCH  27  28
ENDBRANCH  23  27
ENDBRANCH   1  24
TORSDOF 6
