REMARK  Name = ZINC44900340
REMARK  10 active torsions:
REMARK  status: ('A' for Active; 'I' for Inactive)
REMARK    1  A    between atoms: C_1  and  C_2
REMARK    2  A    between atoms: C_2  and  C_3
REMARK    3  A    between atoms: N_9  and  C_10
REMARK    4  A    between atoms: C_10  and  C_11
REMARK    5  A    between atoms: C_11  and  C_12
REMARK    6  A    between atoms: C_12  and  N_13
REMARK    7  A    between atoms: C_14  and  C_16
REMARK    8  A    between atoms: N_19  and  S_22
REMARK    9  A    between atoms: S_22  and  C_25
REMARK   10  A    between atoms: C_25  and  C_26
REMARK                            x       y       z     vdW  Elec       q    Type
REMARK                         _______ _______ _______ _____ _____    ______ ____
ROOT
ATOM      1  C   UNL     1      -4.230   4.756  -6.128  0.00  0.00    +0.077 C 
ATOM      2  C   UNL     1      -3.418   4.104  -7.250  0.00  0.00    +0.030 C 
ATOM      3  C   UNL     1      -4.103   4.374  -8.593  0.00  0.00    +0.110 C 
ATOM      4  N   UNL     1      -4.288   5.824  -8.747  0.00  0.00    -0.181 NA
ATOM      5  C   UNL     1      -4.977   6.565  -7.681  0.00  0.00    +0.110 C 
ATOM      6  C   UNL     1      -4.283   6.270  -6.348  0.00  0.00    +0.030 C 
ENDROOT
BRANCH   1   8
ATOM      7  N   UNL     1      -3.423   3.189  -4.393  0.00  0.00    -0.315 N 
ATOM      8  C   UNL     1      -3.578   4.464  -4.801  0.00  0.00    +0.216 C 
ATOM      9  O   UNL     1      -3.194   5.376  -4.100  0.00  0.00    -0.276 OA
ATOM     10  H   UNL     1      -3.730   2.459  -4.954  0.00  0.00    +0.149 HD
BRANCH   7  11
ATOM     11  C   UNL     1      -2.789   2.905  -3.103  0.00  0.00    +0.102 C 
BRANCH  11  12
ATOM     12  C   UNL     1      -2.736   1.391  -2.884  0.00  0.00    +0.000 C 
BRANCH  12  13
ATOM     13  C   UNL     1      -2.074   1.094  -1.537  0.00  0.00    -0.077 C 
BRANCH  13  19
ATOM     14  C   UNL     1      -1.287  -0.646  -0.089  0.00  0.00    -0.069 C 
ATOM     15  C   UNL     1      -1.161  -2.161   0.093  0.00  0.00    -0.015 C 
ATOM     16  C   UNL     1      -2.561  -2.777   0.175  0.00  0.00    -0.003 C 
ATOM     17  C   UNL     1      -3.345  -2.408  -1.087  0.00  0.00    -0.019 C 
ATOM     18  C   UNL     1      -3.390  -0.884  -1.225  0.00  0.00    -0.078 C 
ATOM     19  N   UNL     1      -2.023  -0.358  -1.326  0.00  0.00    +0.382 N 
ATOM     20  H   UNL     1      -1.553  -0.793  -2.105  0.00  0.00    -0.081 HD
BRANCH  14  22
ATOM     21  C   UNL     1       0.845  -0.248   1.152  0.00  0.00    +0.002 C 
ATOM     22  C   UNL     1       0.109  -0.025  -0.171  0.00  0.00    -0.019 C 
ENDBRANCH  14  22
ENDBRANCH  13  19
ENDBRANCH  12  13
ENDBRANCH  11  12
ENDBRANCH   7  11
ENDBRANCH   1   8
BRANCH   4  23
ATOM     23  S   UNL     1      -3.731   6.608 -10.095  0.00  0.00    +0.036 S 
ATOM     24  O   UNL     1      -3.508   7.945  -9.670  0.00  0.00    -0.158 OA
ATOM     25  O   UNL     1      -2.654   5.807 -10.561  0.00  0.00    -0.158 OA
BRANCH  23  26
ATOM     26  C   UNL     1      -5.110   6.548 -11.272  0.00  0.00    +0.220 C 
BRANCH  26  27
ATOM     27  C   UNL     1      -4.710   7.239 -12.550  0.00  0.00    -0.025 A 
ATOM     28  C   UNL     1      -4.935   8.595 -12.701  0.00  0.00    +0.006 A 
ATOM     29  C   UNL     1      -4.568   9.230 -13.873  0.00  0.00    +0.015 A 
ATOM     30  C   UNL     1      -3.974   8.509 -14.894  0.00  0.00    +0.018 A 
ATOM     31  C   UNL     1      -3.749   7.153 -14.741  0.00  0.00    +0.015 A 
ATOM     32  C   UNL     1      -4.112   6.520 -13.568  0.00  0.00    +0.006 A 
ATOM     33 BR   UNL     1      -3.473   9.377 -16.497  0.00  0.00    -0.050 Br
ENDBRANCH  26  27
ENDBRANCH  23  26
ENDBRANCH   4  23
TORSDOF 9
