REMARK  Name = ZINC40408621
REMARK  10 active torsions:
REMARK  status: ('A' for Active; 'I' for Inactive)
REMARK    1  A    between atoms: C_1  and  C_2
REMARK    2  A    between atoms: C_2  and  O_3
REMARK    3  A    between atoms: O_3  and  C_4
REMARK    4  A    between atoms: C_4  and  C_5
REMARK    5  A    between atoms: C_5  and  C_7
REMARK    6  A    between atoms: C_5  and  O_32
REMARK    7  A    between atoms: C_7  and  N_8
REMARK    8  A    between atoms: N_8  and  C_9
REMARK    9  A    between atoms: N_8  and  C_26
REMARK   10  A    between atoms: C_9  and  C_10
REMARK                            x       y       z     vdW  Elec       q    Type
REMARK                         _______ _______ _______ _____ _____    ______ ____
ROOT
ATOM      1  C   UNL     1      -4.521  -5.699  -0.171  0.00  0.00    -0.003 C 
ENDROOT
BRANCH   1   2
ATOM      2  C   UNL     1      -5.971  -6.106  -0.133  0.00  0.00    +0.094 A 
ATOM      3  N   UNL     1      -6.293  -7.424  -0.095  0.00  0.00    -0.312 N 
ATOM      4  H   UNL     1      -5.584  -8.086  -0.092  0.00  0.00    +0.170 HD
ATOM      5  C   UNL     1      -7.575  -7.832  -0.061  0.00  0.00    +0.260 A 
ATOM      6  O   UNL     1      -7.848  -9.019  -0.027  0.00  0.00    -0.267 OA
ATOM      7  C   UNL     1      -8.615  -6.845  -0.065  0.00  0.00    +0.075 A 
ATOM      8  C   UNL     1     -10.065  -7.057  -0.033  0.00  0.00    -0.023 A 
ATOM      9  C   UNL     1     -10.839  -5.953  -0.050  0.00  0.00    -0.004 A 
ATOM     10  S   UNL     1      -9.703  -4.591  -0.097  0.00  0.00    -0.073 S 
ATOM     11  C   UNL     1      -8.186  -5.510  -0.105  0.00  0.00    +0.116 A 
ATOM     12  N   UNL     1      -6.896  -5.184  -0.132  0.00  0.00    -0.229 NA
ATOM     13  C   UNL     1     -12.335  -5.879  -0.043  0.00  0.00    +0.043 C 
ATOM     14  C   UNL     1     -12.881  -6.781   1.071  0.00  0.00    +0.005 C 
ATOM     15  C   UNL     1     -13.101  -8.177   0.496  0.00  0.00    +0.001 C 
ATOM     16  C   UNL     1     -12.052  -8.472  -0.575  0.00  0.00    +0.005 C 
ATOM     17  C   UNL     1     -10.653  -8.464   0.030  0.00  0.00    +0.037 C 
ENDBRANCH   1   2
BRANCH   1  18
ATOM     18  N   UNL     1      -4.418  -4.239  -0.035  0.00  0.00    +0.388 N 
ATOM     19  H   UNL     1      -5.183  -3.801  -0.525  0.00  0.00    -0.081 HD
BRANCH  18  20
ATOM     20  C   UNL     1      -4.474  -3.875   1.387  0.00  0.00    -0.068 C 
ATOM     21  C   UNL     1      -3.263  -4.463   2.112  0.00  0.00    -0.015 C 
ATOM     22  C   UNL     1      -3.321  -4.084   3.594  0.00  0.00    -0.002 C 
ATOM     23  C   UNL     1      -4.606  -4.639   4.212  0.00  0.00    -0.000 C 
ATOM     24  C   UNL     1      -5.817  -4.051   3.486  0.00  0.00    -0.002 C 
ATOM     25  C   UNL     1      -5.759  -4.431   2.005  0.00  0.00    -0.015 C 
ENDBRANCH  18  20
BRANCH  18  26
ATOM     26  C   UNL     1      -3.145  -3.783  -0.608  0.00  0.00    -0.044 C 
BRANCH  26  27
ATOM     27  C   UNL     1      -3.120  -2.253  -0.642  0.00  0.00    +0.124 C 
BRANCH  27  28
ATOM     28  O   UNL     1      -3.050  -1.748   0.692  0.00  0.00    -0.391 OA
ATOM     29  H   UNL     1      -2.227  -1.965   1.152  0.00  0.00    +0.210 HD
ENDBRANCH  27  28
BRANCH  27  30
ATOM     30  C   UNL     1      -1.898  -1.781  -1.432  0.00  0.00    +0.189 C 
BRANCH  30  31
ATOM     31  O   UNL     1      -1.938  -0.358  -1.564  0.00  0.00    -0.378 OA
BRANCH  31  33
ATOM     32  C   UNL     1      -0.981   1.710  -2.369  0.00  0.00    +0.034 C 
ATOM     33  C   UNL     1      -0.835   0.189  -2.290  0.00  0.00    +0.156 C 
ENDBRANCH  31  33
ENDBRANCH  30  31
ENDBRANCH  27  30
ENDBRANCH  26  27
ENDBRANCH  18  26
ENDBRANCH   1  18
TORSDOF 9
