REMARK  Name = ZINC20744699
REMARK  6 active torsions:
REMARK  status: ('A' for Active; 'I' for Inactive)
REMARK    1  A    between atoms: C_1  and  C_2
REMARK    2  A    between atoms: C_2  and  C_4
REMARK    3  A    between atoms: C_2  and  N_8
REMARK    4  A    between atoms: C_4  and  O_6
REMARK    5  A    between atoms: O_6  and  C_7
REMARK    6  A    between atoms: C_20  and  C_22
REMARK                            x       y       z     vdW  Elec       q    Type
REMARK                         _______ _______ _______ _____ _____    ______ ____
ROOT
ATOM      1  N   UNL     1      -1.458  -0.333  -2.470  0.00  0.00    -0.286 N 
ATOM      2  C   UNL     1      -1.991  -0.613  -1.264  0.00  0.00    +0.304 C 
ATOM      3  O   UNL     1      -1.304  -0.542  -0.264  0.00  0.00    -0.253 OA
ATOM      4  N   UNL     1      -3.287  -0.972  -1.167  0.00  0.00    -0.273 N 
ATOM      5  C   UNL     1      -3.916  -1.176   0.146  0.00  0.00    +0.116 C 
ATOM      6  C   UNL     1      -4.328  -2.647   0.283  0.00  0.00    +0.074 C 
ATOM      7  C   UNL     1      -4.999  -3.083  -0.993  0.00  0.00    +0.040 A 
ATOM      8  C   UNL     1      -4.903  -2.438  -2.175  0.00  0.00    +0.062 A 
ATOM      9  N   UNL     1      -5.621  -3.111  -3.076  0.00  0.00    -0.348 N 
ATOM     10  C   UNL     1      -6.164  -4.152  -2.499  0.00  0.00    +0.171 A 
ATOM     11  N   UNL     1      -5.798  -4.167  -1.197  0.00  0.00    -0.349 N 
ATOM     12  H   UNL     1      -6.057  -4.826  -0.533  0.00  0.00    +0.166 HD
ATOM     13  C   UNL     1      -4.109  -1.164  -2.375  0.00  0.00    +0.159 C 
ATOM     14  H   UNL     1      -1.985  -0.459  -3.275  0.00  0.00    +0.151 HD
ATOM     15  H   UNL     1      -5.724  -2.868  -4.010  0.00  0.00    +0.167 HD
ENDROOT
BRANCH  13  16
ATOM     16  C   UNL     1      -5.044   0.005  -2.551  0.00  0.00    +0.017 A 
ATOM     17  C   UNL     1      -6.381  -0.125  -2.227  0.00  0.00    +0.011 A 
ATOM     18  C   UNL     1      -7.240   0.946  -2.387  0.00  0.00    +0.042 A 
ATOM     19  C   UNL     1      -6.763   2.152  -2.871  0.00  0.00    +0.161 A 
ATOM     20  C   UNL     1      -5.422   2.284  -3.196  0.00  0.00    +0.194 A 
ATOM     21  C   UNL     1      -4.561   1.211  -3.030  0.00  0.00    +0.167 A 
ATOM     22  F   UNL     1      -3.252   1.339  -3.341  0.00  0.00    -0.202 F 
ATOM     23  F   UNL     1      -4.954   3.460  -3.670  0.00  0.00    -0.199 F 
ATOM     24  F   UNL     1      -7.603   3.198  -3.028  0.00  0.00    -0.202 F 
ENDBRANCH  13  16
BRANCH   1  26
ATOM     25  C   UNL     1       0.886  -1.022  -2.575  0.00  0.00    +0.040 C 
ATOM     26  C   UNL     1      -0.083   0.162  -2.565  0.00  0.00    +0.180 C 
BRANCH  26  27
ATOM     27  C   UNL     1       0.079   0.954  -3.837  0.00  0.00    +0.327 C 
ATOM     28  O   UNL     1      -0.858   1.091  -4.587  0.00  0.00    -0.249 OA
BRANCH  27  29
ATOM     29  O   UNL     1       1.265   1.507  -4.137  0.00  0.00    -0.467 OA
ATOM     30  C   UNL     1       1.347   2.244  -5.359  0.00  0.00    +0.280 C 
ENDBRANCH  27  29
ENDBRANCH  26  27
ENDBRANCH   1  26
TORSDOF 4
