REMARK  Name = ZINC27660503
REMARK  6 active torsions:
REMARK  status: ('A' for Active; 'I' for Inactive)
REMARK    1  A    between atoms: C_1  and  C_2
REMARK    2  A    between atoms: C_2  and  C_4
REMARK    3  A    between atoms: C_2  and  S_13
REMARK    4  A    between atoms: C_8  and  N_10
REMARK    5  A    between atoms: S_13  and  C_14
REMARK    6  A    between atoms: C_18  and  C_20
REMARK                            x       y       z     vdW  Elec       q    Type
REMARK                         _______ _______ _______ _____ _____    ______ ____
ROOT
ATOM      1  S   UNL     1      -0.918   5.932   1.518  0.00  0.00    -0.080 S 
ENDROOT
BRANCH   1   2
ATOM      2  C   UNL     1      -0.668   7.668   1.351  0.00  0.00    +0.167 A 
ATOM      3  N   UNL     1      -1.109   8.620   2.218  0.00  0.00    -0.339 N 
ATOM      4  H   UNL     1      -1.675   8.328   3.115  0.00  0.00    +0.167 HD
ATOM      5  C   UNL     1      -0.709   9.839   1.727  0.00  0.00    +0.113 A 
ATOM      6  C   UNL     1      -0.035   9.597   0.575  0.00  0.00    +0.090 A 
ATOM      7  N   UNL     1      -0.022   8.256   0.373  0.00  0.00    -0.222 NA
BRANCH   6   8
ATOM      8  C   UNL     1       0.583  10.618  -0.306  0.00  0.00    +0.002 A 
ATOM      9  C   UNL     1       0.494  11.970   0.022  0.00  0.00    +0.010 A 
ATOM     10  C   UNL     1       1.076  12.916  -0.798  0.00  0.00    +0.001 A 
ATOM     11  C   UNL     1       1.736  12.525  -1.949  0.00  0.00    +0.000 A 
ATOM     12  C   UNL     1       1.822  11.185  -2.282  0.00  0.00    +0.001 A 
ATOM     13  C   UNL     1       1.249  10.230  -1.467  0.00  0.00    +0.010 A 
ENDBRANCH   6   8
ENDBRANCH   1   2
BRANCH   1  15
ATOM     14  C   UNL     1      -0.810   5.853  -1.210  0.00  0.00    +0.024 C 
ATOM     15  C   UNL     1      -0.070   5.347   0.030  0.00  0.00    +0.081 C 
BRANCH  15  16
ATOM     16  C   UNL     1      -0.050   3.840   0.022  0.00  0.00    -0.032 A 
ATOM     17  C   UNL     1      -1.238   3.133   0.030  0.00  0.00    +0.005 A 
ATOM     18  C   UNL     1      -1.219   1.751   0.017  0.00  0.00    +0.003 A 
ATOM     19  C   UNL     1      -0.013   1.076   0.008  0.00  0.00    +0.033 A 
ATOM     20  C   UNL     1       1.175   1.783   0.000  0.00  0.00    +0.126 A 
ATOM     21  C   UNL     1       1.156   3.166   0.008  0.00  0.00    +0.037 A 
BRANCH  20  22
ATOM     22  N   UNL     1       2.467   1.060  -0.016  0.00  0.00    +0.056 N 
ATOM     23  O   UNL     1       2.483  -0.157  -0.023  0.00  0.00    -0.126 OA
ATOM     24  O   UNL     1       3.513   1.684  -0.022  0.00  0.00    -0.126 OA
ENDBRANCH  20  22
ENDBRANCH  15  16
ENDBRANCH   1  15
TORSDOF 5
