REMARK  Name = ZINC58966426
REMARK  8 active torsions:
REMARK  status: ('A' for Active; 'I' for Inactive)
REMARK    1  A    between atoms: C_1  and  C_2
REMARK    2  A    between atoms: C_2  and  C_4
REMARK    3  A    between atoms: C_2  and  S_19
REMARK    4  A    between atoms: N_6  and  C_7
REMARK    5  A    between atoms: C_8  and  C_16
REMARK    6  A    between atoms: S_19  and  C_20
REMARK    7  A    between atoms: C_22  and  C_30
REMARK    8  A    between atoms: C_24  and  C_26
REMARK                            x       y       z     vdW  Elec       q    Type
REMARK                         _______ _______ _______ _____ _____    ______ ____
ROOT
ATOM      1  C   UNL     1      -0.019   1.526   0.010  0.00  0.00    +0.029 C 
ATOM      2  C   UNL     1       0.002  -0.004   0.002  0.00  0.00    +0.137 C 
ENDROOT
BRANCH   2   3
ATOM      3  C   UNL     1       0.707  -0.490  -1.238  0.00  0.00    +0.231 C 
ATOM      4  O   UNL     1       0.066  -0.782  -2.225  0.00  0.00    -0.274 OA
ATOM      5  N   UNL     1       2.051  -0.601  -1.250  0.00  0.00    -0.278 N 
ATOM      6  H   UNL     1       2.563  -0.367  -0.460  0.00  0.00    +0.155 HD
BRANCH   5   7
ATOM      7  C   UNL     1       2.700  -1.048  -2.390  0.00  0.00    +0.084 A 
ATOM      8  C   UNL     1       4.061  -1.228  -2.581  0.00  0.00    +0.068 A 
ATOM      9  C   UNL     1       4.491  -1.711  -3.882  0.00  0.00    -0.023 A 
ATOM     10  C   UNL     1       3.481  -1.926  -4.753  0.00  0.00    -0.004 A 
ATOM     11  S   UNL     1       2.017  -1.502  -3.856  0.00  0.00    -0.077 S 
ATOM     12  C   UNL     1       3.598  -2.418  -6.162  0.00  0.00    +0.043 C 
ATOM     13  C   UNL     1       5.065  -2.287  -6.598  0.00  0.00    +0.005 C 
ATOM     14  C   UNL     1       5.962  -2.873  -5.505  0.00  0.00    +0.005 C 
ATOM     15  C   UNL     1       5.939  -1.968  -4.271  0.00  0.00    +0.037 C 
BRANCH   8  16
ATOM     16  C   UNL     1       5.026  -0.942  -1.515  0.00  0.00    +0.244 C 
ATOM     17  O   UNL     1       5.343  -1.816  -0.731  0.00  0.00    -0.270 OA
ATOM     18  N   UNL     1       5.561   0.290  -1.404  0.00  0.00    -0.325 N 
ATOM     19  H   UNL     1       5.308   0.987  -2.029  0.00  0.00    +0.145 HD
ATOM     20  H   UNL     1       6.200   0.479  -0.699  0.00  0.00    +0.145 HD
ENDBRANCH   8  16
ENDBRANCH   5   7
ENDBRANCH   2   3
BRANCH   2  21
ATOM     21  S   UNL     1      -1.700  -0.632   0.015  0.00  0.00    -0.074 S 
BRANCH  21  22
ATOM     22  C   UNL     1      -2.335  -0.110   1.573  0.00  0.00    +0.190 A 
ATOM     23  N   UNL     1      -3.580  -0.421   1.899  0.00  0.00    -0.219 NA
ATOM     24  C   UNL     1      -4.089  -0.041   3.072  0.00  0.00    +0.111 A 
ATOM     25  C   UNL     1      -3.286   0.694   3.953  0.00  0.00    +0.064 A 
ATOM     26  C   UNL     1      -1.993   0.996   3.569  0.00  0.00    +0.149 A 
ATOM     27  N   UNL     1      -1.552   0.580   2.391  0.00  0.00    -0.218 NA
BRANCH  24  28
ATOM     28  C   UNL     1      -5.476  -0.388   3.434  0.00  0.00    +0.153 A 
ATOM     29  C   UNL     1      -6.349  -1.098   2.668  0.00  0.00    +0.051 A 
ATOM     30  C   UNL     1      -7.548  -1.191   3.399  0.00  0.00    +0.042 A 
ATOM     31  C   UNL     1      -7.352  -0.540   4.564  0.00  0.00    +0.196 A 
ATOM     32  O   UNL     1      -6.099  -0.061   4.584  0.00  0.00    -0.461 OA
ENDBRANCH  24  28
BRANCH  26  33
ATOM     33  C   UNL     1      -1.092   1.785   4.484  0.00  0.00    +0.434 C 
ATOM     34  F   UNL     1      -0.388   0.907   5.316  0.00  0.00    -0.164 F 
ATOM     35  F   UNL     1      -0.186   2.528   3.719  0.00  0.00    -0.164 F 
ATOM     36  F   UNL     1      -1.863   2.651   5.266  0.00  0.00    -0.164 F 
ENDBRANCH  26  33
ENDBRANCH  21  22
ENDBRANCH   2  21
TORSDOF 7
