REMARK  Name = ZINC05156811
REMARK  7 active torsions:
REMARK  status: ('A' for Active; 'I' for Inactive)
REMARK    1  A    between atoms: C_1  and  C_2
REMARK    2  A    between atoms: C_8  and  C_10
REMARK    3  A    between atoms: N_11  and  N_12
REMARK    4  A    between atoms: C_19  and  O_27
REMARK    5  A    between atoms: O_27  and  C_28
REMARK    6  A    between atoms: C_29  and  C_33
REMARK    7  A    between atoms: C_29  and  C_34
REMARK                            x       y       z     vdW  Elec       q    Type
REMARK                         _______ _______ _______ _____ _____    ______ ____
ROOT
ATOM      1  N   UNL     1      -3.270   6.960  -5.218  0.00  0.00    -0.184 N 
ATOM      2  C   UNL     1      -2.133   7.227  -5.913  0.00  0.00    +0.227 A 
ATOM      3  N   UNL     1      -2.147   7.928  -7.012  0.00  0.00    -0.233 NA
ATOM      4  C   UNL     1      -3.294   8.430  -7.503  0.00  0.00    +0.103 A 
ATOM      5  C   UNL     1      -3.625   9.241  -8.681  0.00  0.00    +0.026 A 
ATOM      6  C   UNL     1      -2.865   9.783  -9.720  0.00  0.00    +0.016 A 
ATOM      7  C   UNL     1      -3.472  10.512 -10.701  0.00  0.00    +0.046 A 
ATOM      8  C   UNL     1      -4.850  10.720 -10.675  0.00  0.00    +0.122 A 
ATOM      9  C   UNL     1      -5.619  10.192  -9.655  0.00  0.00    +0.072 A 
ATOM     10  C   UNL     1      -5.016   9.446  -8.647  0.00  0.00    +0.053 A 
ATOM     11  N   UNL     1      -5.518   8.811  -7.531  0.00  0.00    -0.349 N 
ATOM     12  H   UNL     1      -6.453   8.797  -7.272  0.00  0.00    +0.166 HD
ATOM     13  C   UNL     1      -4.494   8.196  -6.834  0.00  0.00    +0.133 A 
ATOM     14  C   UNL     1      -4.461   7.430  -5.648  0.00  0.00    +0.298 A 
ATOM     15  O   UNL     1      -5.485   7.197  -5.027  0.00  0.00    -0.263 OA
ENDROOT
BRANCH   1  17
ATOM     16  C   UNL     1      -2.070   5.835  -3.578  0.00  0.00    +0.110 C 
ATOM     17  N   UNL     1      -3.206   6.196  -4.045  0.00  0.00    -0.175 NA
BRANCH  16  24
ATOM     18  C   UNL     1      -1.675   7.355  -1.181  0.00  0.00    +0.008 C 
ATOM     19  C   UNL     1      -1.144   5.923  -1.269  0.00  0.00    -0.001 C 
ATOM     20  C   UNL     1      -1.251   5.247   0.092  0.00  0.00    +0.034 C 
ATOM     21  C   UNL     1      -0.958   3.764   0.001  0.00  0.00    -0.069 C 
ATOM     22  C   UNL     1      -1.010   3.103  -1.116  0.00  0.00    -0.064 C 
ATOM     23  C   UNL     1      -1.315   3.762  -2.446  0.00  0.00    +0.040 C 
ATOM     24  C   UNL     1      -1.993   5.113  -2.258  0.00  0.00    +0.039 C 
ATOM     25  C   UNL     1      -0.755   1.612  -1.202  0.00  0.00    -0.014 C 
ATOM     26  C   UNL     1      -0.001   1.103   0.021  0.00  0.00    +0.011 C 
ATOM     27  C   UNL     1      -0.744   1.605   1.267  0.00  0.00    +0.005 C 
ATOM     28  C   UNL     1      -0.584   3.119   1.319  0.00  0.00    +0.031 C 
ATOM     29  C   UNL     1       0.070   1.317  -2.456  0.00  0.00    +0.015 C 
ATOM     30  C   UNL     1      -2.095   0.881  -1.303  0.00  0.00    +0.015 C 
ENDBRANCH  16  24
ENDBRANCH   1  17
BRANCH   8  31
ATOM     31  O   UNL     1      -5.441  11.448 -11.658  0.00  0.00    -0.495 OA
ATOM     32  C   UNL     1      -4.590  11.967 -12.682  0.00  0.00    +0.277 C 
ENDBRANCH   8  31
TORSDOF 3
