REMARK  Name = ZINC34957260
REMARK  4 active torsions:
REMARK  status: ('A' for Active; 'I' for Inactive)
REMARK    1  A    between atoms: C_5  and  S_7
REMARK    2  A    between atoms: S_7  and  N_10
REMARK    3  A    between atoms: N_10  and  C_11
REMARK    4  A    between atoms: C_15  and  N_17
REMARK                            x       y       z     vdW  Elec       q    Type
REMARK                         _______ _______ _______ _____ _____    ______ ____
ROOT
ATOM      1  N   UNL     1       1.893  -2.913  -1.466  0.00  0.00    -0.098 NA
ENDROOT
BRANCH   1   2
ATOM      2  C   UNL     1       2.039  -4.272  -1.756  0.00  0.00    +0.076 A 
ATOM      3  C   UNL     1       1.625  -5.228  -0.836  0.00  0.00    +0.028 A 
ATOM      4  C   UNL     1       1.769  -6.572  -1.122  0.00  0.00    +0.024 A 
ATOM      5  C   UNL     1       2.325  -6.971  -2.323  0.00  0.00    +0.062 A 
ATOM      6  C   UNL     1       2.741  -6.019  -3.247  0.00  0.00    +0.045 A 
ATOM      7  C   UNL     1       2.592  -4.669  -2.965  0.00  0.00    +0.050 A 
ATOM      8 CL   UNL     1       2.505  -8.661  -2.677  0.00  0.00    -0.082 Cl
BRANCH   6   9
ATOM      9  N   UNL     1       3.304  -6.423  -4.461  0.00  0.00    -0.357 N 
ATOM     10  H   UNL     1       3.404  -7.367  -4.659  0.00  0.00    +0.142 HD
ATOM     11  H   UNL     1       3.594  -5.758  -5.106  0.00  0.00    +0.142 HD
ENDBRANCH   6   9
ENDBRANCH   1   2
BRANCH   1  12
ATOM     12  S   UNL     1       1.232  -2.441  -0.023  0.00  0.00    +0.093 S 
ATOM     13  O   UNL     1       2.144  -2.841   0.991  0.00  0.00    -0.148 OA
ATOM     14  O   UNL     1      -0.124  -2.865  -0.039  0.00  0.00    -0.148 OA
BRANCH  12  19
ATOM     15  C   UNL     1      -0.017   1.378   0.010  0.00  0.00    +0.002 A 
ATOM     16  C   UNL     1       1.171   2.086   0.002  0.00  0.00    +0.002 A 
ATOM     17  C   UNL     1       2.377   1.412  -0.013  0.00  0.00    +0.022 A 
ATOM     18  C   UNL     1       2.397   0.029  -0.021  0.00  0.00    +0.068 A 
ATOM     19  C   UNL     1       1.208  -0.679  -0.013  0.00  0.00    +0.129 A 
ATOM     20  C   UNL     1       0.002  -0.004   0.002  0.00  0.00    +0.030 A 
ATOM     21 CL   UNL     1       3.912  -0.818  -0.041  0.00  0.00    -0.082 Cl
ENDBRANCH  12  19
ENDBRANCH   1  12
TORSDOF 4
