REMARK  Name = ZINC41356188
REMARK  6 active torsions:
REMARK  status: ('A' for Active; 'I' for Inactive)
REMARK    1  A    between atoms: C_1  and  O_2
REMARK    2  A    between atoms: O_2  and  C_3
REMARK    3  A    between atoms: C_6  and  C_9
REMARK    4  A    between atoms: C_11  and  O_12
REMARK    5  A    between atoms: C_21  and  C_23
REMARK    6  A    between atoms: C_23  and  C_24
REMARK                            x       y       z     vdW  Elec       q    Type
REMARK                         _______ _______ _______ _____ _____    ______ ____
ROOT
ATOM      1  C   UNL     1       2.907  -2.565  -4.160  0.00  0.00    +0.139 A 
ATOM      2  C   UNL     1       2.819  -3.937  -4.297  0.00  0.00    +0.093 A 
ATOM      3  C   UNL     1       3.271  -4.546  -5.467  0.00  0.00    +0.131 A 
ATOM      4  C   UNL     1       3.812  -3.724  -6.488  0.00  0.00    +0.059 A 
ATOM      5  C   UNL     1       4.281  -4.284  -7.687  0.00  0.00    +0.017 A 
ATOM      6  C   UNL     1       4.796  -3.480  -8.656  0.00  0.00    +0.024 A 
ATOM      7  C   UNL     1       4.862  -2.090  -8.463  0.00  0.00    +0.037 A 
ATOM      8  C   UNL     1       4.400  -1.520  -7.276  0.00  0.00    +0.070 A 
ATOM      9  C   UNL     1       3.873  -2.329  -6.286  0.00  0.00    +0.141 A 
ATOM     10  O   UNL     1       3.416  -1.795  -5.134  0.00  0.00    -0.455 OA
ATOM     11  N   UNL     1       5.380  -1.295  -9.440  0.00  0.00    -0.285 N 
ATOM     12  C   UNL     1       5.522  -1.762 -10.665  0.00  0.00    +0.222 C 
ATOM     13  O   UNL     1       5.079  -2.860 -10.953  0.00  0.00    -0.275 OA
ATOM     14  H   UNL     1       5.645  -0.384  -9.235  0.00  0.00    +0.155 HD
ENDROOT
BRANCH   1  18
ATOM     15  C   UNL     1       1.520  -0.743  -0.586  0.00  0.00    +0.120 A 
ATOM     16  C   UNL     1       2.050   0.042  -1.603  0.00  0.00    +0.046 A 
ATOM     17  C   UNL     1       2.502  -0.544  -2.764  0.00  0.00    +0.015 A 
ATOM     18  C   UNL     1       2.426  -1.933  -2.920  0.00  0.00    +0.018 A 
ATOM     19  C   UNL     1       1.891  -2.719  -1.893  0.00  0.00    +0.015 A 
ATOM     20  C   UNL     1       1.447  -2.124  -0.734  0.00  0.00    +0.046 A 
BRANCH  15  22
ATOM     21  C   UNL     1       1.180   1.262   0.642  0.00  0.00    +0.277 C 
ATOM     22  O   UNL     1       1.076  -0.161   0.556  0.00  0.00    -0.495 OA
ENDBRANCH  15  22
ENDBRANCH   1  18
BRANCH   3  23
ATOM     23  O   UNL     1       3.194  -5.886  -5.624  0.00  0.00    -0.506 OA
ATOM     24  H   UNL     1       2.809  -6.349  -4.867  0.00  0.00    +0.292 HD
ENDBRANCH   3  23
BRANCH  12  25
ATOM     25  C   UNL     1       6.232  -0.939 -11.708  0.00  0.00    +0.131 C 
BRANCH  25  26
ATOM     26  C   UNL     1       6.259  -1.694 -13.012  0.00  0.00    -0.039 A 
ATOM     27  C   UNL     1       7.309  -2.547 -13.295  0.00  0.00    +0.004 A 
ATOM     28  C   UNL     1       7.333  -3.240 -14.491  0.00  0.00    +0.000 A 
ATOM     29  C   UNL     1       6.307  -3.081 -15.403  0.00  0.00    +0.000 A 
ATOM     30  C   UNL     1       5.256  -2.229 -15.120  0.00  0.00    +0.000 A 
ATOM     31  C   UNL     1       5.230  -1.539 -13.922  0.00  0.00    +0.004 A 
ENDBRANCH  25  26
ENDBRANCH  12  25
TORSDOF 5
