REMARK  Name = ZINC21469475
REMARK  9 active torsions:
REMARK  status: ('A' for Active; 'I' for Inactive)
REMARK    1  A    between atoms: C_4  and  C_7
REMARK    2  A    between atoms: C_7  and  C_8
REMARK    3  A    between atoms: C_13  and  N_14
REMARK    4  A    between atoms: C_15  and  C_17
REMARK    5  A    between atoms: C_17  and  O_18
REMARK    6  A    between atoms: O_18  and  C_19
REMARK    7  A    between atoms: C_19  and  C_21
REMARK    8  A    between atoms: C_23  and  S_28
REMARK    9  A    between atoms: S_28  and  N_31
REMARK                            x       y       z     vdW  Elec       q    Type
REMARK                         _______ _______ _______ _____ _____    ______ ____
ROOT
ATOM      1  N   UNL     1      -1.237   2.069   0.019  0.00  0.00    -0.282 N 
ATOM      2  C   UNL     1      -2.394   1.385  -0.081  0.00  0.00    +0.255 C 
ATOM      3  O   UNL     1      -2.383   0.173  -0.088  0.00  0.00    -0.272 OA
ATOM      4  H   UNL     1      -1.252   3.165   0.117  0.00  0.00    +0.155 HD
ENDROOT
BRANCH   1  10
ATOM      5  C   UNL     1       1.107   1.950   0.589  0.00  0.00    -0.022 A 
ATOM      6  C   UNL     1       2.312   1.275   0.562  0.00  0.00    +0.006 A 
ATOM      7  C   UNL     1       2.400   0.039  -0.051  0.00  0.00    +0.000 A 
ATOM      8  C   UNL     1       1.283  -0.525  -0.640  0.00  0.00    +0.002 A 
ATOM      9  C   UNL     1       0.076   0.144  -0.617  0.00  0.00    +0.023 A 
ATOM     10  C   UNL     1      -0.016   1.386  -0.001  0.00  0.00    +0.037 A 
BRANCH   5  11
ATOM     11  C   UNL     1       1.011   3.296   1.258  0.00  0.00    +0.072 C 
BRANCH  11  15
ATOM     12  C   UNL     1      -0.345   2.796   5.278  0.00  0.00    +0.000 A 
ATOM     13  C   UNL     1       1.008   2.774   4.997  0.00  0.00    +0.000 A 
ATOM     14  C   UNL     1       1.447   2.936   3.697  0.00  0.00    +0.004 A 
ATOM     15  C   UNL     1       0.533   3.120   2.676  0.00  0.00    -0.043 A 
ATOM     16  C   UNL     1      -0.820   3.148   2.958  0.00  0.00    +0.004 A 
ATOM     17  C   UNL     1      -1.259   2.981   4.258  0.00  0.00    +0.000 A 
ENDBRANCH  11  15
ENDBRANCH   5  11
ENDBRANCH   1  10
BRANCH   2  18
ATOM     18  C   UNL     1      -3.702   2.128  -0.184  0.00  0.00    +0.328 C 
BRANCH  18  19
ATOM     19  O   UNL     1      -4.793   1.175  -0.280  0.00  0.00    -0.452 OA
BRANCH  19  20
ATOM     20  C   UNL     1      -6.038   1.679  -0.380  0.00  0.00    +0.341 C 
ATOM     21  O   UNL     1      -6.208   2.882  -0.387  0.00  0.00    -0.245 OA
BRANCH  20  22
ATOM     22  C   UNL     1      -7.197   0.770  -0.482  0.00  0.00    +0.079 A 
ATOM     23  C   UNL     1      -7.005  -0.614  -0.480  0.00  0.00    +0.045 A 
ATOM     24  C   UNL     1      -8.092  -1.457  -0.571  0.00  0.00    +0.106 A 
ATOM     25  C   UNL     1      -9.371  -0.937  -0.673  0.00  0.00    +0.030 A 
ATOM     26  C   UNL     1      -9.569   0.432  -0.680  0.00  0.00    +0.023 A 
ATOM     27  C   UNL     1      -8.490   1.289  -0.585  0.00  0.00    +0.055 A 
ATOM     28 CL   UNL     1      -8.740   3.007  -0.594  0.00  0.00    -0.083 Cl
BRANCH  24  29
ATOM     29  S   UNL     1      -7.853  -3.203  -0.562  0.00  0.00    +0.056 S 
ATOM     30  O   UNL     1      -6.613  -3.440   0.091  0.00  0.00    -0.153 OA
ATOM     31  O   UNL     1      -9.072  -3.778  -0.114  0.00  0.00    -0.153 OA
BRANCH  29  32
ATOM     32  N   UNL     1      -7.656  -3.678  -2.137  0.00  0.00    -0.204 NA
ATOM     33  H   UNL     1      -7.503  -4.766  -2.175  0.00  0.00    +0.144 HD
ATOM     34  H   UNL     1      -6.781  -3.169  -2.567  0.00  0.00    +0.144 HD
ENDBRANCH  29  32
ENDBRANCH  24  29
ENDBRANCH  20  22
ENDBRANCH  19  20
ENDBRANCH  18  19
ENDBRANCH   2  18
TORSDOF 9
