REMARK  Name = ZINC32665879
REMARK  9 active torsions:
REMARK  status: ('A' for Active; 'I' for Inactive)
REMARK    1  A    between atoms: C_1  and  C_2
REMARK    2  A    between atoms: N_8  and  C_23
REMARK    3  A    between atoms: C_9  and  C_17
REMARK    4  A    between atoms: C_10  and  C_11
REMARK    5  A    between atoms: C_23  and  C_24
REMARK    6  A    between atoms: C_24  and  C_25
REMARK    7  A    between atoms: N_27  and  N_28
REMARK    8  A    between atoms: C_29  and  C_30
REMARK    9  A    between atoms: C_33  and  O_36
REMARK                            x       y       z     vdW  Elec       q    Type
REMARK                         _______ _______ _______ _____ _____    ______ ____
ROOT
ATOM      1  C   UNL     1       0.560   6.981  -1.752  0.00  0.00    +0.046 C 
ATOM      2  C   UNL     1       0.397   7.729  -0.454  0.00  0.00    -0.026 A 
ATOM      3  C   UNL     1      -0.130   9.002  -0.452  0.00  0.00    +0.005 A 
ATOM      4  C   UNL     1      -0.286   9.702   0.736  0.00  0.00    +0.001 A 
ATOM      5  C   UNL     1       0.082   9.138   1.926  0.00  0.00    +0.010 A 
ATOM      6  C   UNL     1       0.618   7.850   1.947  0.00  0.00    +0.008 A 
ATOM      7  C   UNL     1       0.783   7.138   0.746  0.00  0.00    +0.053 A 
ATOM      8  N   UNL     1       1.322   5.907   1.055  0.00  0.00    -0.339 N 
ATOM      9  C   UNL     1       1.518   5.804   2.411  0.00  0.00    +0.058 A 
ATOM     10  C   UNL     1       1.104   6.970   3.019  0.00  0.00    +0.015 A 
ENDROOT
BRANCH  10  11
ATOM     11  C   UNL     1       1.141   7.275   4.467  0.00  0.00    -0.015 A 
ATOM     12  C   UNL     1       0.350   6.547   5.356  0.00  0.00    +0.008 A 
ATOM     13  C   UNL     1       0.393   6.832   6.705  0.00  0.00    +0.001 A 
ATOM     14  C   UNL     1       1.210   7.846   7.175  0.00  0.00    +0.000 A 
ATOM     15  C   UNL     1       1.992   8.575   6.298  0.00  0.00    +0.001 A 
ATOM     16  C   UNL     1       1.962   8.295   4.947  0.00  0.00    +0.008 A 
ENDBRANCH  10  11
BRANCH   9  17
ATOM     17  C   UNL     1       2.083   4.630   3.106  0.00  0.00    -0.001 A 
ATOM     18  C   UNL     1       1.573   3.354   2.857  0.00  0.00    +0.010 A 
ATOM     19  C   UNL     1       2.110   2.262   3.506  0.00  0.00    +0.001 A 
ATOM     20  C   UNL     1       3.143   2.429   4.410  0.00  0.00    +0.000 A 
ATOM     21  C   UNL     1       3.650   3.691   4.666  0.00  0.00    +0.001 A 
ATOM     22  C   UNL     1       3.127   4.792   4.020  0.00  0.00    +0.010 A 
ENDBRANCH   9  17
BRANCH   8  23
ATOM     23  C   UNL     1       1.645   4.864   0.079  0.00  0.00    +0.131 C 
BRANCH  23  24
ATOM     24  C   UNL     1       0.390   4.041  -0.222  0.00  0.00    +0.119 C 
BRANCH  24  25
ATOM     25  C   UNL     1       0.697   3.033  -1.299  0.00  0.00    +0.234 C 
ATOM     26  O   UNL     1       1.809   2.978  -1.780  0.00  0.00    -0.274 OA
ATOM     27  N   UNL     1      -0.265   2.192  -1.729  0.00  0.00    -0.207 N 
ATOM     28  H   UNL     1      -1.274   2.242  -1.294  0.00  0.00    +0.177 HD
BRANCH  27  29
ATOM     29  N   UNL     1       0.020   1.255  -2.731  0.00  0.00    -0.188 NA
ATOM     30  C   UNL     1      -0.931   0.519  -3.220  0.00  0.00    +0.138 C 
BRANCH  30  31
ATOM     31  C   UNL     1      -2.334   0.959  -3.111  0.00  0.00    -0.005 A 
ATOM     32  C   UNL     1      -3.372   0.062  -3.380  0.00  0.00    +0.013 A 
ATOM     33  C   UNL     1      -4.682   0.476  -3.273  0.00  0.00    +0.046 A 
ATOM     34  C   UNL     1      -4.971   1.785  -2.908  0.00  0.00    +0.117 A 
ATOM     35  C   UNL     1      -3.943   2.680  -2.644  0.00  0.00    +0.046 A 
ATOM     36  C   UNL     1      -2.630   2.274  -2.744  0.00  0.00    +0.013 A 
BRANCH  34  37
ATOM     37  O   UNL     1      -6.264   2.190  -2.808  0.00  0.00    -0.507 OA
ATOM     38  H   UNL     1      -6.495   3.226  -2.519  0.00  0.00    +0.292 HD
ENDBRANCH  34  37
ENDBRANCH  30  31
ENDBRANCH  27  29
ENDBRANCH  24  25
ENDBRANCH  23  24
ENDBRANCH   8  23
TORSDOF 8
