REMARK  Name = ZINC09780992
REMARK  9 active torsions:
REMARK  status: ('A' for Active; 'I' for Inactive)
REMARK    1  A    between atoms: C_1  and  C_2
REMARK    2  A    between atoms: C_2  and  N_3
REMARK    3  A    between atoms: N_3  and  C_4
REMARK    4  A    between atoms: N_3  and  C_6
REMARK    5  A    between atoms: C_4  and  C_5
REMARK    6  A    between atoms: C_9  and  C_12
REMARK    7  A    between atoms: C_19  and  S_30
REMARK    8  A    between atoms: S_30  and  C_31
REMARK    9  A    between atoms: C_31  and  C_32
REMARK                            x       y       z     vdW  Elec       q    Type
REMARK                         _______ _______ _______ _____ _____    ______ ____
ROOT
ATOM      1  C   UNL     1       0.002  -0.004   0.002  0.00  0.00    +0.092 C 
ATOM      2  C   UNL     1      -0.669  -0.511   1.244  0.00  0.00    +0.069 A 
ATOM      3  C   UNL     1       0.005  -0.497   2.470  0.00  0.00    +0.258 A 
ATOM      4  O   UNL     1       1.148  -0.074   2.546  0.00  0.00    -0.267 OA
ATOM      5  N   UNL     1      -0.631  -0.960   3.566  0.00  0.00    -0.302 N 
ATOM      6  H   UNL     1      -0.179  -0.960   4.424  0.00  0.00    +0.171 HD
ATOM      7  C   UNL     1      -1.907  -1.427   3.470  0.00  0.00    +0.171 A 
ATOM      8  N   UNL     1      -2.547  -1.443   2.318  0.00  0.00    -0.208 NA
ATOM      9  C   UNL     1      -1.963  -1.001   1.199  0.00  0.00    +0.135 A 
ATOM     10  N   UNL     1      -2.640  -1.033  -0.004  0.00  0.00    -0.302 N 
ATOM     11  C   UNL     1      -1.958  -0.976  -1.189  0.00  0.00    +0.017 C 
ATOM     12  C   UNL     1      -0.697  -0.501  -1.238  0.00  0.00    +0.024 C 
ATOM     13  C   UNL     1       0.013  -0.454  -2.453  0.00  0.00    +0.162 C 
ATOM     14  O   UNL     1       1.144  -0.010  -2.466  0.00  0.00    -0.292 OA
ATOM     15  C   UNL     1      -0.602  -0.942  -3.736  0.00  0.00    +0.080 C 
ATOM     16  C   UNL     1      -1.629  -2.033  -3.413  0.00  0.00    +0.014 C 
ATOM     17  C   UNL     1      -2.657  -1.455  -2.438  0.00  0.00    +0.051 C 
ATOM     18  H   UNL     1      -3.608  -1.098  -0.010  0.00  0.00    +0.153 HD
ENDROOT
BRANCH   1  22
ATOM     19  C   UNL     1      -0.056   4.269   0.025  0.00  0.00    +0.030 A 
ATOM     20  C   UNL     1       1.155   3.590   0.010  0.00  0.00    +0.023 A 
ATOM     21  C   UNL     1       1.171   2.209   0.003  0.00  0.00    +0.006 A 
ATOM     22  C   UNL     1      -0.018   1.503   0.010  0.00  0.00    -0.035 A 
ATOM     23  C   UNL     1      -1.226   2.176   0.020  0.00  0.00    +0.006 A 
ATOM     24  C   UNL     1      -1.248   3.557   0.033  0.00  0.00    +0.023 A 
BRANCH  19  25
ATOM     25  N   UNL     1      -0.075   5.666   0.033  0.00  0.00    -0.330 N 
BRANCH  25  27
ATOM     26  C   UNL     1      -1.784   6.623   1.497  0.00  0.00    +0.024 C 
ATOM     27  C   UNL     1      -1.353   6.381   0.049  0.00  0.00    +0.102 C 
ENDBRANCH  25  27
BRANCH  25  28
ATOM     28  C   UNL     1       1.184   6.416   0.024  0.00  0.00    +0.102 C 
ATOM     29  C   UNL     1       1.608   6.684  -1.421  0.00  0.00    +0.024 C 
ENDBRANCH  25  28
ENDBRANCH  19  25
ENDBRANCH   1  22
BRANCH   7  30
ATOM     30  S   UNL     1      -2.720  -2.022   4.916  0.00  0.00    -0.083 S 
BRANCH  30  31
ATOM     31  C   UNL     1      -4.318  -2.490   4.208  0.00  0.00    +0.115 C 
BRANCH  31  32
ATOM     32  C   UNL     1      -5.206  -3.042   5.293  0.00  0.00    -0.002 A 
ATOM     33  C   UNL     1      -5.199  -4.397   5.570  0.00  0.00    +0.007 A 
ATOM     34  C   UNL     1      -6.008  -4.903   6.570  0.00  0.00    +0.000 A 
ATOM     35  C   UNL     1      -6.835  -4.057   7.286  0.00  0.00    +0.003 A 
ATOM     36  C   UNL     1      -6.848  -2.704   7.007  0.00  0.00    +0.038 A 
ATOM     37  C   UNL     1      -6.033  -2.195   6.010  0.00  0.00    +0.127 A 
ATOM     38  F   UNL     1      -6.045  -0.872   5.736  0.00  0.00    -0.205 F 
ENDBRANCH  31  32
ENDBRANCH  30  31
ENDBRANCH   7  30
TORSDOF 7
