REMARK  Name = ZINC08833255
REMARK  9 active torsions:
REMARK  status: ('A' for Active; 'I' for Inactive)
REMARK    1  A    between atoms: C_1  and  C_2
REMARK    2  A    between atoms: C_9  and  C_11
REMARK    3  A    between atoms: C_14  and  N_18
REMARK    4  A    between atoms: C_16  and  O_17
REMARK    5  A    between atoms: N_18  and  C_19
REMARK    6  A    between atoms: C_19  and  N_21
REMARK    7  A    between atoms: C_22  and  C_24
REMARK    8  A    between atoms: C_27  and  O_32
REMARK    9  A    between atoms: O_32  and  C_33
REMARK                            x       y       z     vdW  Elec       q    Type
REMARK                         _______ _______ _______ _____ _____    ______ ____
ROOT
ATOM      1  N   UNL     1       2.397   1.102  -0.014  0.00  0.00    -0.296 N 
ATOM      2  H   UNL     1       3.065   1.287   0.664  0.00  0.00    +0.154 HD
ENDROOT
BRANCH   1   6
ATOM      3  C   UNL     1      -1.248   3.128   0.052  0.00  0.00    +0.078 A 
ATOM      4  C   UNL     1      -0.058   3.816   0.304  0.00  0.00    +0.018 A 
ATOM      5  C   UNL     1       1.143   3.143   0.280  0.00  0.00    +0.024 A 
ATOM      6  C   UNL     1       1.176   1.778   0.007  0.00  0.00    +0.036 A 
ATOM      7  C   UNL     1      -0.002   1.087  -0.245  0.00  0.00    +0.069 A 
ATOM      8  C   UNL     1      -1.213   1.755  -0.229  0.00  0.00    +0.131 A 
BRANCH   3  17
ATOM      9  C   UNL     1      -6.869   7.889   0.483  0.00  0.00    +0.044 C 
ATOM     10  C   UNL     1      -6.091   6.612   0.299  0.00  0.00    -0.048 A 
ATOM     11  C   UNL     1      -6.759   5.435  -0.003  0.00  0.00    +0.007 A 
ATOM     12  C   UNL     1      -6.061   4.257  -0.174  0.00  0.00    +0.049 A 
ATOM     13  C   UNL     1      -4.681   4.247  -0.046  0.00  0.00    +0.156 A 
ATOM     14  C   UNL     1      -4.000   5.437   0.259  0.00  0.00    +0.110 A 
ATOM     15  C   UNL     1      -4.720   6.621   0.431  0.00  0.00    +0.035 A 
ATOM     16  N   UNL     1      -2.679   5.125   0.321  0.00  0.00    -0.209 NA
ATOM     17  C   UNL     1      -2.536   3.846   0.075  0.00  0.00    +0.232 A 
ATOM     18  O   UNL     1      -3.738   3.285  -0.158  0.00  0.00    -0.435 OA
ENDBRANCH   3  17
BRANCH   8  19
ATOM     19  O   UNL     1      -2.365   1.082  -0.480  0.00  0.00    -0.506 OA
ATOM     20  H   UNL     1      -2.784   0.712   0.309  0.00  0.00    +0.292 HD
ENDBRANCH   8  19
ENDBRANCH   1   6
BRANCH   1  21
ATOM     21  C   UNL     1       2.648   0.193  -0.977  0.00  0.00    +0.141 C 
ATOM     22  S   UNL     1       1.530  -0.031  -2.254  0.00  0.00    -0.018 S 
BRANCH  21  23
ATOM     23  N   UNL     1       3.778  -0.539  -0.934  0.00  0.00    -0.263 N 
ATOM     24  C   UNL     1       4.029  -1.449  -1.897  0.00  0.00    +0.255 C 
ATOM     25  O   UNL     1       3.235  -1.608  -2.804  0.00  0.00    -0.270 OA
ATOM     26  H   UNL     1       4.412  -0.412  -0.210  0.00  0.00    +0.157 HD
BRANCH  24  27
ATOM     27  C   UNL     1       5.264  -2.249  -1.850  0.00  0.00    +0.113 A 
ATOM     28  C   UNL     1       5.282  -3.475  -1.172  0.00  0.00    +0.177 A 
ATOM     29  C   UNL     1       6.442  -4.223  -1.136  0.00  0.00    +0.204 A 
ATOM     30  C   UNL     1       7.593  -3.758  -1.761  0.00  0.00    +0.196 A 
ATOM     31  C   UNL     1       7.582  -2.539  -2.431  0.00  0.00    +0.204 A 
ATOM     32  C   UNL     1       6.427  -1.784  -2.478  0.00  0.00    +0.177 A 
ATOM     33  F   UNL     1       6.418  -0.600  -3.129  0.00  0.00    -0.201 F 
ATOM     34  F   UNL     1       8.705  -2.092  -3.036  0.00  0.00    -0.198 F 
ATOM     35  F   UNL     1       6.460  -5.408  -0.487  0.00  0.00    -0.198 F 
ATOM     36  F   UNL     1       4.166  -3.926  -0.560  0.00  0.00    -0.201 F 
BRANCH  30  37
ATOM     37  O   UNL     1       8.732  -4.496  -1.718  0.00  0.00    -0.489 OA
ATOM     38  C   UNL     1       9.620  -4.256  -0.624  0.00  0.00    +0.277 C 
ENDBRANCH  30  37
ENDBRANCH  24  27
ENDBRANCH  21  23
ENDBRANCH   1  21
TORSDOF 7
