REMARK  Name = ZINC19315055
REMARK  7 active torsions:
REMARK  status: ('A' for Active; 'I' for Inactive)
REMARK    1  A    between atoms: C_1  and  C_2
REMARK    2  A    between atoms: C_3  and  C_23
REMARK    3  A    between atoms: C_4  and  C_14
REMARK    4  A    between atoms: C_23  and  O_25
REMARK    5  A    between atoms: O_25  and  C_26
REMARK    6  A    between atoms: C_26  and  C_27
REMARK    7  A    between atoms: C_26  and  C_28
REMARK                            x       y       z     vdW  Elec       q    Type
REMARK                         _______ _______ _______ _____ _____    ______ ____
ROOT
ATOM      1  C   UNL     1      -2.350  -0.294  -0.205  0.00  0.00    +0.061 C 
ATOM      2  C   UNL     1      -2.394   1.208  -0.088  0.00  0.00    +0.016 C 
ATOM      3  C   UNL     1      -1.266   1.890   0.175  0.00  0.00    +0.065 C 
ATOM      4  C   UNL     1      -1.273   3.385   0.302  0.00  0.00    +0.092 C 
ATOM      5  C   UNL     1      -2.522   3.975  -0.303  0.00  0.00    +0.024 C 
ATOM      6  C   UNL     1      -3.602   3.202  -0.544  0.00  0.00    +0.015 C 
ATOM      7  N   UNL     1      -3.582   1.866  -0.244  0.00  0.00    -0.321 N 
ATOM      8  C   UNL     1      -4.854   3.783  -1.153  0.00  0.00    +0.051 C 
ATOM      9  C   UNL     1      -4.997   5.248  -0.734  0.00  0.00    +0.014 C 
ATOM     10  C   UNL     1      -3.748   6.008  -1.193  0.00  0.00    +0.080 C 
ATOM     11  C   UNL     1      -2.530   5.348  -0.606  0.00  0.00    +0.162 C 
ATOM     12  O   UNL     1      -1.537   6.012  -0.390  0.00  0.00    -0.292 OA
ATOM     13  H   UNL     1      -4.531   1.323  -0.128  0.00  0.00    +0.152 HD
ENDROOT
BRANCH   4  14
ATOM     14  C   UNL     1      -1.207   3.758   1.761  0.00  0.00    -0.032 A 
ATOM     15  C   UNL     1      -2.202   3.339   2.626  0.00  0.00    +0.008 A 
ATOM     16  C   UNL     1      -2.146   3.678   3.965  0.00  0.00    +0.050 A 
ATOM     17  C   UNL     1      -1.092   4.439   4.444  0.00  0.00    +0.166 A 
ATOM     18  C   UNL     1      -0.090   4.861   3.573  0.00  0.00    +0.167 A 
ATOM     19  C   UNL     1      -0.150   4.513   2.233  0.00  0.00    +0.054 A 
ATOM     20  O   UNL     1       0.825   5.588   4.279  0.00  0.00    -0.453 OA
ATOM     21  C   UNL     1       0.589   5.262   5.662  0.00  0.00    +0.466 C 
ATOM     22  O   UNL     1      -0.804   4.901   5.695  0.00  0.00    -0.453 OA
ENDBRANCH   4  14
BRANCH   3  23
ATOM     23  C   UNL     1      -0.049   1.187   0.329  0.00  0.00    +0.338 C 
ATOM     24  O   UNL     1       0.789   1.221  -0.553  0.00  0.00    -0.245 OA
BRANCH  23  25
ATOM     25  O   UNL     1       0.185   0.482   1.456  0.00  0.00    -0.459 OA
BRANCH  25  26
ATOM     26  C   UNL     1       1.438  -0.200   1.546  0.00  0.00    +0.171 C 
ATOM     27  C   UNL     1       1.866  -0.288   3.012  0.00  0.00    +0.052 C 
ATOM     28  C   UNL     1       1.294  -1.610   0.971  0.00  0.00    +0.052 C 
ENDBRANCH  25  26
ENDBRANCH  23  25
ENDBRANCH   3  23
TORSDOF 4
