REMARK  Name = ZINC08771424
REMARK  7 active torsions:
REMARK  status: ('A' for Active; 'I' for Inactive)
REMARK    1  A    between atoms: C_1  and  O_2
REMARK    2  A    between atoms: O_2  and  C_3
REMARK    3  A    between atoms: C_6  and  C_9
REMARK    4  A    between atoms: N_13  and  C_14
REMARK    5  A    between atoms: N_20  and  C_21
REMARK    6  A    between atoms: C_21  and  C_22
REMARK    7  A    between atoms: C_22  and  C_23
REMARK                            x       y       z     vdW  Elec       q    Type
REMARK                         _______ _______ _______ _____ _____    ______ ____
ROOT
ATOM      1  C   UNL     1       4.454  -4.576  -1.481  0.00  0.00    +0.058 A 
ATOM      2  C   UNL     1       5.066  -5.745  -1.762  0.00  0.00    +0.075 A 
ATOM      3  S   UNL     1       6.788  -5.275  -1.761  0.00  0.00    -0.059 S 
ATOM      4  C   UNL     1       6.572  -3.542  -1.389  0.00  0.00    +0.152 A 
ATOM      5  N   UNL     1       7.485  -2.599  -1.248  0.00  0.00    -0.336 N 
ATOM      6  N   UNL     1       5.205  -3.449  -1.286  0.00  0.00    -0.320 N 
ATOM      7  H   UNL     1       7.188  -1.588  -0.934  0.00  0.00    +0.168 HD
ENDROOT
BRANCH   1  11
ATOM      8  C   UNL     1       0.217  -4.396  -1.201  0.00  0.00    +0.120 A 
ATOM      9  C   UNL     1       0.814  -4.946  -2.327  0.00  0.00    +0.046 A 
ATOM     10  C   UNL     1       2.188  -5.006  -2.422  0.00  0.00    +0.013 A 
ATOM     11  C   UNL     1       2.979  -4.513  -1.383  0.00  0.00    -0.001 A 
ATOM     12  C   UNL     1       2.376  -3.966  -0.250  0.00  0.00    +0.013 A 
ATOM     13  C   UNL     1       1.001  -3.904  -0.165  0.00  0.00    +0.046 A 
BRANCH   8  15
ATOM     14  C   UNL     1      -1.685  -3.661   0.022  0.00  0.00    +0.277 C 
ATOM     15  O   UNL     1      -1.138  -4.338  -1.111  0.00  0.00    -0.495 OA
ENDBRANCH   8  15
ENDBRANCH   1  11
BRANCH   5  16
ATOM     16  C   UNL     1       8.801  -2.879  -1.493  0.00  0.00    +0.041 A 
ATOM     17  C   UNL     1       9.601  -3.427  -0.487  0.00  0.00    +0.025 A 
ATOM     18  C   UNL     1      10.926  -3.713  -0.744  0.00  0.00    +0.002 A 
ATOM     19  C   UNL     1      11.466  -3.448  -1.990  0.00  0.00    +0.000 A 
ATOM     20  C   UNL     1      10.681  -2.900  -2.989  0.00  0.00    +0.002 A 
ATOM     21  C   UNL     1       9.353  -2.614  -2.749  0.00  0.00    +0.025 A 
ENDBRANCH   5  16
BRANCH   6  22
ATOM     22  C   UNL     1       4.564  -2.168  -0.980  0.00  0.00    +0.129 C 
BRANCH  22  23
ATOM     23  C   UNL     1       4.128  -1.492  -2.281  0.00  0.00    +0.059 C 
BRANCH  23  24
ATOM     24  C   UNL     1       3.579  -0.122  -1.976  0.00  0.00    -0.021 A 
ATOM     25  C   UNL     1       2.283   0.215  -1.876  0.00  0.00    +0.087 A 
ATOM     26  N   UNL     1       2.168   1.548  -1.589  0.00  0.00    -0.360 N 
ATOM     27  H   UNL     1       1.173   2.002  -1.470  0.00  0.00    +0.165 HD
ATOM     28  C   UNL     1       3.420   2.116  -1.494  0.00  0.00    +0.047 A 
ATOM     29  C   UNL     1       4.358   1.095  -1.733  0.00  0.00    +0.004 A 
ATOM     30  C   UNL     1       5.724   1.381  -1.701  0.00  0.00    +0.030 A 
ATOM     31  C   UNL     1       6.144   2.666  -1.436  0.00  0.00    +0.042 A 
ATOM     32  C   UNL     1       5.218   3.674  -1.200  0.00  0.00    +0.022 A 
ATOM     33  C   UNL     1       3.866   3.406  -1.228  0.00  0.00    +0.027 A 
ATOM     34 CL   UNL     1       7.842   3.028  -1.396  0.00  0.00    -0.084 Cl
ENDBRANCH  23  24
ENDBRANCH  22  23
ENDBRANCH   6  22
TORSDOF 6
