REMARK  Name = ZINC08686732
REMARK  7 active torsions:
REMARK  status: ('A' for Active; 'I' for Inactive)
REMARK    1  A    between atoms: C_1  and  C_2
REMARK    2  A    between atoms: C_5  and  N_8
REMARK    3  A    between atoms: C_9  and  C_11
REMARK    4  A    between atoms: C_11  and  N_12
REMARK    5  A    between atoms: N_20  and  N_21
REMARK    6  A    between atoms: C_22  and  C_24
REMARK    7  A    between atoms: C_33  and  O_34
REMARK                            x       y       z     vdW  Elec       q    Type
REMARK                         _______ _______ _______ _____ _____    ______ ____
ROOT
ATOM      1  N   UNL     1       0.420  -6.845   2.495  0.00  0.00    -0.257 N 
ATOM      2  C   UNL     1       1.622  -7.002   3.177  0.00  0.00    +0.047 A 
ATOM      3  C   UNL     1       2.938  -6.763   2.796  0.00  0.00    +0.024 A 
ATOM      4  C   UNL     1       3.970  -7.008   3.679  0.00  0.00    +0.002 A 
ATOM      5  C   UNL     1       3.711  -7.494   4.949  0.00  0.00    +0.001 A 
ATOM      6  C   UNL     1       2.411  -7.737   5.345  0.00  0.00    +0.012 A 
ATOM      7  C   UNL     1       1.364  -7.493   4.463  0.00  0.00    +0.028 A 
ATOM      8  C   UNL     1      -0.106  -7.644   4.567  0.00  0.00    +0.153 C 
ATOM      9  N   UNL     1      -0.794  -8.073   5.597  0.00  0.00    -0.174 NA
ATOM     10  C   UNL     1      -0.628  -7.199   3.259  0.00  0.00    +0.272 C 
ATOM     11  O   UNL     1      -1.799  -7.162   2.930  0.00  0.00    -0.268 OA
ENDROOT
BRANCH   9  12
ATOM     12  N   UNL     1      -2.191  -8.153   5.523  0.00  0.00    -0.202 N 
ATOM     13  C   UNL     1      -2.898  -8.594   6.582  0.00  0.00    +0.267 C 
ATOM     14  O   UNL     1      -2.324  -8.923   7.602  0.00  0.00    -0.268 OA
ATOM     15  H   UNL     1      -2.649  -7.891   4.709  0.00  0.00    +0.178 HD
BRANCH  13  16
ATOM     16  C   UNL     1      -4.368  -8.678   6.503  0.00  0.00    +0.080 A 
ATOM     17  C   UNL     1      -5.018  -8.307   5.337  0.00  0.00    +0.025 A 
ATOM     18  C   UNL     1      -6.416  -8.390   5.268  0.00  0.00    -0.017 A 
ATOM     19  C   UNL     1      -7.108  -8.022   4.100  0.00  0.00    +0.008 A 
ATOM     20  C   UNL     1      -8.465  -8.113   4.064  0.00  0.00    +0.001 A 
ATOM     21  C   UNL     1      -9.183  -8.566   5.170  0.00  0.00    +0.001 A 
ATOM     22  C   UNL     1      -8.548  -8.930   6.317  0.00  0.00    +0.008 A 
ATOM     23  C   UNL     1      -7.147  -8.851   6.394  0.00  0.00    -0.014 A 
ATOM     24  C   UNL     1      -6.465  -9.220   7.565  0.00  0.00    +0.054 A 
ATOM     25  C   UNL     1      -5.104  -9.141   7.615  0.00  0.00    +0.130 A 
BRANCH  25  26
ATOM     26  O   UNL     1      -4.452  -9.505   8.748  0.00  0.00    -0.506 OA
ATOM     27  H   UNL     1      -4.326  -8.783   9.379  0.00  0.00    +0.292 HD
ENDBRANCH  25  26
ENDBRANCH  13  16
ENDBRANCH   9  12
BRANCH   1  28
ATOM     28  C   UNL     1       0.309  -6.349   1.121  0.00  0.00    +0.210 C 
BRANCH  28  30
ATOM     29  N   UNL     1       0.059  -4.170  -0.021  0.00  0.00    -0.284 N 
ATOM     30  C   UNL     1       0.175  -4.848   1.138  0.00  0.00    +0.235 C 
ATOM     31  O   UNL     1       0.173  -4.251   2.193  0.00  0.00    -0.274 OA
ATOM     32  H   UNL     1      -0.017  -4.651  -0.860  0.00  0.00    +0.155 HD
BRANCH  29  37
ATOM     33  C   UNL     1       0.008   1.503   0.007  0.00  0.00    +0.044 C 
ATOM     34  C   UNL     1       0.022  -0.004  -0.001  0.00  0.00    -0.050 A 
ATOM     35  C   UNL     1       0.777  -0.692   0.931  0.00  0.00    +0.005 A 
ATOM     36  C   UNL     1       0.791  -2.073   0.927  0.00  0.00    +0.023 A 
ATOM     37  C   UNL     1       0.046  -2.771  -0.014  0.00  0.00    +0.033 A 
ATOM     38  C   UNL     1      -0.712  -2.077  -0.948  0.00  0.00    +0.023 A 
ATOM     39  C   UNL     1      -0.726  -0.696  -0.936  0.00  0.00    +0.005 A 
ENDBRANCH  29  37
ENDBRANCH  28  30
ENDBRANCH   1  28
TORSDOF 6
