REMARK  Name = ZINC39672117
REMARK  5 active torsions:
REMARK  status: ('A' for Active; 'I' for Inactive)
REMARK    1  A    between atoms: C_1  and  N_2
REMARK    2  A    between atoms: C_10  and  C_12
REMARK    3  A    between atoms: C_12  and  N_13
REMARK    4  A    between atoms: C_14  and  C_16
REMARK    5  A    between atoms: C_27  and  C_29
REMARK                            x       y       z     vdW  Elec       q    Type
REMARK                         _______ _______ _______ _____ _____    ______ ____
ROOT
ATOM      1  C   UNL     1       7.018  -3.858   1.953  0.00  0.00    +0.100 C 
ATOM      2  C   UNL     1       6.309  -4.648   3.076  0.00  0.00    +0.121 C 
ATOM      3  N   UNL     1       6.917  -5.999   3.024  0.00  0.00    -0.296 N 
ATOM      4  C   UNL     1       8.353  -5.747   2.756  0.00  0.00    +0.115 C 
ATOM      5  C   UNL     1       8.361  -4.580   1.749  0.00  0.00    -0.004 C 
ATOM      6  C   UNL     1       9.520  -3.634   2.046  0.00  0.00    -0.010 C 
ATOM      7  C   UNL     1      10.844  -4.356   1.779  0.00  0.00    -0.082 C 
ATOM      8  N   UNL     1      10.890  -4.796   0.380  0.00  0.00    +0.379 N 
ATOM      9  C   UNL     1       9.828  -5.777   0.128  0.00  0.00    -0.082 C 
ATOM     10  C   UNL     1       8.462  -5.115   0.324  0.00  0.00    -0.010 C 
ATOM     11  C   UNL     1       6.302  -7.188   3.184  0.00  0.00    +0.248 C 
ATOM     12  O   UNL     1       5.094  -7.235   3.313  0.00  0.00    -0.270 OA
ATOM     13  H   UNL     1      10.762  -4.000  -0.226  0.00  0.00    -0.086 HD
ATOM     14  H   UNL     1      11.787  -5.218   0.191  0.00  0.00    -0.086 HD
ENDROOT
BRANCH  11  15
ATOM     15  C   UNL     1       7.096  -8.433   3.203  0.00  0.00    +0.055 A 
ATOM     16  C   UNL     1       8.366  -8.446   3.785  0.00  0.00    +0.016 A 
ATOM     17  C   UNL     1       9.103  -9.611   3.800  0.00  0.00    +0.021 A 
ATOM     18  C   UNL     1       8.587 -10.768   3.239  0.00  0.00    +0.042 A 
ATOM     19  C   UNL     1       7.330 -10.763   2.660  0.00  0.00    +0.040 A 
ATOM     20  C   UNL     1       6.579  -9.604   2.644  0.00  0.00    +0.054 A 
ATOM     21 CL   UNL     1       4.999  -9.600   1.925  0.00  0.00    -0.083 Cl
ATOM     22 CL   UNL     1       9.522 -12.231   3.261  0.00  0.00    -0.083 Cl
ENDBRANCH  11  15
BRANCH   1  24
ATOM     23  N   UNL     1       6.276  -2.883  -0.196  0.00  0.00    -0.311 N 
ATOM     24  C   UNL     1       6.202  -3.899   0.687  0.00  0.00    +0.218 C 
ATOM     25  O   UNL     1       5.479  -4.847   0.462  0.00  0.00    -0.275 OA
ATOM     26  H   UNL     1       6.854  -2.126  -0.016  0.00  0.00    +0.149 HD
BRANCH  23  27
ATOM     27  C   UNL     1       5.483  -2.923  -1.427  0.00  0.00    +0.139 C 
BRANCH  27  37
ATOM     28  C   UNL     1       7.731   1.879  -5.230  0.00  0.00    +0.129 C 
ATOM     29  N   UNL     1       6.486   1.759  -4.467  0.00  0.00    -0.333 N 
ATOM     30  C   UNL     1       5.490   2.839  -4.488  0.00  0.00    +0.105 C 
ATOM     31  C   UNL     1       5.017   3.069  -3.047  0.00  0.00    +0.024 C 
ATOM     32  C   UNL     1       4.325   1.802  -2.546  0.00  0.00    +0.038 C 
ATOM     33  C   UNL     1       5.200   0.598  -2.774  0.00  0.00    -0.026 A 
ATOM     34  C   UNL     1       6.223   0.611  -3.711  0.00  0.00    +0.033 A 
ATOM     35  C   UNL     1       7.007  -0.521  -3.904  0.00  0.00    +0.024 A 
ATOM     36  C   UNL     1       6.766  -1.662  -3.166  0.00  0.00    +0.007 A 
ATOM     37  C   UNL     1       5.745  -1.678  -2.234  0.00  0.00    -0.030 A 
ATOM     38  C   UNL     1       4.969  -0.548  -2.032  0.00  0.00    +0.010 A 
ENDBRANCH  27  37
ENDBRANCH  23  27
ENDBRANCH   1  24
TORSDOF 4
