REMARK  Name = ZINC08690878
REMARK  6 active torsions:
REMARK  status: ('A' for Active; 'I' for Inactive)
REMARK    1  A    between atoms: C_1  and  C_2
REMARK    2  A    between atoms: C_7  and  N_8
REMARK    3  A    between atoms: N_10  and  N_11
REMARK    4  A    between atoms: C_12  and  C_13
REMARK    5  A    between atoms: C_20  and  S_23
REMARK    6  A    between atoms: S_23  and  N_26
REMARK                            x       y       z     vdW  Elec       q    Type
REMARK                         _______ _______ _______ _____ _____    ______ ____
ROOT
ATOM      1  C   UNL     1       0.064   2.904   6.316  0.00  0.00    +0.020 A 
ATOM      2  C   UNL     1       0.202   3.600   7.476  0.00  0.00    +0.093 A 
ATOM      3  N   UNL     1      -0.080   4.916   7.258  0.00  0.00    -0.360 N 
ATOM      4  H   UNL     1      -0.051   5.610   7.936  0.00  0.00    +0.165 HD
ATOM      5  C   UNL     1      -0.414   5.120   5.936  0.00  0.00    +0.047 A 
ATOM      6  C   UNL     1      -0.334   3.878   5.285  0.00  0.00    +0.010 A 
ATOM      7  C   UNL     1      -0.616   3.784   3.924  0.00  0.00    +0.039 A 
ATOM      8  C   UNL     1      -0.970   4.914   3.221  0.00  0.00    +0.106 A 
ATOM      9  C   UNL     1      -1.046   6.143   3.862  0.00  0.00    +0.030 A 
ATOM     10  C   UNL     1      -0.777   6.249   5.209  0.00  0.00    +0.028 A 
ENDROOT
BRANCH   8  11
ATOM     11  S   UNL     1      -1.328   4.800   1.499  0.00  0.00    +0.061 S 
ATOM     12  O   UNL     1      -0.988   6.057   0.930  0.00  0.00    -0.153 OA
ATOM     13  O   UNL     1      -0.758   3.580   1.046  0.00  0.00    -0.153 OA
BRANCH  11  14
ATOM     14  N   UNL     1      -2.969   4.641   1.349  0.00  0.00    -0.177 NA
ATOM     15  C   UNL     1      -3.606   3.321   1.454  0.00  0.00    +0.109 C 
ATOM     16  C   UNL     1      -4.710   3.389   2.514  0.00  0.00    +0.017 C 
ATOM     17  C   UNL     1      -5.674   4.526   2.169  0.00  0.00    +0.003 C 
ATOM     18  C   UNL     1      -4.918   5.857   2.173  0.00  0.00    +0.017 C 
ATOM     19  C   UNL     1      -3.817   5.818   1.115  0.00  0.00    +0.109 C 
ENDBRANCH  11  14
ENDBRANCH   8  11
BRANCH   1  21
ATOM     20  N   UNL     1       0.182   0.939   4.940  0.00  0.00    -0.180 NA
ATOM     21  C   UNL     1       0.278   1.459   6.126  0.00  0.00    +0.142 C 
BRANCH  20  24
ATOM     22  N   UNL     1       0.129  -0.181   2.426  0.00  0.00    -0.294 N 
ATOM     23  C   UNL     1       0.270  -0.991   3.522  0.00  0.00    +0.163 C 
ATOM     24  N   UNL     1       0.260  -0.450   4.777  0.00  0.00    -0.258 N 
ATOM     25  S   UNL     1       0.452  -2.629   3.325  0.00  0.00    -0.014 SA
ATOM     26  H   UNL     1       0.306  -1.028   5.554  0.00  0.00    +0.191 HD
ATOM     27  H   UNL     1       0.422   0.743   2.465  0.00  0.00    +0.154 HD
BRANCH  22  34
ATOM     28  C   UNL     1       0.694   1.158  -0.020  0.00  0.00    +0.045 C 
ATOM     29  C   UNL     1      -0.187  -0.064   0.035  0.00  0.00    -0.029 A 
ATOM     30  C   UNL     1      -0.743  -0.569  -1.124  0.00  0.00    +0.005 A 
ATOM     31  C   UNL     1      -1.552  -1.689  -1.074  0.00  0.00    +0.000 A 
ATOM     32  C   UNL     1      -1.807  -2.308   0.136  0.00  0.00    +0.002 A 
ATOM     33  C   UNL     1      -1.255  -1.808   1.299  0.00  0.00    +0.023 A 
ATOM     34  C   UNL     1      -0.437  -0.686   1.251  0.00  0.00    +0.036 A 
ENDBRANCH  22  34
ENDBRANCH  20  24
ENDBRANCH   1  21
TORSDOF 5
