REMARK  Name = ZINC39574864
REMARK  5 active torsions:
REMARK  status: ('A' for Active; 'I' for Inactive)
REMARK    1  A    between atoms: C_9  and  O_12
REMARK    2  A    between atoms: O_12  and  C_13
REMARK    3  A    between atoms: C_13  and  C_14
REMARK    4  A    between atoms: N_16  and  N_17
REMARK    5  A    between atoms: C_18  and  C_19
REMARK                            x       y       z     vdW  Elec       q    Type
REMARK                         _______ _______ _______ _____ _____    ______ ____
ROOT
ATOM      1  C   UNL     1       6.229  -4.626  -0.074  0.00  0.00    +0.270 C 
ATOM      2  O   UNL     1       7.178  -3.869  -0.079  0.00  0.00    -0.270 OA
ATOM      3  N   UNL     1       6.431  -5.958  -0.082  0.00  0.00    -0.204 N 
ATOM      4  H   UNL     1       5.673  -6.563  -0.078  0.00  0.00    +0.177 HD
ENDROOT
BRANCH   3   5
ATOM      5  N   UNL     1       7.735  -6.470  -0.095  0.00  0.00    -0.191 NA
ATOM      6  C   UNL     1       7.926  -7.736  -0.102  0.00  0.00    +0.120 C 
BRANCH   6   7
ATOM      7  C   UNL     1       9.329  -8.286  -0.116  0.00  0.00    +0.141 C 
ATOM      8  C   UNL     1       9.519  -9.042  -1.416  0.00  0.00    +0.001 C 
ATOM      9  C   UNL     1       9.866 -10.358  -1.329  0.00  0.00    -0.007 A 
ATOM     10  C   UNL     1      10.069 -11.163  -2.534  0.00  0.00    +0.009 A 
ATOM     11  C   UNL     1      10.414 -12.469  -2.398  0.00  0.00    +0.001 A 
ATOM     12  C   UNL     1      10.576 -13.051  -1.141  0.00  0.00    +0.002 A 
ATOM     13  C   UNL     1      10.403 -12.358   0.015  0.00  0.00    +0.024 A 
ATOM     14  C   UNL     1      10.045 -10.998  -0.014  0.00  0.00    +0.040 A 
ATOM     15  N   UNL     1       9.878 -10.329   1.127  0.00  0.00    -0.284 N 
ATOM     16  C   UNL     1       9.540  -9.051   1.170  0.00  0.00    +0.229 C 
ATOM     17  O   UNL     1       9.401  -8.494   2.243  0.00  0.00    -0.274 OA
ATOM     18  H   UNL     1      10.009 -10.801   1.963  0.00  0.00    +0.155 HD
ENDBRANCH   6   7
ENDBRANCH   3   5
BRANCH   1  19
ATOM     19  C   UNL     1       4.827  -4.076  -0.060  0.00  0.00    +0.326 C 
BRANCH  19  20
ATOM     20  O   UNL     1       4.875  -2.647  -0.054  0.00  0.00    -0.482 OA
BRANCH  20  29
ATOM     21  C   UNL     1      -0.016   1.357   0.009  0.00  0.00    +0.001 A 
ATOM     22  C   UNL     1       1.168   2.091   0.002  0.00  0.00    +0.001 A 
ATOM     23  C   UNL     1       2.378   1.468  -0.013  0.00  0.00    +0.010 A 
ATOM     24  C   UNL     1       2.438   0.063  -0.021  0.00  0.00    -0.000 A 
ATOM     25  C   UNL     1       1.232  -0.683  -0.013  0.00  0.00    -0.017 A 
ATOM     26  C   UNL     1       0.002  -0.004   0.002  0.00  0.00    +0.008 A 
ATOM     27  C   UNL     1       1.288  -2.088  -0.020  0.00  0.00    +0.012 A 
ATOM     28  C   UNL     1       2.493  -2.718  -0.034  0.00  0.00    +0.047 A 
ATOM     29  C   UNL     1       3.686  -1.990  -0.041  0.00  0.00    +0.136 A 
ATOM     30  C   UNL     1       3.669  -0.613  -0.036  0.00  0.00    +0.067 A 
ATOM     31 BR   UNL     1       5.290   0.359  -0.046  0.00  0.00    -0.046 Br
ENDBRANCH  20  29
ENDBRANCH  19  20
ENDBRANCH   1  19
TORSDOF 5
