REMARK  Name = ZINC24962517
REMARK  10 active torsions:
REMARK  status: ('A' for Active; 'I' for Inactive)
REMARK    1  A    between atoms: C_1  and  N_2
REMARK    2  A    between atoms: N_2  and  C_3
REMARK    3  A    between atoms: N_2  and  C_14
REMARK    4  A    between atoms: C_3  and  C_4
REMARK    5  A    between atoms: C_6  and  N_11
REMARK    6  A    between atoms: C_14  and  C_15
REMARK    7  A    between atoms: C_18  and  C_31
REMARK    8  A    between atoms: C_21  and  C_23
REMARK    9  A    between atoms: C_26  and  O_29
REMARK   10  A    between atoms: O_29  and  C_30
REMARK                            x       y       z     vdW  Elec       q    Type
REMARK                         _______ _______ _______ _____ _____    ______ ____
ROOT
ATOM      1  C   UNL     1      -0.677   5.450  -2.047  0.00  0.00    +0.219 C 
ATOM      2  O   UNL     1      -0.933   4.456  -2.694  0.00  0.00    -0.276 OA
ATOM      3  N   UNL     1      -0.967   5.491  -0.731  0.00  0.00    -0.184 N 
ATOM      4  C   UNL     1      -1.592   4.406   0.042  0.00  0.00    +0.172 C 
ATOM      5  C   UNL     1      -1.686   4.985   1.467  0.00  0.00    +0.090 C 
ATOM      6  C   UNL     1      -1.090   6.368   1.338  0.00  0.00    +0.069 C 
ATOM      7  N   UNL     1      -0.724   6.568   0.119  0.00  0.00    -0.181 NA
ENDROOT
BRANCH   6   8
ATOM      8  C   UNL     1      -0.948   7.340   2.438  0.00  0.00    -0.002 A 
ATOM      9  C   UNL     1      -1.388   7.012   3.723  0.00  0.00    +0.013 A 
ATOM     10  C   UNL     1      -1.249   7.921   4.750  0.00  0.00    +0.046 A 
ATOM     11  C   UNL     1      -0.682   9.165   4.506  0.00  0.00    +0.120 A 
ATOM     12  C   UNL     1      -0.249   9.498   3.229  0.00  0.00    +0.046 A 
ATOM     13  C   UNL     1      -0.379   8.593   2.197  0.00  0.00    +0.013 A 
BRANCH  11  14
ATOM     14  O   UNL     1      -0.551  10.060   5.519  0.00  0.00    -0.495 OA
ATOM     15  C   UNL     1      -1.018   9.654   6.808  0.00  0.00    +0.277 C 
ENDBRANCH  11  14
ENDBRANCH   6   8
BRANCH   4  16
ATOM     16  C   UNL     1      -0.722   3.175   0.026  0.00  0.00    +0.128 A 
ATOM     17  C   UNL     1      -1.159   1.903   0.017  0.00  0.00    +0.046 A 
ATOM     18  C   UNL     1      -0.013   1.076   0.008  0.00  0.00    +0.041 A 
ATOM     19  C   UNL     1       1.057   1.892   0.002  0.00  0.00    +0.195 A 
ATOM     20  O   UNL     1       0.621   3.162   0.013  0.00  0.00    -0.466 OA
ENDBRANCH   4  16
BRANCH   1  21
ATOM     21  C   UNL     1      -0.035   6.639  -2.715  0.00  0.00    +0.021 C 
BRANCH  21  23
ATOM     22  C   UNL     1      -1.104   6.199  -4.842  0.00  0.00    -0.095 C 
ATOM     23  N   UNL     1       0.177   6.345  -4.138  0.00  0.00    +0.386 N 
ATOM     24  H   UNL     1       0.713   5.388  -4.210  0.00  0.00    -0.081 HD
BRANCH  23  25
ATOM     25  C   UNL     1       1.010   7.377  -4.770  0.00  0.00    -0.041 C 
BRANCH  25  26
ATOM     26  C   UNL     1       1.409   6.925  -6.151  0.00  0.00    -0.043 A 
ATOM     27  C   UNL     1       0.802   7.479  -7.262  0.00  0.00    +0.036 A 
ATOM     28  C   UNL     1       1.168   7.064  -8.529  0.00  0.00    +0.126 A 
ATOM     29  C   UNL     1       2.143   6.096  -8.685  0.00  0.00    +0.034 A 
ATOM     30  C   UNL     1       2.751   5.542  -7.575  0.00  0.00    +0.022 A 
ATOM     31  C   UNL     1       2.388   5.960  -6.306  0.00  0.00    +0.042 A 
ATOM     32 CL   UNL     1       3.156   5.269  -4.911  0.00  0.00    -0.083 Cl
BRANCH  28  33
ATOM     33  N   UNL     1       0.518   7.657  -9.719  0.00  0.00    +0.056 N 
ATOM     34  O   UNL     1      -0.340   8.511  -9.581  0.00  0.00    -0.126 OA
ATOM     35  O   UNL     1       0.841   7.292 -10.835  0.00  0.00    -0.126 OA
ENDBRANCH  28  33
ENDBRANCH  25  26
ENDBRANCH  23  25
ENDBRANCH  21  23
ENDBRANCH   1  21
TORSDOF 8
