REMARK  Name = ZINC06117244
REMARK  8 active torsions:
REMARK  status: ('A' for Active; 'I' for Inactive)
REMARK    1  A    between atoms: C_9  and  C_12
REMARK    2  A    between atoms: C_12  and  C_14
REMARK    3  A    between atoms: C_12  and  O_31
REMARK    4  A    between atoms: C_14  and  N_15
REMARK    5  A    between atoms: N_15  and  C_16
REMARK    6  A    between atoms: C_16  and  C_17
REMARK    7  A    between atoms: C_17  and  C_19
REMARK    8  A    between atoms: C_17  and  O_30
REMARK                            x       y       z     vdW  Elec       q    Type
REMARK                         _______ _______ _______ _____ _____    ______ ____
ROOT
ATOM      1  N   UNL     1       7.401  -2.396  -0.584  0.00  0.00    +0.383 N 
ATOM      2  H   UNL     1       7.589  -2.304   0.403  0.00  0.00    -0.086 HD
ATOM      3  H   UNL     1       7.414  -3.373  -0.839  0.00  0.00    -0.086 HD
ENDROOT
BRANCH   1   4
ATOM      4  C   UNL     1       6.081  -1.829  -0.887  0.00  0.00    -0.047 C 
BRANCH   4   5
ATOM      5  C   UNL     1       5.009  -2.578  -0.091  0.00  0.00    +0.138 C 
BRANCH   5  14
ATOM      6  C   UNL     1      -0.017   1.377   0.010  0.00  0.00    +0.000 A 
ATOM      7  C   UNL     1       1.172   2.084   0.002  0.00  0.00    +0.004 A 
ATOM      8  C   UNL     1       2.375   1.409  -0.011  0.00  0.00    +0.046 A 
ATOM      9  C   UNL     1       2.398   0.018  -0.018  0.00  0.00    +0.124 A 
ATOM     10  C   UNL     1       1.207  -0.687  -0.014  0.00  0.00    -0.006 A 
ATOM     11  C   UNL     1       0.002  -0.004   0.002  0.00  0.00    +0.007 A 
ATOM     12  C   UNL     1       1.187  -2.194  -0.033  0.00  0.00    +0.042 C 
ATOM     13  C   UNL     1       2.556  -2.734   0.389  0.00  0.00    +0.052 C 
ATOM     14  C   UNL     1       3.634  -1.986  -0.407  0.00  0.00    +0.200 C 
ATOM     15  O   UNL     1       3.602  -0.610  -0.025  0.00  0.00    -0.486 OA
ENDBRANCH   5  14
BRANCH   5  16
ATOM     16  O   UNL     1       5.028  -3.960  -0.452  0.00  0.00    -0.390 OA
ATOM     17  H   UNL     1       4.854  -4.125  -1.389  0.00  0.00    +0.210 HD
ENDBRANCH   5  16
ENDBRANCH   4   5
ENDBRANCH   1   4
BRANCH   1  18
ATOM     18  C   UNL     1       8.430  -1.677  -1.348  0.00  0.00    -0.047 C 
BRANCH  18  19
ATOM     19  C   UNL     1       9.806  -2.269  -1.033  0.00  0.00    +0.138 C 
BRANCH  19  20
ATOM     20  C   UNL     1      10.877  -1.520  -1.829  0.00  0.00    +0.200 C 
ATOM     21  C   UNL     1      12.268  -2.015  -1.414  0.00  0.00    +0.052 C 
ATOM     22  C   UNL     1      13.307  -1.328  -2.304  0.00  0.00    +0.042 C 
ATOM     23  C   UNL     1      13.035   0.154  -2.352  0.00  0.00    -0.006 A 
ATOM     24  C   UNL     1      14.043   1.004  -2.777  0.00  0.00    +0.007 A 
ATOM     25  C   UNL     1      13.827   2.366  -2.837  0.00  0.00    +0.000 A 
ATOM     26  C   UNL     1      12.599   2.888  -2.472  0.00  0.00    +0.004 A 
ATOM     27  C   UNL     1      11.592   2.047  -2.047  0.00  0.00    +0.046 A 
ATOM     28  C   UNL     1      11.807   0.673  -1.982  0.00  0.00    +0.124 A 
ATOM     29  O   UNL     1      10.793  -0.122  -1.550  0.00  0.00    -0.486 OA
ENDBRANCH  19  20
BRANCH  19  30
ATOM     30  O   UNL     1      10.071  -2.137   0.365  0.00  0.00    -0.390 OA
ATOM     31  H   UNL     1      10.075  -1.223   0.680  0.00  0.00    +0.210 HD
ENDBRANCH  19  30
ENDBRANCH  18  19
ENDBRANCH   1  18
TORSDOF 8
