REMARK  Name = ZINC59040483
REMARK  7 active torsions:
REMARK  status: ('A' for Active; 'I' for Inactive)
REMARK    1  A    between atoms: C_1  and  C_2
REMARK    2  A    between atoms: C_2  and  C_4
REMARK    3  A    between atoms: C_7  and  N_10
REMARK    4  A    between atoms: C_11  and  C_13
REMARK    5  A    between atoms: C_13  and  S_14
REMARK    6  A    between atoms: S_14  and  C_15
REMARK    7  A    between atoms: N_20  and  N_21
REMARK                            x       y       z     vdW  Elec       q    Type
REMARK                         _______ _______ _______ _____ _____    ______ ____
ROOT
ATOM      1  S   UNL     1       0.361  -6.652  -5.890  0.00  0.00    -0.075 S 
ENDROOT
BRANCH   1   2
ATOM      2  C   UNL     1       0.482  -7.364  -7.498  0.00  0.00    +0.211 A 
ATOM      3  N   UNL     1       0.598  -8.669  -7.763  0.00  0.00    -0.186 NA
ATOM      4  C   UNL     1       0.663  -8.853  -9.065  0.00  0.00    +0.232 A 
ATOM      5  N   UNL     1       0.589  -7.644  -9.660  0.00  0.00    -0.245 N 
ATOM      6  N   UNL     1       0.467  -6.699  -8.629  0.00  0.00    -0.144 NA
ATOM      7  N   UNL     1       0.787 -10.070  -9.709  0.00  0.00    -0.205 N 
ATOM      8  H   UNL     1       0.828 -10.105 -10.678  0.00  0.00    +0.177 HD
ATOM      9  H   UNL     1       0.611  -7.463 -10.613  0.00  0.00    +0.192 HD
BRANCH   7  10
ATOM     10  N   UNL     1       0.854 -11.254  -8.963  0.00  0.00    -0.189 NA
ATOM     11  C   UNL     1       0.969 -12.381  -9.560  0.00  0.00    +0.037 C 
ATOM     12  C   UNL     1       1.052 -12.600 -11.056  0.00  0.00    +0.052 C 
ATOM     13  C   UNL     1       1.173 -14.122 -11.279  0.00  0.00    +0.006 C 
ATOM     14  C   UNL     1       0.566 -14.733  -9.990  0.00  0.00    +0.006 C 
ATOM     15  C   UNL     1       1.054 -13.745  -8.898  0.00  0.00    +0.052 C 
ENDBRANCH   7  10
ENDBRANCH   1   2
BRANCH   1  16
ATOM     16  C   UNL     1       0.222  -4.872  -6.208  0.00  0.00    +0.173 C 
BRANCH  16  18
ATOM     17  N   UNL     1      -0.005  -2.792  -4.888  0.00  0.00    -0.285 N 
ATOM     18  C   UNL     1       0.110  -4.135  -4.898  0.00  0.00    +0.227 C 
ATOM     19  O   UNL     1       0.123  -4.750  -3.853  0.00  0.00    -0.275 OA
ATOM     20  H   UNL     1      -0.093  -2.306  -5.723  0.00  0.00    +0.155 HD
BRANCH  17  24
ATOM     21  C   UNL     1       0.017  -0.730  -1.275  0.00  0.00    +0.017 A 
ATOM     22  C   UNL     1       0.783  -1.893  -1.424  0.00  0.00    +0.013 A 
ATOM     23  C   UNL     1       0.772  -2.569  -2.617  0.00  0.00    +0.024 A 
ATOM     24  C   UNL     1       0.003  -2.101  -3.678  0.00  0.00    +0.033 A 
ATOM     25  C   UNL     1      -0.760  -0.945  -3.534  0.00  0.00    +0.024 A 
ATOM     26  C   UNL     1      -0.760  -0.266  -2.343  0.00  0.00    +0.013 A 
BRANCH  21  28
ATOM     27  C   UNL     1       0.862  -0.504   1.149  0.00  0.00    +0.091 C 
ATOM     28  C   UNL     1       0.025  -0.002   0.001  0.00  0.00    +0.160 C 
ATOM     29  O   UNL     1      -0.643   1.002   0.130  0.00  0.00    -0.292 OA
ENDBRANCH  21  28
ENDBRANCH  17  24
ENDBRANCH  16  18
ENDBRANCH   1  16
TORSDOF 6
