REMARK  Name = ZINC04014872
REMARK  13 active torsions:
REMARK  status: ('A' for Active; 'I' for Inactive)
REMARK    1  A    between atoms: C_1  and  C_2
REMARK    2  A    between atoms: C_2  and  C_3
REMARK    3  A    between atoms: C_13  and  O_41
REMARK    4  A    between atoms: C_17  and  C_40
REMARK    5  A    between atoms: C_22  and  C_39
REMARK    6  A    between atoms: C_25  and  C_38
REMARK    7  A    between atoms: C_26  and  C_28
REMARK    8  A    between atoms: C_28  and  C_29
REMARK    9  A    between atoms: C_29  and  C_30
REMARK   10  A    between atoms: C_30  and  C_32
REMARK   11  A    between atoms: C_30  and  C_33
REMARK   12  A    between atoms: C_33  and  N_34
REMARK   13  A    between atoms: C_35  and  C_37
REMARK                            x       y       z     vdW  Elec       q    Type
REMARK                         _______ _______ _______ _____ _____    ______ ____
ROOT
ATOM      1  C   UNL     1       0.439  -0.824   6.487  0.00  0.00    +0.117 C 
ATOM      2  C   UNL     1      -0.397  -1.227   7.708  0.00  0.00    +0.053 C 
ATOM      3  C   UNL     1      -0.489   0.007   8.629  0.00  0.00    +0.003 C 
ATOM      4  C   UNL     1      -1.870   0.627   8.493  0.00  0.00    +0.000 C 
ATOM      5  C   UNL     1      -2.329   0.669   7.036  0.00  0.00    +0.031 C 
ATOM      6  C   UNL     1      -3.692   1.302   6.971  0.00  0.00    -0.027 C 
ATOM      7  C   UNL     1      -4.101   2.184   7.834  0.00  0.00    -0.065 C 
ATOM      8  C   UNL     1      -5.469   2.809   7.619  0.00  0.00    +0.062 C 
ATOM      9  C   UNL     1      -5.304   4.332   7.627  0.00  0.00    +0.119 C 
ATOM     10  C   UNL     1      -4.636   4.766   8.931  0.00  0.00    +0.032 C 
ATOM     11  C   UNL     1      -3.238   4.163   9.041  0.00  0.00    +0.014 C 
ATOM     12  C   UNL     1      -3.299   2.634   9.020  0.00  0.00    -0.008 C 
ATOM     13  C   UNL     1      -1.899   2.046   9.055  0.00  0.00    +0.003 C 
ATOM     14  C   UNL     1      -0.920   2.894   8.237  0.00  0.00    +0.005 C 
ATOM     15  C   UNL     1       0.487   2.376   8.496  0.00  0.00    +0.008 C 
ATOM     16  C   UNL     1       0.677   0.907   8.227  0.00  0.00    -0.019 C 
ATOM     17  C   UNL     1       1.129   0.528   6.824  0.00  0.00    +0.068 C 
ATOM     18  C   UNL     1       0.664   1.431   5.715  0.00  0.00    -0.028 C 
ATOM     19  C   UNL     1      -0.199   0.764   4.972  0.00  0.00    +0.098 C 
ATOM     20  O   UNL     1      -0.439  -0.487   5.402  0.00  0.00    -0.489 OA
ATOM     21  C   UNL     1       1.119   2.839   5.409  0.00  0.00    +0.043 C 
ATOM     22  C   UNL     1       1.855   0.490   9.165  0.00  0.00    +0.012 C 
ATOM     23  C   UNL     1      -4.021   2.167  10.290  0.00  0.00    +0.016 C 
ENDROOT
BRANCH   1  25
ATOM     24  C   UNL     1       0.693  -3.187   5.702  0.00  0.00    +0.008 C 
ATOM     25  C   UNL     1       1.446  -1.914   6.093  0.00  0.00    +0.045 C 
ENDBRANCH   1  25
BRANCH   9  26
ATOM     26  O   UNL     1      -4.497   4.731   6.518  0.00  0.00    -0.391 OA
ATOM     27  H   UNL     1      -4.863   4.486   5.657  0.00  0.00    +0.210 HD
ENDBRANCH   9  26
BRANCH  19  28
ATOM     28  C   UNL     1      -0.855   1.364   3.753  0.00  0.00    +0.074 C 
BRANCH  28  29
ATOM     29  C   UNL     1      -0.064   0.971   2.503  0.00  0.00    +0.012 C 
BRANCH  29  30
ATOM     30  C   UNL     1      -0.729   1.579   1.267  0.00  0.00    +0.003 C 
ATOM     31  C   UNL     1      -0.641   3.105   1.339  0.00  0.00    +0.009 C 
BRANCH  30  32
ATOM     32  C   UNL     1      -0.013   1.086   0.008  0.00  0.00    +0.107 C 
BRANCH  32  33
ATOM     33  N   UNL     1      -0.721   1.571  -1.179  0.00  0.00    -0.315 N 
ATOM     34  C   UNL     1      -0.268   1.258  -2.409  0.00  0.00    +0.210 C 
ATOM     35  O   UNL     1       0.726   0.575  -2.534  0.00  0.00    -0.276 OA
ATOM     36  C   UNL     1      -0.997   1.758  -3.630  0.00  0.00    +0.109 C 
ATOM     37  H   UNL     1      -1.516   2.118  -1.079  0.00  0.00    +0.149 HD
ENDBRANCH  32  33
ENDBRANCH  30  32
ENDBRANCH  29  30
ENDBRANCH  28  29
ENDBRANCH  19  28
TORSDOF 7
