REMARK  Name = ZINC02094351
REMARK  7 active torsions:
REMARK  status: ('A' for Active; 'I' for Inactive)
REMARK    1  A    between atoms: C_1  and  C_2
REMARK    2  A    between atoms: C_2  and  C_3
REMARK    3  A    between atoms: C_3  and  C_4
REMARK    4  A    between atoms: C_4  and  S_5
REMARK    5  A    between atoms: S_5  and  C_6
REMARK    6  A    between atoms: C_19  and  C_22
REMARK    7  A    between atoms: C_25  and  C_28
REMARK                            x       y       z     vdW  Elec       q    Type
REMARK                         _______ _______ _______ _____ _____    ______ ____
ROOT
ATOM      1  C   UNL     1       1.734  11.225   2.178  0.00  0.00    +0.212 A 
ATOM      2  N   UNL     1       2.032   9.942   1.990  0.00  0.00    -0.184 NA
ATOM      3  C   UNL     1       1.090   9.114   1.572  0.00  0.00    +0.248 A 
ATOM      4  C   UNL     1      -0.205   9.625   1.332  0.00  0.00    +0.156 A 
ATOM      5  N   UNL     1      -0.437  10.912   1.542  0.00  0.00    -0.141 NA
ATOM      6  N   UNL     1       0.509  11.684   1.953  0.00  0.00    -0.122 NA
ATOM      7  C   UNL     1      -1.269   8.720   0.848  0.00  0.00    +0.029 A 
ATOM      8  C   UNL     1      -2.531   8.704   1.428  0.00  0.00    +0.027 A 
ATOM      9  C   UNL     1      -3.502   7.853   0.937  0.00  0.00    +0.019 A 
ATOM     10  C   UNL     1      -3.225   7.017  -0.132  0.00  0.00    +0.017 A 
ATOM     11  C   UNL     1      -1.971   7.019  -0.716  0.00  0.00    +0.025 A 
ATOM     12  C   UNL     1      -0.987   7.860  -0.230  0.00  0.00    +0.040 A 
ATOM     13  N   UNL     1       0.301   7.863  -0.772  0.00  0.00    -0.305 N 
ATOM     14  C   UNL     1       1.404   7.340   0.028  0.00  0.00    +0.294 C 
ATOM     15  O   UNL     1       1.343   7.799   1.374  0.00  0.00    -0.449 OA
ATOM     16 BR   UNL     1      -5.219   7.829   1.729  0.00  0.00    -0.050 Br
ATOM     17  H   UNL     1       0.458   8.206  -1.666  0.00  0.00    +0.150 HD
ENDROOT
BRANCH  14  18
ATOM     18  C   UNL     1       1.345   5.834   0.020  0.00  0.00    +0.011 A 
ATOM     19  C   UNL     1       0.959   5.166  -1.128  0.00  0.00    +0.010 A 
ATOM     20  C   UNL     1       0.904   3.788  -1.143  0.00  0.00    +0.015 A 
ATOM     21  C   UNL     1       1.239   3.067   0.005  0.00  0.00    +0.063 A 
ATOM     22  C   UNL     1       1.623   3.748   1.162  0.00  0.00    +0.015 A 
ATOM     23  C   UNL     1       1.679   5.126   1.161  0.00  0.00    +0.010 A 
BRANCH  21  24
ATOM     24  C   UNL     1       1.183   1.591  -0.003  0.00  0.00    +0.387 C 
ATOM     25  O   UNL     1       0.844   1.001  -1.010  0.00  0.00    -0.241 OA
ATOM     26  O   UNL     1       1.506   0.898   1.106  0.00  0.00    -0.241 OA
ENDBRANCH  21  24
ENDBRANCH  14  18
BRANCH   1  27
ATOM     27  S   UNL     1       2.986  12.333   2.735  0.00  0.00    -0.084 S 
BRANCH  27  28
ATOM     28  C   UNL     1       2.035  13.872   2.805  0.00  0.00    +0.077 C 
BRANCH  28  29
ATOM     29  C   UNL     1       2.941  15.010   3.278  0.00  0.00    +0.011 C 
BRANCH  29  31
ATOM     30  C   UNL     1       3.044  17.449   3.810  0.00  0.00    +0.004 C 
ATOM     31  C   UNL     1       2.138  16.311   3.337  0.00  0.00    -0.003 C 
ENDBRANCH  29  31
ENDBRANCH  28  29
ENDBRANCH  27  28
ENDBRANCH   1  27
TORSDOF 6
