REMARK  Name = ZINC38611564
REMARK  8 active torsions:
REMARK  status: ('A' for Active; 'I' for Inactive)
REMARK    1  A    between atoms: C_1  and  C_2
REMARK    2  A    between atoms: C_4  and  C_16
REMARK    3  A    between atoms: C_6  and  C_14
REMARK    4  A    between atoms: C_7  and  N_13
REMARK    5  A    between atoms: C_18  and  N_31
REMARK    6  A    between atoms: C_21  and  O_22
REMARK    7  A    between atoms: O_22  and  C_23
REMARK    8  A    between atoms: C_23  and  C_24
REMARK                            x       y       z     vdW  Elec       q    Type
REMARK                         _______ _______ _______ _____ _____    ______ ____
ROOT
ATOM      1  C   UNL     1      -3.201  -0.585   1.227  0.00  0.00    +0.009 A 
ATOM      2  C   UNL     1      -3.149  -1.765   1.943  0.00  0.00    +0.041 A 
ATOM      3  C   UNL     1      -3.758  -1.851   3.181  0.00  0.00    +0.127 A 
ATOM      4  C   UNL     1      -4.420  -0.756   3.706  0.00  0.00    +0.036 A 
ATOM      5  C   UNL     1      -4.475   0.426   2.994  0.00  0.00    +0.048 A 
ATOM      6  C   UNL     1      -3.860   0.516   1.754  0.00  0.00    +0.125 A 
ENDROOT
BRANCH   1  10
ATOM      7  C   UNL     1      -0.018   1.503   0.010  0.00  0.00    +0.067 C 
ATOM      8  C   UNL     1       0.002  -0.004   0.002  0.00  0.00    +0.066 C 
ATOM      9  C   UNL     1      -1.064  -0.768   0.003  0.00  0.00    +0.030 C 
ATOM     10  C   UNL     1      -2.537  -0.492  -0.122  0.00  0.00    +0.101 C 
ATOM     11  C   UNL     1      -3.075  -1.565  -1.050  0.00  0.00    +0.098 C 
ATOM     12  C   UNL     1      -2.317  -2.612  -1.438  0.00  0.00    +0.195 C 
ATOM     13  O   UNL     1      -1.033  -2.841  -1.107  0.00  0.00    -0.448 OA
ATOM     14  C   UNL     1      -0.528  -2.199   0.066  0.00  0.00    +0.343 C 
ATOM     15  N   UNL     1       0.921  -1.985   0.002  0.00  0.00    -0.138 NA
ATOM     16  N   UNL     1       1.127  -0.765  -0.013  0.00  0.00    -0.155 NA
BRANCH  12  17
ATOM     17  N   UNL     1      -2.917  -3.538  -2.254  0.00  0.00    -0.329 N 
ATOM     18  H   UNL     1      -3.842  -3.421  -2.523  0.00  0.00    +0.145 HD
ATOM     19  H   UNL     1      -2.417  -4.310  -2.562  0.00  0.00    +0.145 HD
ENDBRANCH  12  17
BRANCH  11  20
ATOM     20  C   UNL     1      -4.422  -1.466  -1.525  0.00  0.00    +0.101 C 
ATOM     21  N   UNL     1      -5.491  -1.387  -1.903  0.00  0.00    -0.191 NA
ENDBRANCH  11  20
ENDBRANCH   1  10
BRANCH   3  22
ATOM     22  N   UNL     1      -3.702  -3.117   3.946  0.00  0.00    +0.056 N 
ATOM     23  O   UNL     1      -3.124  -4.075   3.488  0.00  0.00    -0.126 OA
ATOM     24  O   UNL     1      -4.234  -3.193   5.029  0.00  0.00    -0.126 OA
ENDBRANCH   3  22
BRANCH   6  25
ATOM     25  O   UNL     1      -3.908   1.680   1.054  0.00  0.00    -0.487 OA
BRANCH  25  26
ATOM     26  C   UNL     1      -4.603   2.773   1.658  0.00  0.00    +0.264 C 
BRANCH  26  27
ATOM     27  C   UNL     1      -4.551   3.969   0.743  0.00  0.00    -0.010 A 
ATOM     28  C   UNL     1      -3.509   4.871   0.843  0.00  0.00    +0.008 A 
ATOM     29  C   UNL     1      -3.461   5.968   0.004  0.00  0.00    +0.015 A 
ATOM     30  C   UNL     1      -4.456   6.163  -0.937  0.00  0.00    +0.018 A 
ATOM     31  C   UNL     1      -5.499   5.260  -1.037  0.00  0.00    +0.015 A 
ATOM     32  C   UNL     1      -5.543   4.160  -0.201  0.00  0.00    +0.008 A 
ATOM     33 BR   UNL     1      -4.391   7.664  -2.085  0.00  0.00    -0.050 Br
ENDBRANCH  26  27
ENDBRANCH  25  26
ENDBRANCH   6  25
TORSDOF 7
