REMARK  Name = ZINC10799180
REMARK  7 active torsions:
REMARK  status: ('A' for Active; 'I' for Inactive)
REMARK    1  A    between atoms: C_1  and  C_2
REMARK    2  A    between atoms: C_3  and  C_33
REMARK    3  A    between atoms: C_11  and  C_13
REMARK    4  A    between atoms: C_13  and  C_15
REMARK    5  A    between atoms: C_13  and  O_16
REMARK    6  A    between atoms: O_16  and  C_17
REMARK    7  A    between atoms: C_17  and  C_19
REMARK                            x       y       z     vdW  Elec       q    Type
REMARK                         _______ _______ _______ _____ _____    ______ ____
ROOT
ATOM      1  O   UNL     1      -2.710   0.265  -1.305  0.00  0.00    -0.453 OA
ENDROOT
BRANCH   1   2
ATOM      2  C   UNL     1      -2.481   0.815   0.019  0.00  0.00    +0.239 C 
ATOM      3  C   UNL     1      -3.651   1.724   0.403  0.00  0.00    +0.060 C 
BRANCH   2  14
ATOM      4  C   UNL     1       3.651   3.525  -0.014  0.00  0.00    +0.045 C 
ATOM      5  C   UNL     1       2.227   4.017   0.001  0.00  0.00    -0.026 A 
ATOM      6  C   UNL     1       1.964   5.333   0.010  0.00  0.00    -0.008 A 
ATOM      7  S   UNL     1       0.182   5.398   0.027  0.00  0.00    -0.073 S 
ATOM      8  C   UNL     1      -0.156   3.656   0.022  0.00  0.00    +0.116 A 
ATOM      9  C   UNL     1       1.124   3.074   0.007  0.00  0.00    +0.075 A 
ATOM     10  C   UNL     1       1.153   1.641  -0.000  0.00  0.00    +0.260 A 
ATOM     11  O   UNL     1       2.216   1.043  -0.013  0.00  0.00    -0.267 OA
ATOM     12  N   UNL     1      -0.011   0.966   0.007  0.00  0.00    -0.307 N 
ATOM     13  H   UNL     1       0.002  -0.004   0.002  0.00  0.00    +0.170 HD
ATOM     14  C   UNL     1      -1.204   1.615   0.017  0.00  0.00    +0.152 A 
ATOM     15  N   UNL     1      -1.263   2.920   0.029  0.00  0.00    -0.223 NA
ATOM     16  C   UNL     1       2.940   6.481   0.007  0.00  0.00    +0.052 C 
ENDBRANCH   2  14
ENDBRANCH   1   2
BRANCH   1  17
ATOM     17  C   UNL     1      -3.373  -0.900  -1.375  0.00  0.00    +0.320 C 
ATOM     18  O   UNL     1      -3.749  -1.442  -0.362  0.00  0.00    -0.250 OA
BRANCH  17  19
ATOM     19  C   UNL     1      -3.647  -1.532  -2.715  0.00  0.00    +0.165 C 
ATOM     20  C   UNL     1      -4.463  -0.585  -3.552  0.00  0.00    +0.013 A 
ATOM     21  C   UNL     1      -3.840   0.488  -4.164  0.00  0.00    +0.008 A 
ATOM     22  C   UNL     1      -4.572   1.370  -4.936  0.00  0.00    +0.001 A 
ATOM     23  C   UNL     1      -5.932   1.182  -5.100  0.00  0.00    +0.004 A 
ATOM     24  C   UNL     1      -6.557   0.113  -4.495  0.00  0.00    +0.046 A 
ATOM     25  C   UNL     1      -5.824  -0.776  -3.717  0.00  0.00    +0.133 A 
ATOM     26  O   UNL     1      -6.458  -1.820  -3.131  0.00  0.00    -0.455 OA
ATOM     27  C   UNL     1      -5.753  -2.905  -2.729  0.00  0.00    +0.133 A 
ATOM     28  C   UNL     1      -4.387  -2.826  -2.511  0.00  0.00    +0.013 A 
ATOM     29  C   UNL     1      -3.690  -3.949  -2.100  0.00  0.00    +0.008 A 
ATOM     30  C   UNL     1      -4.351  -5.147  -1.907  0.00  0.00    +0.001 A 
ATOM     31  C   UNL     1      -5.713  -5.228  -2.126  0.00  0.00    +0.004 A 
ATOM     32  C   UNL     1      -6.414  -4.112  -2.536  0.00  0.00    +0.046 A 
ENDBRANCH  17  19
ENDBRANCH   1  17
TORSDOF 4
