REMARK  Name = ZINC38660524
REMARK  15 active torsions:
REMARK  status: ('A' for Active; 'I' for Inactive)
REMARK    1  A    between atoms: C_1  and  O_2
REMARK    2  A    between atoms: O_2  and  C_3
REMARK    3  A    between atoms: C_6  and  C_9
REMARK    4  A    between atoms: C_10  and  C_11
REMARK    5  A    between atoms: C_11  and  O_13
REMARK    6  A    between atoms: O_13  and  C_14
REMARK    7  A    between atoms: C_21  and  N_39
REMARK    8  A    between atoms: C_22  and  C_37
REMARK    9  A    between atoms: C_23  and  C_25
REMARK   10  A    between atoms: C_27  and  O_35
REMARK   11  A    between atoms: C_28  and  O_33
REMARK   12  A    between atoms: C_29  and  O_31
REMARK   13  A    between atoms: O_31  and  C_32
REMARK   14  A    between atoms: O_33  and  C_34
REMARK   15  A    between atoms: O_35  and  C_36
REMARK                            x       y       z     vdW  Elec       q    Type
REMARK                         _______ _______ _______ _____ _____    ______ ____
ROOT
ATOM      1  C   UNL     1       3.982  -6.530   6.470  0.00  0.00    +0.135 A 
ATOM      2  C   UNL     1       4.538  -5.821   7.526  0.00  0.00    +0.047 A 
ATOM      3  C   UNL     1       5.189  -6.492   8.541  0.00  0.00    +0.012 A 
ATOM      4  C   UNL     1       5.292  -7.872   8.512  0.00  0.00    +0.008 A 
ATOM      5  C   UNL     1       4.738  -8.585   7.460  0.00  0.00    +0.138 A 
ATOM      6  C   UNL     1       4.078  -7.912   6.440  0.00  0.00    +0.093 A 
ATOM      7  O   UNL     1       4.828  -9.938   7.414  0.00  0.00    -0.441 OA
ATOM      8  C   UNL     1       5.756 -10.573   8.149  0.00  0.00    +0.199 C 
ATOM      9  C   UNL     1       6.354  -9.986   9.213  0.00  0.00    +0.098 C 
ATOM     10  C   UNL     1       6.005  -8.585   9.630  0.00  0.00    +0.098 C 
ENDROOT
BRANCH  10  11
ATOM     11  C   UNL     1       5.112  -8.632  10.843  0.00  0.00    -0.028 A 
ATOM     12  C   UNL     1       3.887  -9.268  10.772  0.00  0.00    +0.054 A 
ATOM     13  C   UNL     1       3.062  -9.313  11.886  0.00  0.00    +0.165 A 
ATOM     14  C   UNL     1       3.469  -8.718  13.074  0.00  0.00    +0.204 A 
ATOM     15  C   UNL     1       4.702  -8.081  13.141  0.00  0.00    +0.165 A 
ATOM     16  C   UNL     1       5.523  -8.044  12.024  0.00  0.00    +0.054 A 
BRANCH  15  17
ATOM     17  O   UNL     1       5.105  -7.497  14.302  0.00  0.00    -0.491 OA
ATOM     18  C   UNL     1       6.384  -6.860  14.298  0.00  0.00    +0.277 C 
ENDBRANCH  15  17
BRANCH  14  19
ATOM     19  O   UNL     1       2.662  -8.760  14.169  0.00  0.00    -0.488 OA
ATOM     20  C   UNL     1       2.823  -9.873  15.051  0.00  0.00    +0.277 C 
ENDBRANCH  14  19
BRANCH  13  21
ATOM     21  O   UNL     1       1.856  -9.938  11.815  0.00  0.00    -0.491 OA
ATOM     22  C   UNL     1       1.503 -10.526  10.562  0.00  0.00    +0.277 C 
ENDBRANCH  13  21
ENDBRANCH  10  11
BRANCH   8  23
ATOM     23  N   UNL     1       6.109 -11.856   7.811  0.00  0.00    -0.328 N 
ATOM     24  H   UNL     1       5.689 -12.290   7.052  0.00  0.00    +0.145 HD
ATOM     25  H   UNL     1       6.777 -12.328   8.331  0.00  0.00    +0.145 HD
ENDBRANCH   8  23
BRANCH   9  26
ATOM     26  C   UNL     1       7.337 -10.715   9.956  0.00  0.00    +0.101 C 
ATOM     27  N   UNL     1       8.117 -11.294  10.545  0.00  0.00    -0.191 NA
ENDBRANCH   9  26
BRANCH   1  28
ATOM     28  O   UNL     1       3.341  -5.871   5.469  0.00  0.00    -0.423 OA
BRANCH  28  29
ATOM     29  C   UNL     1       4.092  -5.247   4.538  0.00  0.00    +0.337 C 
ATOM     30  O   UNL     1       5.302  -5.209   4.659  0.00  0.00    -0.245 OA
BRANCH  29  32
ATOM     31  C   UNL     1       4.224  -4.011   2.488  0.00  0.00    +0.015 C 
ATOM     32  C   UNL     1       3.472  -4.636   3.420  0.00  0.00    +0.092 C 
BRANCH  31  36
ATOM     33  C   UNL     1       2.367  -2.184  -0.859  0.00  0.00    +0.120 A 
ATOM     34  C   UNL     1       3.750  -2.138  -0.723  0.00  0.00    +0.046 A 
ATOM     35  C   UNL     1       4.358  -2.729   0.361  0.00  0.00    +0.011 A 
ATOM     36  C   UNL     1       3.580  -3.377   1.328  0.00  0.00    -0.025 A 
ATOM     37  C   UNL     1       2.188  -3.421   1.187  0.00  0.00    +0.011 A 
ATOM     38  C   UNL     1       1.590  -2.821   0.102  0.00  0.00    +0.046 A 
BRANCH  33  40
ATOM     39  C   UNL     1       2.630  -0.961  -2.879  0.00  0.00    +0.277 C 
ATOM     40  O   UNL     1       1.773  -1.599  -1.930  0.00  0.00    -0.495 OA
ENDBRANCH  33  40
ENDBRANCH  31  36
ENDBRANCH  29  32
ENDBRANCH  28  29
ENDBRANCH   1  28
TORSDOF 11
