REMARK  Name = ZINC04172096
REMARK  6 active torsions:
REMARK  status: ('A' for Active; 'I' for Inactive)
REMARK    1  A    between atoms: C_1  and  O_2
REMARK    2  A    between atoms: O_2  and  C_3
REMARK    3  A    between atoms: C_6  and  C_12
REMARK    4  A    between atoms: C_8  and  N_9
REMARK    5  A    between atoms: C_25  and  O_28
REMARK    6  A    between atoms: O_28  and  C_29
REMARK                            x       y       z     vdW  Elec       q    Type
REMARK                         _______ _______ _______ _____ _____    ______ ____
ROOT
ATOM      1  C   UNL     1      -0.791   1.673  -1.171  0.00  0.00    +0.105 C 
ATOM      2  C   UNL     1       0.252   1.077  -0.223  0.00  0.00    +0.029 C 
ATOM      3  C   UNL     1       1.626   1.718  -0.567  0.00  0.00    +0.033 C 
ATOM      4  C   UNL     1       1.602   3.035   0.183  0.00  0.00    -0.030 C 
ATOM      5  C   UNL     1       0.731   2.991   1.160  0.00  0.00    -0.023 C 
ATOM      6  C   UNL     1       0.045   1.645   1.198  0.00  0.00    +0.050 C 
ATOM      7  C   UNL     1      -1.411   1.802   1.522  0.00  0.00    +0.002 A 
ATOM      8  C   UNL     1      -1.756   2.148   2.825  0.00  0.00    +0.047 A 
ATOM      9  C   UNL     1      -3.078   2.310   3.185  0.00  0.00    +0.024 A 
ATOM     10  C   UNL     1      -4.079   2.131   2.247  0.00  0.00    +0.049 A 
ATOM     11  C   UNL     1      -3.748   1.786   0.949  0.00  0.00    +0.141 A 
ATOM     12  C   UNL     1      -2.409   1.618   0.583  0.00  0.00    +0.075 A 
ATOM     13  N   UNL     1      -2.130   1.261  -0.739  0.00  0.00    -0.334 N 
ATOM     14 CL   UNL     1      -0.509   2.377   4.010  0.00  0.00    -0.083 Cl
ATOM     15  H   UNL     1      -2.837   1.615  -1.366  0.00  0.00    +0.147 HD
ENDROOT
BRANCH   1  19
ATOM     16  C   UNL     1      -0.555   5.938  -1.053  0.00  0.00    +0.150 A 
ATOM     17  C   UNL     1      -1.524   5.275  -0.315  0.00  0.00    +0.048 A 
ATOM     18  C   UNL     1      -1.599   3.897  -0.354  0.00  0.00    +0.009 A 
ATOM     19  C   UNL     1      -0.708   3.177  -1.130  0.00  0.00    -0.025 A 
ATOM     20  C   UNL     1       0.262   3.835  -1.862  0.00  0.00    +0.042 A 
ATOM     21  C   UNL     1       0.337   5.214  -1.830  0.00  0.00    +0.168 A 
BRANCH  21  22
ATOM     22  N   UNL     1       1.373   5.918  -2.620  0.00  0.00    +0.060 N 
ATOM     23  O   UNL     1       2.156   5.282  -3.302  0.00  0.00    -0.126 OA
ATOM     24  O   UNL     1       1.441   7.134  -2.587  0.00  0.00    -0.126 OA
ENDBRANCH  21  22
BRANCH  16  26
ATOM     25  C   UNL     1      -1.430   7.974  -0.194  0.00  0.00    +0.277 C 
ATOM     26  O   UNL     1      -0.479   7.295  -1.016  0.00  0.00    -0.493 OA
ENDBRANCH  16  26
ENDBRANCH   1  19
BRANCH  11  27
ATOM     27  O   UNL     1      -4.730   1.609   0.025  0.00  0.00    -0.493 OA
ATOM     28  C   UNL     1      -6.077   1.796   0.465  0.00  0.00    +0.277 C 
ENDBRANCH  11  27
TORSDOF 4
