REMARK  Name = ZINC63362928
REMARK  6 active torsions:
REMARK  status: ('A' for Active; 'I' for Inactive)
REMARK    1  A    between atoms: C_1  and  C_2
REMARK    2  A    between atoms: C_13  and  C_33
REMARK    3  A    between atoms: N_20  and  C_23
REMARK    4  A    between atoms: C_23  and  C_24
REMARK    5  A    between atoms: C_24  and  C_26
REMARK    6  A    between atoms: C_24  and  O_32
REMARK                            x       y       z     vdW  Elec       q    Type
REMARK                         _______ _______ _______ _____ _____    ______ ____
ROOT
ATOM      1  C   UNL     1      -0.033   1.519  -0.094  0.00  0.00    +0.044 C 
ATOM      2  C   UNL     1      -0.004   0.002  -0.294  0.00  0.00    +0.135 C 
ATOM      3  C   UNL     1       0.716  -0.213  -1.588  0.00  0.00    +0.139 C 
ATOM      4  C   UNL     1       1.770  -1.293  -1.411  0.00  0.00    -0.027 C 
ATOM      5  C   UNL     1       1.593  -2.159  -2.399  0.00  0.00    -0.000 A 
ATOM      6  C   UNL     1       2.347  -3.356  -2.803  0.00  0.00    +0.010 A 
ATOM      7  C   UNL     1       1.869  -4.030  -3.883  0.00  0.00    +0.001 A 
ATOM      8  C   UNL     1       0.729  -3.638  -4.592  0.00  0.00    +0.002 A 
ATOM      9  C   UNL     1      -0.022  -2.548  -4.293  0.00  0.00    +0.026 A 
ATOM     10  C   UNL     1       0.384  -1.755  -3.181  0.00  0.00    +0.043 A 
ATOM     11  N   UNL     1      -0.129  -0.683  -2.686  0.00  0.00    -0.375 N 
ATOM     12  C   UNL     1       2.705  -1.279  -0.227  0.00  0.00    +0.066 C 
ATOM     13  C   UNL     1       1.816  -1.332   1.018  0.00  0.00    +0.121 C 
ATOM     14  N   UNL     1       0.614  -0.526   0.909  0.00  0.00    -0.283 N 
ATOM     15  C   UNL     1      -0.066  -0.260   2.073  0.00  0.00    +0.234 C 
ATOM     16  O   UNL     1       0.393  -0.551   3.158  0.00  0.00    -0.274 OA
ATOM     17  C   UNL     1      -1.414   0.415   1.937  0.00  0.00    +0.203 C 
ATOM     18  N   UNL     1      -2.148  -0.218   0.825  0.00  0.00    -0.288 N 
ATOM     19  C   UNL     1      -1.452  -0.412  -0.336  0.00  0.00    +0.242 C 
ATOM     20  O   UNL     1      -1.964  -0.883  -1.329  0.00  0.00    -0.273 OA
ATOM     21  H   UNL     1      -0.942  -0.259  -2.999  0.00  0.00    +0.160 HD
ENDROOT
BRANCH  12  22
ATOM     22  C   UNL     1       3.612  -2.481  -0.270  0.00  0.00    -0.020 A 
ATOM     23  C   UNL     1       3.090  -3.749  -0.096  0.00  0.00    +0.006 A 
ATOM     24  C   UNL     1       3.922  -4.852  -0.135  0.00  0.00    +0.000 A 
ATOM     25  C   UNL     1       5.278  -4.688  -0.349  0.00  0.00    +0.001 A 
ATOM     26  C   UNL     1       5.802  -3.421  -0.524  0.00  0.00    +0.020 A 
ATOM     27  C   UNL     1       4.968  -2.317  -0.490  0.00  0.00    +0.045 A 
ATOM     28 CL   UNL     1       5.625  -0.726  -0.716  0.00  0.00    -0.083 Cl
ENDBRANCH  12  22
BRANCH  18  29
ATOM     29  C   UNL     1      -3.551  -0.618   0.957  0.00  0.00    +0.144 C 
BRANCH  29  30
ATOM     30  C   UNL     1      -4.455   0.544   0.537  0.00  0.00    +0.162 C 
BRANCH  30  31
ATOM     31  C   UNL     1      -5.898   0.132   0.674  0.00  0.00    -0.018 A 
ATOM     32  C   UNL     1      -6.540   0.255   1.892  0.00  0.00    +0.006 A 
ATOM     33  C   UNL     1      -7.863  -0.123   2.017  0.00  0.00    +0.000 A 
ATOM     34  C   UNL     1      -8.546  -0.623   0.924  0.00  0.00    +0.000 A 
ATOM     35  C   UNL     1      -7.905  -0.744  -0.295  0.00  0.00    +0.000 A 
ATOM     36  C   UNL     1      -6.582  -0.363  -0.421  0.00  0.00    +0.006 A 
ENDBRANCH  30  31
BRANCH  30  37
ATOM     37  O   UNL     1      -4.200   1.673   1.376  0.00  0.00    -0.386 OA
ATOM     38  H   UNL     1      -4.363   1.510   2.315  0.00  0.00    +0.210 HD
ENDBRANCH  30  37
ENDBRANCH  29  30
ENDBRANCH  18  29
TORSDOF 5
