REMARK  Name = ZINC22240137
REMARK  5 active torsions:
REMARK  status: ('A' for Active; 'I' for Inactive)
REMARK    1  A    between atoms: C_11  and  C_30
REMARK    2  A    between atoms: C_14  and  C_16
REMARK    3  A    between atoms: C_16  and  S_17
REMARK    4  A    between atoms: S_17  and  C_18
REMARK    5  A    between atoms: C_21  and  C_23
REMARK                            x       y       z     vdW  Elec       q    Type
REMARK                         _______ _______ _______ _____ _____    ______ ____
ROOT
ATOM      1  C   UNL     1      -0.013   1.076   0.008  0.00  0.00    +0.002 A 
ATOM      2  C   UNL     1       1.177   1.781   0.000  0.00  0.00    +0.002 A 
ATOM      3  C   UNL     1       1.168   3.164  -0.002  0.00  0.00    +0.025 A 
ATOM      4  C   UNL     1      -0.038   3.845   0.010  0.00  0.00    +0.058 A 
ATOM      5  C   UNL     1      -1.238   3.133   0.034  0.00  0.00    +0.055 A 
ATOM      6  C   UNL     1      -1.221   1.748   0.017  0.00  0.00    +0.025 A 
ATOM      7  N   UNL     1      -2.447   3.836   0.088  0.00  0.00    -0.284 N 
ATOM      8  C   UNL     1      -2.686   4.856  -0.765  0.00  0.00    +0.219 C 
ATOM      9  O   UNL     1      -3.702   5.509  -0.654  0.00  0.00    -0.275 OA
ATOM     10  C   UNL     1      -1.699   5.187  -1.853  0.00  0.00    +0.128 C 
ATOM     11  C   UNL     1      -0.487   5.909  -1.262  0.00  0.00    +0.194 C 
ATOM     12  N   UNL     1      -0.067   5.246  -0.026  0.00  0.00    -0.257 N 
ATOM     13  C   UNL     1       0.284   5.968   1.056  0.00  0.00    +0.231 C 
ATOM     14  O   UNL     1       0.254   7.180   1.012  0.00  0.00    -0.274 OA
ATOM     15  H   UNL     1      -3.212   3.559   0.829  0.00  0.00    +0.155 HD
ENDROOT
BRANCH  11  16
ATOM     16  C   UNL     1       0.664   5.880  -2.270  0.00  0.00    +0.409 C 
ATOM     17  F   UNL     1       1.009   4.553  -2.546  0.00  0.00    -0.169 F 
ATOM     18  F   UNL     1       0.264   6.514  -3.452  0.00  0.00    -0.169 F 
ATOM     19  F   UNL     1       1.770   6.548  -1.734  0.00  0.00    -0.169 F 
ENDBRANCH  11  16
BRANCH  13  20
ATOM     20  C   UNL     1       0.713   5.270   2.321  0.00  0.00    +0.175 C 
BRANCH  20  21
ATOM     21  S   UNL     1       1.117   6.503   3.583  0.00  0.00    -0.056 S 
BRANCH  21  22
ATOM     22  C   UNL     1       1.573   5.442   4.913  0.00  0.00    +0.278 A 
ATOM     23  N   UNL     1       1.576   4.129   4.894  0.00  0.00    -0.101 NA
ATOM     24  N   UNL     1       1.966   3.685   6.036  0.00  0.00    -0.106 NA
ATOM     25  C   UNL     1       2.219   4.694   6.833  0.00  0.00    +0.249 A 
ATOM     26  O   UNL     1       1.975   5.828   6.139  0.00  0.00    -0.411 OA
BRANCH  25  27
ATOM     27  C   UNL     1       2.685   4.608   8.232  0.00  0.00    +0.039 A 
ATOM     28  C   UNL     1       2.921   5.773   8.965  0.00  0.00    +0.016 A 
ATOM     29  C   UNL     1       3.351   5.687  10.273  0.00  0.00    +0.039 A 
ATOM     30  C   UNL     1       3.560   4.447  10.856  0.00  0.00    +0.123 A 
ATOM     31  C   UNL     1       3.333   3.288  10.132  0.00  0.00    +0.039 A 
ATOM     32  C   UNL     1       2.897   3.362   8.825  0.00  0.00    +0.016 A 
ATOM     33  F   UNL     1       3.986   4.369  12.136  0.00  0.00    -0.205 F 
ENDBRANCH  25  27
ENDBRANCH  21  22
ENDBRANCH  20  21
ENDBRANCH  13  20
TORSDOF 5
