REMARK  Name = ZINC13739591
REMARK  12 active torsions:
REMARK  status: ('A' for Active; 'I' for Inactive)
REMARK    1  A    between atoms: C_1  and  C_2
REMARK    2  A    between atoms: C_2  and  O_3
REMARK    3  A    between atoms: O_3  and  C_4
REMARK    4  A    between atoms: C_4  and  C_6
REMARK    5  A    between atoms: C_12  and  C_13
REMARK    6  A    between atoms: C_16  and  S_19
REMARK    7  A    between atoms: S_19  and  C_20
REMARK    8  A    between atoms: C_22  and  N_36
REMARK    9  A    between atoms: C_23  and  C_34
REMARK   10  A    between atoms: C_24  and  C_26
REMARK   11  A    between atoms: C_29  and  S_32
REMARK   12  A    between atoms: S_32  and  C_33
REMARK                            x       y       z     vdW  Elec       q    Type
REMARK                         _______ _______ _______ _____ _____    ______ ____
ROOT
ATOM      1  C   UNL     1       3.175   9.244  -0.402  0.00  0.00    +0.080 C 
ATOM      2  C   UNL     1       2.788   7.951  -0.164  0.00  0.00    +0.100 A 
ATOM      3  N   UNL     1       1.474   7.540  -0.069  0.00  0.00    -0.257 N 
ATOM      4  C   UNL     1       1.244   6.234   0.169  0.00  0.00    +0.271 A 
ATOM      5  O   UNL     1       0.107   5.809   0.263  0.00  0.00    -0.266 OA
ATOM      6  C   UNL     1       2.393   5.336   0.312  0.00  0.00    +0.079 A 
ATOM      7  C   UNL     1       2.419   3.998   0.553  0.00  0.00    +0.028 C 
ATOM      8  S   UNL     1       3.751   6.474   0.093  0.00  0.00    -0.065 S 
ATOM      9  C   UNL     1       0.453   8.485  -0.223  0.00  0.00    +0.118 C 
ATOM     10  C   UNL     1       0.670   9.796  -0.463  0.00  0.00    +0.079 C 
ATOM     11  C   UNL     1       2.096  10.294  -0.575  0.00  0.00    +0.102 C 
ENDROOT
BRANCH   7  12
ATOM     12  C   UNL     1       1.173   3.224   0.527  0.00  0.00    -0.024 A 
ATOM     13  C   UNL     1       0.177   3.526  -0.412  0.00  0.00    +0.009 A 
ATOM     14  C   UNL     1      -0.982   2.803  -0.432  0.00  0.00    +0.015 A 
ATOM     15  C   UNL     1      -1.177   1.771   0.484  0.00  0.00    +0.008 A 
ATOM     16  C   UNL     1      -0.188   1.464   1.416  0.00  0.00    +0.015 A 
ATOM     17  C   UNL     1       0.974   2.182   1.443  0.00  0.00    +0.009 A 
BRANCH  15  18
ATOM     18  S   UNL     1      -2.677   0.846   0.458  0.00  0.00    -0.129 S 
ATOM     19  C   UNL     1      -2.474  -0.357   1.800  0.00  0.00    +0.090 C 
ENDBRANCH  15  18
ENDBRANCH   7  12
BRANCH  11  20
ATOM     20  C   UNL     1       2.270  10.925  -1.932  0.00  0.00    -0.034 A 
ATOM     21  C   UNL     1       2.074  10.170  -3.074  0.00  0.00    +0.005 A 
ATOM     22  C   UNL     1       2.227  10.746  -4.320  0.00  0.00    +0.015 A 
ATOM     23  C   UNL     1       2.590  12.084  -4.425  0.00  0.00    +0.008 A 
ATOM     24  C   UNL     1       2.791  12.838  -3.275  0.00  0.00    +0.015 A 
ATOM     25  C   UNL     1       2.631  12.257  -2.033  0.00  0.00    +0.005 A 
BRANCH  23  26
ATOM     26  S   UNL     1       2.794  12.821  -6.012  0.00  0.00    -0.129 S 
ATOM     27  C   UNL     1       2.432  11.473  -7.172  0.00  0.00    +0.090 C 
ENDBRANCH  23  26
ENDBRANCH  11  20
BRANCH   9  28
ATOM     28  N   UNL     1      -0.847   8.052  -0.124  0.00  0.00    -0.343 N 
ATOM     29  H   UNL     1      -1.062   7.282   0.425  0.00  0.00    +0.144 HD
ATOM     30  H   UNL     1      -1.551   8.516  -0.605  0.00  0.00    +0.144 HD
ENDBRANCH   9  28
BRANCH   1  31
ATOM     31  C   UNL     1       4.532   9.585  -0.485  0.00  0.00    +0.339 C 
ATOM     32  O   UNL     1       5.385   8.727  -0.344  0.00  0.00    -0.245 OA
BRANCH  31  33
ATOM     33  O   UNL     1       4.893  10.865  -0.720  0.00  0.00    -0.462 OA
BRANCH  33  35
ATOM     34  C   UNL     1       6.506  12.632  -1.063  0.00  0.00    +0.048 C 
ATOM     35  C   UNL     1       6.293  11.142  -0.791  0.00  0.00    +0.229 C 
ENDBRANCH  33  35
ENDBRANCH  31  33
ENDBRANCH   1  31
BRANCH  10  36
ATOM     36  C   UNL     1      -0.431  10.701  -0.608  0.00  0.00    +0.099 C 
ATOM     37  N   UNL     1      -1.304  11.418  -0.723  0.00  0.00    -0.191 NA
ENDBRANCH  10  36
TORSDOF 9
