REMARK  Name = ZINC03141641
REMARK  10 active torsions:
REMARK  status: ('A' for Active; 'I' for Inactive)
REMARK    1  A    between atoms: C_1  and  C_2
REMARK    2  A    between atoms: C_2  and  C_3
REMARK    3  A    between atoms: C_2  and  C_4
REMARK    4  A    between atoms: C_4  and  O_24
REMARK    5  A    between atoms: C_6  and  C_19
REMARK    6  A    between atoms: N_7  and  O_18
REMARK    7  A    between atoms: C_19  and  C_20
REMARK    8  A    between atoms: C_19  and  C_21
REMARK    9  A    between atoms: C_19  and  O_22
REMARK   10  A    between atoms: O_22  and  C_23
REMARK                            x       y       z     vdW  Elec       q    Type
REMARK                         _______ _______ _______ _____ _____    ______ ____
ROOT
ATOM      1  C   UNL     1      -4.045   0.117   3.750  0.00  0.00    +0.192 C 
ATOM      2  C   UNL     1      -4.091   1.318   2.772  0.00  0.00    +0.112 C 
ATOM      3  C   UNL     1      -2.596   1.669   2.600  0.00  0.00    +0.155 C 
ATOM      4  N   UNL     1      -2.443   3.142   2.664  0.00  0.00    -0.161 NA
ATOM      5  C   UNL     1      -2.188   3.394   4.115  0.00  0.00    +0.106 C 
ATOM      6  C   UNL     1      -1.554   4.741   4.368  0.00  0.00    +0.023 C 
ATOM      7  C   UNL     1      -0.170   4.837   3.727  0.00  0.00    +0.002 C 
ATOM      8  C   UNL     1       0.710   3.730   4.317  0.00  0.00    +0.002 C 
ATOM      9  C   UNL     1       0.117   2.378   3.930  0.00  0.00    +0.023 C 
ATOM     10  C   UNL     1      -1.288   2.211   4.515  0.00  0.00    +0.106 C 
ATOM     11  N   UNL     1      -1.919   1.077   3.780  0.00  0.00    -0.155 NA
ATOM     12  O   UNL     1      -2.952   0.465   4.629  0.00  0.00    -0.260 OA
ENDROOT
BRANCH   1  14
ATOM     13  C   UNL     1      -5.278  -1.191   5.485  0.00  0.00    +0.012 C 
ATOM     14  C   UNL     1      -5.356   0.002   4.531  0.00  0.00    +0.044 C 
ATOM     15  C   UNL     1      -5.583   1.284   5.335  0.00  0.00    +0.012 C 
ENDBRANCH   1  14
BRANCH   3  16
ATOM     16  C   UNL     1      -2.037   1.106   1.292  0.00  0.00    +0.099 C 
ATOM     17  C   UNL     1      -2.771   1.740   0.108  0.00  0.00    +0.045 C 
ATOM     18  C   UNL     1      -2.236  -0.411   1.263  0.00  0.00    +0.045 C 
BRANCH  16  19
ATOM     19  O   UNL     1      -0.642   1.405   1.203  0.00  0.00    -0.374 OA
ATOM     20  C   UNL     1      -0.019   0.920   0.012  0.00  0.00    +0.194 C 
ENDBRANCH  16  19
ENDBRANCH   3  16
BRANCH   4  21
ATOM     21  O   UNL     1      -3.665   3.816   2.223  0.00  0.00    -0.310 OA
ATOM     22  H   UNL     1      -3.612   4.781   2.247  0.00  0.00    +0.237 HD
ENDBRANCH   4  21
BRANCH   1  23
ATOM     23  O   UNL     1      -3.764  -1.097   3.048  0.00  0.00    -0.363 OA
ATOM     24  H   UNL     1      -3.725  -1.879   3.616  0.00  0.00    +0.213 HD
ENDBRANCH   1  23
TORSDOF 5
