REMARK  Name = ZINC12431132
REMARK  11 active torsions:
REMARK  status: ('A' for Active; 'I' for Inactive)
REMARK    1  A    between atoms: C_1  and  C_2
REMARK    2  A    between atoms: C_2  and  C_3
REMARK    3  A    between atoms: C_3  and  C_4
REMARK    4  A    between atoms: C_6  and  C_10
REMARK    5  A    between atoms: C_10  and  N_56
REMARK    6  A    between atoms: C_11  and  N_56
REMARK    7  A    between atoms: C_12  and  C_13
REMARK    8  A    between atoms: C_12  and  N_56
REMARK    9  A    between atoms: C_18  and  C_19
REMARK   10  A    between atoms: C_24  and  O_29
REMARK   11  A    between atoms: O_29  and  C_30
REMARK                            x       y       z     vdW  Elec       q    Type
REMARK                         _______ _______ _______ _____ _____    ______ ____
ROOT
ATOM      1  C   UNL     1       2.072   0.695  -0.014  0.00  0.00    -0.019 A 
ATOM      2  C   UNL     1       1.291  -0.407  -0.013  0.00  0.00    +0.107 A 
ATOM      3  N   UNL     1       0.002  -0.004   0.002  0.00  0.00    -0.284 N 
ATOM      4  H   UNL     1      -0.800  -0.602   0.006  0.00  0.00    +0.188 HD
ATOM      5  N   UNL     1      -0.017   1.397   0.010  0.00  0.00    -0.174 NA
ATOM      6  C   UNL     1       1.229   1.823   0.000  0.00  0.00    +0.094 A 
ENDROOT
BRANCH   6   7
ATOM      7  C   UNL     1       1.666   3.240   0.003  0.00  0.00    +0.003 A 
ATOM      8  C   UNL     1       2.833   3.607   0.693  0.00  0.00    +0.011 A 
ATOM      9  C   UNL     1       3.255   4.898   0.711  0.00  0.00    +0.009 A 
ATOM     10  C   UNL     1       2.521   5.887   0.032  0.00  0.00    -0.014 A 
ATOM     11  C   UNL     1       2.938   7.228   0.035  0.00  0.00    +0.054 A 
ATOM     12  C   UNL     1       2.204   8.166  -0.633  0.00  0.00    +0.121 A 
ATOM     13  C   UNL     1       1.040   7.810  -1.323  0.00  0.00    +0.046 A 
ATOM     14  C   UNL     1       0.610   6.520  -1.345  0.00  0.00    +0.012 A 
ATOM     15  C   UNL     1       1.341   5.528  -0.668  0.00  0.00    -0.017 A 
ATOM     16  C   UNL     1       0.925   4.187  -0.678  0.00  0.00    +0.018 A 
BRANCH  12  17
ATOM     17  O   UNL     1       2.609   9.463  -0.629  0.00  0.00    -0.495 OA
ATOM     18  C   UNL     1       1.801  10.398  -1.346  0.00  0.00    +0.277 C 
ENDBRANCH  12  17
ENDBRANCH   6   7
BRANCH   1  19
ATOM     19  C   UNL     1       3.579   0.714  -0.028  0.00  0.00    -0.039 C 
BRANCH  19  21
ATOM     20  C   UNL     1       3.751  -0.172   2.219  0.00  0.00    -0.095 C 
ATOM     21  N   UNL     1       4.065   0.976   1.343  0.00  0.00    +0.384 N 
ATOM     22  H   UNL     1       3.596   1.813   1.709  0.00  0.00    -0.081 HD
BRANCH  21  23
ATOM     23  C   UNL     1       5.524   1.214   1.325  0.00  0.00    -0.021 C 
BRANCH  23  26
ATOM     24  C   UNL     1       6.739   1.694   4.770  0.00  0.00    +0.036 A 
ATOM     25  C   UNL     1       6.472   0.894   3.712  0.00  0.00    +0.045 A 
ATOM     26  C   UNL     1       5.955   1.693   2.687  0.00  0.00    +0.047 A 
ATOM     27  N   UNL     1       5.906   2.928   3.117  0.00  0.00    -0.181 NA
ATOM     28  N   UNL     1       6.396   2.954   4.430  0.00  0.00    -0.281 N 
ATOM     29  H   UNL     1       6.476   3.763   5.011  0.00  0.00    +0.189 HD
BRANCH  24  30
ATOM     30  C   UNL     1       7.313   1.256   6.093  0.00  0.00    +0.054 C 
BRANCH  30  32
ATOM     31  C   UNL     1       6.766   0.318   8.343  0.00  0.00    +0.004 C 
ATOM     32  C   UNL     1       6.184   0.762   7.000  0.00  0.00    +0.003 C 
ENDBRANCH  30  32
ENDBRANCH  24  30
ENDBRANCH  23  26
ENDBRANCH  21  23
ENDBRANCH  19  21
ENDBRANCH   1  19
TORSDOF 8
