REMARK  Name = ZINC35427376
REMARK  5 active torsions:
REMARK  status: ('A' for Active; 'I' for Inactive)
REMARK    1  A    between atoms: C_1  and  N_2
REMARK    2  A    between atoms: C_16  and  C_32
REMARK    3  A    between atoms: N_22  and  C_23
REMARK    4  A    between atoms: C_28  and  O_29
REMARK    5  A    between atoms: O_29  and  C_30
REMARK                            x       y       z     vdW  Elec       q    Type
REMARK                         _______ _______ _______ _____ _____    ______ ____
ROOT
ATOM      1  C   UNL     1       0.933   0.982  -1.522  0.00  0.00    -0.096 C 
ATOM      2  N   UNL     1       0.669  -0.430  -1.212  0.00  0.00    +0.381 N 
ATOM      3  C   UNL     1      -0.701  -0.773  -1.617  0.00  0.00    -0.074 C 
ATOM      4  C   UNL     1      -0.896  -2.292  -1.602  0.00  0.00    +0.018 C 
ATOM      5  C   UNL     1      -0.459  -2.810  -0.234  0.00  0.00    -0.034 A 
ATOM      6  C   UNL     1      -0.823  -4.077   0.258  0.00  0.00    +0.004 A 
ATOM      7  C   UNL     1      -0.354  -4.412   1.491  0.00  0.00    +0.090 A 
ATOM      8  S   UNL     1       0.571  -3.000   2.014  0.00  0.00    -0.077 S 
ATOM      9  C   UNL     1       0.317  -2.020   0.557  0.00  0.00    -0.021 A 
ATOM     10  C   UNL     1       0.822  -0.652   0.238  0.00  0.00    -0.036 C 
ATOM     11  N   UNL     1      -0.592  -5.633   2.110  0.00  0.00    -0.312 N 
ATOM     12  C   UNL     1      -0.966  -5.938   3.374  0.00  0.00    +0.092 A 
ATOM     13  C   UNL     1      -1.130  -7.279   3.450  0.00  0.00    +0.020 A 
ATOM     14  C   UNL     1      -0.824  -7.817   2.181  0.00  0.00    +0.025 A 
ATOM     15  C   UNL     1      -0.474  -6.796   1.385  0.00  0.00    +0.049 A 
ATOM     16  C   UNL     1       0.016  -6.817  -0.032  0.00  0.00    +0.155 C 
ATOM     17  N   UNL     1      -0.976  -6.236  -0.967  0.00  0.00    -0.268 N 
ATOM     18  C   UNL     1      -1.704  -5.040  -0.506  0.00  0.00    +0.148 C 
ATOM     19  C   UNL     1      -1.202  -6.775  -2.182  0.00  0.00    +0.308 C 
ATOM     20  O   UNL     1      -0.585  -7.762  -2.533  0.00  0.00    -0.252 OA
ATOM     21  N   UNL     1      -2.112  -6.220  -3.007  0.00  0.00    -0.266 N 
ATOM     22  H   UNL     1      -2.546  -5.388  -2.761  0.00  0.00    +0.156 HD
ATOM     23  H   UNL     1       1.324  -1.012  -1.713  0.00  0.00    -0.082 HD
ENDROOT
BRANCH  21  24
ATOM     24  C   UNL     1      -2.431  -6.845  -4.220  0.00  0.00    +0.078 A 
ATOM     25  C   UNL     1      -2.147  -8.190  -4.405  0.00  0.00    +0.047 A 
ATOM     26  C   UNL     1      -2.463  -8.805  -5.603  0.00  0.00    +0.043 A 
ATOM     27  C   UNL     1      -3.064  -8.081  -6.618  0.00  0.00    +0.024 A 
ATOM     28  C   UNL     1      -3.350  -6.740  -6.440  0.00  0.00    +0.049 A 
ATOM     29  C   UNL     1      -3.040  -6.119  -5.241  0.00  0.00    +0.141 A 
ATOM     30 CL   UNL     1      -2.107 -10.488  -5.833  0.00  0.00    -0.083 Cl
BRANCH  29  31
ATOM     31  O   UNL     1      -3.326  -4.801  -5.062  0.00  0.00    -0.493 OA
ATOM     32  C   UNL     1      -3.951  -4.120  -6.152  0.00  0.00    +0.277 C 
ENDBRANCH  29  31
ENDBRANCH  21  24
BRANCH  16  33
ATOM     33  C   UNL     1       1.295  -6.025  -0.121  0.00  0.00    -0.021 A 
ATOM     34  C   UNL     1       2.219  -6.086   0.906  0.00  0.00    +0.006 A 
ATOM     35  C   UNL     1       3.392  -5.359   0.824  0.00  0.00    +0.000 A 
ATOM     36  C   UNL     1       3.641  -4.571  -0.284  0.00  0.00    +0.000 A 
ATOM     37  C   UNL     1       2.717  -4.510  -1.311  0.00  0.00    +0.000 A 
ATOM     38  C   UNL     1       1.546  -5.241  -1.231  0.00  0.00    +0.006 A 
ENDBRANCH  16  33
TORSDOF 3
