REMARK  Name = ZINC08818471
REMARK  7 active torsions:
REMARK  status: ('A' for Active; 'I' for Inactive)
REMARK    1  A    between atoms: C_9  and  C_22
REMARK    2  A    between atoms: C_10  and  N_21
REMARK    3  A    between atoms: N_11  and  N_14
REMARK    4  A    between atoms: C_15  and  C_16
REMARK    5  A    between atoms: N_24  and  C_25
REMARK    6  A    between atoms: C_25  and  C_26
REMARK    7  A    between atoms: C_26  and  C_27
REMARK                            x       y       z     vdW  Elec       q    Type
REMARK                         _______ _______ _______ _____ _____    ______ ____
ROOT
ATOM      1  C   UNL     1      -4.671  -0.405  -5.519  0.00  0.00    +0.002 A 
ATOM      2  C   UNL     1      -5.785  -1.072  -5.012  0.00  0.00    +0.002 A 
ATOM      3  C   UNL     1      -5.976  -1.197  -3.671  0.00  0.00    +0.030 A 
ATOM      4  C   UNL     1      -5.039  -0.647  -2.776  0.00  0.00    +0.092 A 
ATOM      5  C   UNL     1      -3.907   0.032  -3.292  0.00  0.00    +0.090 A 
ATOM      6  C   UNL     1      -3.744   0.140  -4.686  0.00  0.00    +0.030 A 
ATOM      7  N   UNL     1      -3.001   0.564  -2.463  0.00  0.00    -0.241 NA
ATOM      8  C   UNL     1      -3.168   0.454  -1.160  0.00  0.00    +0.124 A 
ATOM      9  C   UNL     1      -2.406   0.898   0.018  0.00  0.00    +0.105 A 
ATOM     10  C   UNL     1      -3.113   0.461   1.134  0.00  0.00    +0.134 A 
ATOM     11  N   UNL     1      -4.241  -0.201   0.753  0.00  0.00    -0.198 N 
ATOM     12  C   UNL     1      -4.338  -0.248  -0.624  0.00  0.00    +0.183 A 
ATOM     13  N   UNL     1      -5.219  -0.764  -1.454  0.00  0.00    -0.224 NA
ENDROOT
BRANCH   9  14
ATOM     14  C   UNL     1      -1.187   1.624   0.017  0.00  0.00    +0.250 C 
ATOM     15  O   UNL     1      -1.204   2.841   0.023  0.00  0.00    -0.270 OA
ATOM     16  N   UNL     1      -0.011   0.966   0.007  0.00  0.00    -0.311 N 
ATOM     17  H   UNL     1       0.002  -0.004   0.002  0.00  0.00    +0.149 HD
BRANCH  16  18
ATOM     18  C   UNL     1       1.248   1.716  -0.001  0.00  0.00    +0.109 C 
BRANCH  18  19
ATOM     19  C   UNL     1       2.424   0.737  -0.017  0.00  0.00    +0.049 C 
BRANCH  19  20
ATOM     20  C   UNL     1       3.719   1.508  -0.025  0.00  0.00    -0.072 C 
ATOM     21  C   UNL     1       4.302   1.727   1.109  0.00  0.00    -0.028 C 
ATOM     22  C   UNL     1       5.587   2.486   1.261  0.00  0.00    +0.027 C 
ATOM     23  C   UNL     1       6.305   2.582  -0.087  0.00  0.00    +0.004 C 
ATOM     24  C   UNL     1       5.300   3.069  -1.138  0.00  0.00    +0.005 C 
ATOM     25  C   UNL     1       4.254   1.970  -1.349  0.00  0.00    +0.030 C 
ENDBRANCH  19  20
ENDBRANCH  18  19
ENDBRANCH  16  18
ENDBRANCH   9  14
BRANCH  10  26
ATOM     26  N   UNL     1      -2.729   0.669   2.435  0.00  0.00    -0.342 N 
ATOM     27  H   UNL     1      -1.911   1.154   2.627  0.00  0.00    +0.144 HD
ATOM     28  H   UNL     1      -3.277   0.333   3.162  0.00  0.00    +0.144 HD
ENDBRANCH  10  26
BRANCH  11  29
ATOM     29  N   UNL     1      -5.172  -0.763   1.637  0.00  0.00    -0.171 NA
ATOM     30  C   UNL     1      -5.027  -1.991   2.039  0.00  0.00    +0.148 C 
BRANCH  30  31
ATOM     31  C   UNL     1      -6.002  -2.579   2.963  0.00  0.00    +0.032 A 
ATOM     32  C   UNL     1      -6.032  -3.852   3.506  0.00  0.00    +0.017 A 
ATOM     33  C   UNL     1      -7.060  -4.174   4.361  0.00  0.00    +0.008 A 
ATOM     34  C   UNL     1      -8.006  -3.241   4.644  0.00  0.00    +0.046 A 
ATOM     35  S   UNL     1      -7.454  -1.837   3.689  0.00  0.00    -0.096 S 
ENDBRANCH  30  31
ENDBRANCH  11  29
TORSDOF 7
