REMARK  Name = ZINC06601252
REMARK  15 active torsions:
REMARK  status: ('A' for Active; 'I' for Inactive)
REMARK    1  A    between atoms: C_1  and  C_2
REMARK    2  A    between atoms: C_2  and  O_3
REMARK    3  A    between atoms: O_3  and  C_4
REMARK    4  A    between atoms: C_7  and  C_10
REMARK    5  A    between atoms: C_10  and  C_12
REMARK    6  A    between atoms: C_10  and  N_19
REMARK    7  A    between atoms: N_14  and  C_15
REMARK    8  A    between atoms: C_15  and  C_16
REMARK    9  A    between atoms: C_15  and  C_17
REMARK   10  A    between atoms: C_15  and  C_18
REMARK   11  A    between atoms: N_19  and  C_20
REMARK   12  A    between atoms: C_20  and  C_21
REMARK   13  A    between atoms: C_26  and  C_28
REMARK   14  A    between atoms: C_29  and  N_36
REMARK   15  A    between atoms: C_30  and  C_33
REMARK                            x       y       z     vdW  Elec       q    Type
REMARK                         _______ _______ _______ _____ _____    ______ ____
ROOT
ATOM      1  N   UNL     1      -0.900  -0.179  -0.846  0.00  0.00    -0.277 N 
ATOM      2  C   UNL     1      -1.484  -0.114  -2.059  0.00  0.00    +0.258 C 
ATOM      3  O   UNL     1      -0.878   0.359  -3.002  0.00  0.00    -0.269 OA
ENDROOT
BRANCH   2   4
ATOM      4  C   UNL     1      -2.849  -0.613  -2.242  0.00  0.00    +0.115 A 
ATOM      5  C   UNL     1      -3.587  -0.760  -3.418  0.00  0.00    +0.076 A 
ATOM      6  C   UNL     1      -4.863  -1.274  -3.187  0.00  0.00    +0.155 A 
ATOM      7  N   UNL     1      -5.231  -1.554  -1.956  0.00  0.00    -0.203 NA
ATOM      8  S   UNL     1      -4.008  -1.202  -1.026  0.00  0.00    +0.019 S 
BRANCH   6   9
ATOM      9  C   UNL     1      -5.791  -1.499  -4.311  0.00  0.00    +0.262 C 
ATOM     10  O   UNL     1      -5.444  -1.237  -5.447  0.00  0.00    -0.269 OA
ATOM     11  N   UNL     1      -7.022  -1.995  -4.079  0.00  0.00    -0.324 N 
ATOM     12  H   UNL     1      -7.298  -2.204  -3.173  0.00  0.00    +0.145 HD
ATOM     13  H   UNL     1      -7.632  -2.143  -4.819  0.00  0.00    +0.145 HD
ENDBRANCH   6   9
BRANCH   5  14
ATOM     14  N   UNL     1      -3.104  -0.432  -4.678  0.00  0.00    -0.355 N 
ATOM     15  H   UNL     1      -2.206  -0.079  -4.776  0.00  0.00    +0.142 HD
ATOM     16  H   UNL     1      -3.665  -0.557  -5.460  0.00  0.00    +0.142 HD
ENDBRANCH   5  14
ENDBRANCH   2   4
BRANCH   1  17
ATOM     17  C   UNL     1       0.405   0.450  -0.627  0.00  0.00    +0.193 C 
BRANCH  17  21
ATOM     18  C   UNL     1      -0.109   4.665  -0.141  0.00  0.00    +0.121 A 
ATOM     19  C   UNL     1       1.005   4.173  -0.805  0.00  0.00    +0.046 A 
ATOM     20  C   UNL     1       1.169   2.810  -0.961  0.00  0.00    +0.009 A 
ATOM     21  C   UNL     1       0.224   1.936  -0.456  0.00  0.00    -0.018 A 
ATOM     22  C   UNL     1      -0.890   2.425   0.202  0.00  0.00    +0.009 A 
ATOM     23  C   UNL     1      -1.056   3.786   0.366  0.00  0.00    +0.046 A 
BRANCH  18  24
ATOM     24  O   UNL     1      -0.273   6.005   0.013  0.00  0.00    -0.492 OA
BRANCH  24  26
ATOM     25  C   UNL     1      -1.454   7.968   0.782  0.00  0.00    +0.048 C 
ATOM     26  C   UNL     1      -1.444   6.440   0.708  0.00  0.00    +0.225 C 
ENDBRANCH  24  26
ENDBRANCH  18  24
ENDBRANCH  17  21
BRANCH  17  27
ATOM     27  C   UNL     1       1.038  -0.125   0.613  0.00  0.00    +0.239 C 
ATOM     28  O   UNL     1       0.561  -1.110   1.136  0.00  0.00    -0.273 OA
ATOM     29  N   UNL     1       2.134   0.455   1.142  0.00  0.00    -0.309 N 
ATOM     30  H   UNL     1       2.475   1.281   0.765  0.00  0.00    +0.149 HD
BRANCH  29  31
ATOM     31  C   UNL     1       2.810  -0.163   2.285  0.00  0.00    +0.026 C 
ATOM     32  C   UNL     1       3.338  -1.541   1.882  0.00  0.00    +0.031 C 
ATOM     33  C   UNL     1       3.977   0.722   2.726  0.00  0.00    +0.031 C 
ATOM     34  C   UNL     1       1.820  -0.315   3.442  0.00  0.00    +0.031 C 
ENDBRANCH  29  31
ENDBRANCH  17  27
ENDBRANCH   1  17
BRANCH   1  35
ATOM     35  C   UNL     1      -1.570  -0.878   0.253  0.00  0.00    +0.151 C 
BRANCH  35  36
ATOM     36  C   UNL     1      -1.403  -2.365   0.078  0.00  0.00    +0.007 A 
ATOM     37  C   UNL     1      -0.540  -3.206   0.700  0.00  0.00    +0.013 A 
ATOM     38  C   UNL     1      -0.565  -4.550   0.378  0.00  0.00    +0.008 A 
ATOM     39  C   UNL     1      -1.451  -4.988  -0.549  0.00  0.00    +0.045 A 
ATOM     40  S   UNL     1      -2.295  -3.479  -0.994  0.00  0.00    -0.100 S 
ENDBRANCH  35  36
ENDBRANCH   1  35
TORSDOF 11
