REMARK  Name = ZINC15478823
REMARK  6 active torsions:
REMARK  status: ('A' for Active; 'I' for Inactive)
REMARK    1  A    between atoms: C_5  and  N_7
REMARK    2  A    between atoms: C_8  and  C_10
REMARK    3  A    between atoms: C_10  and  N_11
REMARK    4  A    between atoms: C_12  and  C_14
REMARK    5  A    between atoms: C_14  and  C_15
REMARK    6  A    between atoms: C_15  and  C_16
REMARK                            x       y       z     vdW  Elec       q    Type
REMARK                         _______ _______ _______ _____ _____    ______ ____
ROOT
ATOM      1  C   UNL     1      -2.875  -6.640   0.515  0.00  0.00    +0.103 C 
ENDROOT
BRANCH   1   3
ATOM      2  N   UNL     1      -1.250  -4.788   0.299  0.00  0.00    -0.307 N 
ATOM      3  C   UNL     1      -1.467  -6.114   0.404  0.00  0.00    +0.214 C 
ATOM      4  O   UNL     1      -0.530  -6.883   0.409  0.00  0.00    -0.276 OA
ATOM      5  H   UNL     1      -2.000  -4.172   0.295  0.00  0.00    +0.149 HD
BRANCH   2   6
ATOM      6  C   UNL     1       0.119  -4.276   0.191  0.00  0.00    +0.200 C 
BRANCH   6   8
ATOM      7  N   UNL     1       1.237  -2.080  -0.022  0.00  0.00    -0.283 N 
ATOM      8  C   UNL     1       0.086  -2.773   0.087  0.00  0.00    +0.234 C 
ATOM      9  O   UNL     1      -0.976  -2.187   0.102  0.00  0.00    -0.274 OA
ATOM     10  H   UNL     1       2.080  -2.551  -0.115  0.00  0.00    +0.155 HD
BRANCH   7  15
ATOM     11  C   UNL     1       0.153   1.372   0.637  0.00  0.00    +0.002 A 
ATOM     12  C   UNL     1       1.173   2.086   0.035  0.00  0.00    +0.001 A 
ATOM     13  C   UNL     1       2.214   1.421  -0.586  0.00  0.00    +0.017 A 
ATOM     14  C   UNL     1       2.239   0.040  -0.607  0.00  0.00    +0.039 A 
ATOM     15  C   UNL     1       1.216  -0.681  -0.003  0.00  0.00    +0.047 A 
ATOM     16  C   UNL     1       0.172  -0.009   0.620  0.00  0.00    +0.024 A 
ATOM     17 BR   UNL     1       3.662  -0.869  -1.458  0.00  0.00    -0.048 Br
ENDBRANCH   7  15
ENDBRANCH   6   8
ENDBRANCH   2   6
ENDBRANCH   1   3
BRANCH   1  18
ATOM     18  C   UNL     1      -2.842  -8.166   0.621  0.00  0.00    +0.083 C 
BRANCH  18  19
ATOM     19  C   UNL     1      -4.250  -8.693   0.732  0.00  0.00    +0.111 A 
ATOM     20  N   UNL     1      -4.455 -10.030   0.843  0.00  0.00    -0.310 N 
ATOM     21  H   UNL     1      -3.691 -10.629   0.849  0.00  0.00    +0.170 HD
ATOM     22  C   UNL     1      -5.695 -10.543   0.945  0.00  0.00    +0.260 A 
ATOM     23  O   UNL     1      -5.862 -11.746   1.045  0.00  0.00    -0.267 OA
ATOM     24  C   UNL     1      -6.816  -9.650   0.935  0.00  0.00    +0.075 A 
ATOM     25  C   UNL     1      -8.238  -9.976   1.032  0.00  0.00    -0.023 A 
ATOM     26  C   UNL     1      -9.107  -8.943   0.999  0.00  0.00    -0.004 A 
ATOM     27  S   UNL     1      -8.095  -7.497   0.841  0.00  0.00    -0.073 S 
ATOM     28  C   UNL     1      -6.505  -8.286   0.818  0.00  0.00    +0.116 A 
ATOM     29  N   UNL     1      -5.251  -7.854   0.726  0.00  0.00    -0.227 NA
ATOM     30  C   UNL     1     -10.601  -9.011   1.078  0.00  0.00    +0.043 C 
ATOM     31  C   UNL     1     -11.034 -10.463   0.829  0.00  0.00    +0.005 C 
ATOM     32  C   UNL     1     -10.173 -11.387   1.695  0.00  0.00    +0.005 C 
ATOM     33  C   UNL     1      -8.739 -11.412   1.163  0.00  0.00    +0.037 C 
ENDBRANCH  18  19
ENDBRANCH   1  18
TORSDOF 6
