REMARK  Name = ZINC42007965
REMARK  8 active torsions:
REMARK  status: ('A' for Active; 'I' for Inactive)
REMARK    1  A    between atoms: C_1  and  C_2
REMARK    2  A    between atoms: C_2  and  C_3
REMARK    3  A    between atoms: C_6  and  C_9
REMARK    4  A    between atoms: C_9  and  C_10
REMARK    5  A    between atoms: C_9  and  C_11
REMARK    6  A    between atoms: C_9  and  S_14
REMARK    7  A    between atoms: S_14  and  C_15
REMARK    8  A    between atoms: C_20  and  N_21
REMARK                            x       y       z     vdW  Elec       q    Type
REMARK                         _______ _______ _______ _____ _____    ______ ____
ROOT
ATOM      1  C   UNL     1       2.916  -2.033  -4.483  0.00  0.00    +0.144 C 
ATOM      2  C   UNL     1       4.288  -2.553  -4.053  0.00  0.00    +0.040 C 
ENDROOT
BRANCH   1   6
ATOM      3  C   UNL     1       0.746  -0.725  -1.044  0.00  0.00    -0.048 A 
ATOM      4  C   UNL     1       0.173  -0.633  -2.298  0.00  0.00    +0.004 A 
ATOM      5  C   UNL     1       0.875  -1.056  -3.411  0.00  0.00    +0.006 A 
ATOM      6  C   UNL     1       2.151  -1.571  -3.270  0.00  0.00    -0.021 A 
ATOM      7  C   UNL     1       2.724  -1.662  -2.015  0.00  0.00    +0.006 A 
ATOM      8  C   UNL     1       2.023  -1.235  -0.903  0.00  0.00    +0.004 A 
BRANCH   3  10
ATOM      9  C   UNL     1       0.268   1.218   0.422  0.00  0.00    +0.009 C 
ATOM     10  C   UNL     1      -0.019  -0.264   0.170  0.00  0.00    +0.032 C 
ENDBRANCH   3  10
ENDBRANCH   1   6
BRANCH   1  11
ATOM     11  C   UNL     1       3.092  -0.878  -5.435  0.00  0.00    +0.376 C 
ATOM     12  O   UNL     1       3.688   0.123  -5.075  0.00  0.00    -0.244 OA
ATOM     13  O   UNL     1       2.640  -0.945  -6.566  0.00  0.00    -0.244 OA
ENDBRANCH   1  11
BRANCH   1  14
ATOM     14  S   UNL     1       1.996  -3.361  -5.308  0.00  0.00    -0.101 S 
BRANCH  14  15
ATOM     15  C   UNL     1       3.034  -3.826  -6.654  0.00  0.00    +0.033 A 
ATOM     16  C   UNL     1       4.190  -3.106  -6.948  0.00  0.00    +0.036 A 
ATOM     17  C   UNL     1       4.977  -3.502  -8.010  0.00  0.00    +0.112 A 
ATOM     18  N   UNL     1       4.649  -4.547  -8.745  0.00  0.00    -0.261 NA
ATOM     19  C   UNL     1       3.564  -5.259  -8.503  0.00  0.00    +0.134 A 
ATOM     20  C   UNL     1       2.723  -4.933  -7.453  0.00  0.00    +0.057 A 
BRANCH  20  21
ATOM     21  N   UNL     1       1.576  -5.695  -7.197  0.00  0.00    -0.356 N 
ATOM     22  H   UNL     1       0.990  -5.458  -6.461  0.00  0.00    +0.142 HD
ATOM     23  H   UNL     1       1.368  -6.461  -7.755  0.00  0.00    +0.142 HD
ENDBRANCH  20  21
ENDBRANCH  14  15
ENDBRANCH   1  14
TORSDOF 6
