REMARK  Name = ZINC63341585
REMARK  11 active torsions:
REMARK  status: ('A' for Active; 'I' for Inactive)
REMARK    1  A    between atoms: C_1  and  C_2
REMARK    2  A    between atoms: C_2  and  C_3
REMARK    3  A    between atoms: C_3  and  C_4
REMARK    4  A    between atoms: C_3  and  C_5
REMARK    5  A    between atoms: C_5  and  C_6
REMARK    6  A    between atoms: C_5  and  N_24
REMARK    7  A    between atoms: N_8  and  C_9
REMARK    8  A    between atoms: C_13  and  C_15
REMARK    9  A    between atoms: C_15  and  O_16
REMARK   10  A    between atoms: O_16  and  C_17
REMARK   11  A    between atoms: C_21  and  C_23
REMARK                            x       y       z     vdW  Elec       q    Type
REMARK                         _______ _______ _______ _____ _____    ______ ____
ROOT
ATOM      1  C   UNL     1       3.296  -1.759  -1.747  0.00  0.00    +0.238 C 
ATOM      2  O   UNL     1       4.417  -1.369  -2.000  0.00  0.00    -0.273 OA
ATOM      3  N   UNL     1       2.679  -2.620  -2.580  0.00  0.00    -0.284 N 
ATOM      4  H   UNL     1       1.811  -2.983  -2.346  0.00  0.00    +0.155 HD
ENDROOT
BRANCH   3   5
ATOM      5  C   UNL     1       3.290  -2.990  -3.783  0.00  0.00    +0.034 A 
ATOM      6  C   UNL     1       2.519  -3.214  -4.916  0.00  0.00    +0.023 A 
ATOM      7  C   UNL     1       3.125  -3.579  -6.102  0.00  0.00    +0.002 A 
ATOM      8  C   UNL     1       4.500  -3.722  -6.162  0.00  0.00    +0.006 A 
ATOM      9  C   UNL     1       5.271  -3.500  -5.036  0.00  0.00    -0.020 A 
ATOM     10  C   UNL     1       4.670  -3.128  -3.848  0.00  0.00    +0.029 A 
BRANCH   9  11
ATOM     11  C   UNL     1       6.768  -3.657  -5.105  0.00  0.00    +0.195 C 
BRANCH  11  12
ATOM     12  O   UNL     1       7.362  -2.408  -5.466  0.00  0.00    -0.372 OA
BRANCH  12  13
ATOM     13  C   UNL     1       8.787  -2.448  -5.560  0.00  0.00    +0.119 C 
ATOM     14  C   UNL     1       9.193  -2.816  -6.989  0.00  0.00    +0.031 C 
ATOM     15  C   UNL     1      10.719  -2.859  -7.090  0.00  0.00    +0.003 C 
ATOM     16  C   UNL     1      11.293  -1.486  -6.734  0.00  0.00    +0.003 C 
ATOM     17  C   UNL     1      10.886  -1.117  -5.306  0.00  0.00    -0.012 C 
ATOM     18  C   UNL     1       9.360  -1.075  -5.205  0.00  0.00    +0.035 C 
ATOM     19  C   UNL     1      11.459   0.256  -4.951  0.00  0.00    +0.007 C 
ENDBRANCH  12  13
ENDBRANCH  11  12
ENDBRANCH   9  11
ENDBRANCH   3   5
BRANCH   1  20
ATOM     20  C   UNL     1       2.595  -1.281  -0.502  0.00  0.00    +0.163 C 
BRANCH  20  21
ATOM     21  N   UNL     1       3.222  -0.043  -0.033  0.00  0.00    -0.288 N 
ATOM     22  C   UNL     1       4.527  -0.034   0.305  0.00  0.00    +0.298 C 
ATOM     23  O   UNL     1       5.183  -1.054   0.220  0.00  0.00    -0.253 OA
ATOM     24  N   UNL     1       5.103   1.105   0.737  0.00  0.00    -0.313 N 
ATOM     25  H   UNL     1       2.698   0.771   0.035  0.00  0.00    +0.151 HD
ATOM     26  H   UNL     1       4.580   1.919   0.804  0.00  0.00    +0.146 HD
ATOM     27  H   UNL     1       6.043   1.111   0.980  0.00  0.00    +0.146 HD
ENDBRANCH  20  21
BRANCH  20  28
ATOM     28  C   UNL     1       2.702  -2.351   0.586  0.00  0.00    +0.015 C 
ATOM     29  C   UNL     1       2.047  -3.644   0.096  0.00  0.00    +0.010 C 
BRANCH  28  31
ATOM     30  C   UNL     1       2.202  -2.879   2.977  0.00  0.00    +0.004 C 
ATOM     31  C   UNL     1       1.989  -1.865   1.850  0.00  0.00    +0.002 C 
ENDBRANCH  28  31
ENDBRANCH  20  28
ENDBRANCH   1  20
TORSDOF 8
