REMARK  Name = ZINC37624048
REMARK  5 active torsions:
REMARK  status: ('A' for Active; 'I' for Inactive)
REMARK    1  A    between atoms: C_1  and  C_2
REMARK    2  A    between atoms: C_5  and  C_20
REMARK    3  A    between atoms: C_7  and  C_15
REMARK    4  A    between atoms: C_15  and  C_16
REMARK    5  A    between atoms: C_16  and  C_17
REMARK                            x       y       z     vdW  Elec       q    Type
REMARK                         _______ _______ _______ _____ _____    ______ ____
ROOT
ATOM      1  C   UNL     1       0.473   1.720   0.986  0.00  0.00    +0.019 C 
ATOM      2  C   UNL     1       0.730   0.226   1.196  0.00  0.00    +0.029 C 
ATOM      3  C   UNL     1      -0.040  -0.551   0.153  0.00  0.00    +0.015 C 
ATOM      4  C   UNL     1       0.299  -2.041   0.208  0.00  0.00    +0.016 C 
ATOM      5  C   UNL     1       1.804  -2.203  -0.030  0.00  0.00    +0.106 C 
ATOM      6  C   UNL     1       2.555  -1.515   1.107  0.00  0.00    +0.007 C 
ATOM      7  C   UNL     1       2.248  -0.026   1.138  0.00  0.00    +0.006 C 
ATOM      8  C   UNL     1       2.696   0.491   2.538  0.00  0.00    +0.012 C 
ATOM      9  C   UNL     1       1.554   0.033   3.472  0.00  0.00    +0.075 C 
ATOM     10  C   UNL     1       0.321  -0.141   2.603  0.00  0.00    +0.139 C 
ATOM     11  O   UNL     1      -0.772  -0.502   2.966  0.00  0.00    -0.297 OA
ENDROOT
BRANCH   5  12
ATOM     12  C   UNL     1       2.156  -3.668  -0.059  0.00  0.00    +0.359 C 
ATOM     13  O   UNL     1       2.666  -4.152  -1.055  0.00  0.00    -0.246 OA
ATOM     14  O   UNL     1       1.932  -4.369   0.913  0.00  0.00    -0.246 OA
ENDBRANCH   5  12
BRANCH   6  15
ATOM     15  C   UNL     1       4.059  -1.718   0.912  0.00  0.00    +0.016 C 
BRANCH  15  16
ATOM     16  C   UNL     1       4.493  -1.081  -0.410  0.00  0.00    +0.125 C 
BRANCH  16  17
ATOM     17  C   UNL     1       5.957  -1.354  -0.642  0.00  0.00    +0.356 C 
ATOM     18  O   UNL     1       6.594  -1.997   0.174  0.00  0.00    -0.246 OA
ATOM     19  O   UNL     1       6.504  -0.930  -1.646  0.00  0.00    -0.246 OA
ENDBRANCH  16  17
ENDBRANCH  15  16
ENDBRANCH   6  15
TORSDOF 4
