REMARK  Name = ZINC33037723
REMARK  3 active torsions:
REMARK  status: ('A' for Active; 'I' for Inactive)
REMARK    1  A    between atoms: C_6  and  N_7
REMARK    2  A    between atoms: N_18  and  S_21
REMARK    3  A    between atoms: S_21  and  C_24
REMARK                            x       y       z     vdW  Elec       q    Type
REMARK                         _______ _______ _______ _____ _____    ______ ____
ROOT
ATOM      1  N   UNL     1       0.115   7.386   0.852  0.00  0.00    -0.195 N 
ATOM      2  C   UNL     1       0.034   7.475   2.194  0.00  0.00    +0.272 A 
ATOM      3  O   UNL     1      -0.213   8.546   2.725  0.00  0.00    -0.266 OA
ATOM      4  C   UNL     1       0.238   6.324   2.981  0.00  0.00    +0.075 A 
ATOM      5  C   UNL     1       0.508   5.139   2.370  0.00  0.00    +0.051 A 
ATOM      6  C   UNL     1       0.590   5.080   0.965  0.00  0.00    +0.142 A 
ATOM      7  N   UNL     1       0.399   6.158   0.243  0.00  0.00    -0.148 NA
ATOM      8  N   UNL     1       0.872   3.868   0.338  0.00  0.00    -0.312 N 
ATOM      9  C   UNL     1      -0.092   2.862   0.704  0.00  0.00    +0.108 C 
ATOM     10  C   UNL     1       0.609   1.501   0.931  0.00  0.00    +0.036 C 
ATOM     11  C   UNL     1       1.743   1.316  -0.107  0.00  0.00    +0.111 C 
ATOM     12  N   UNL     1       1.442   1.728  -1.450  0.00  0.00    -0.174 NA
ATOM     13  C   UNL     1       1.729   3.145  -1.855  0.00  0.00    +0.128 C 
ATOM     14  C   UNL     1       0.790   3.998  -1.115  0.00  0.00    +0.123 C 
ENDROOT
BRANCH   1  20
ATOM     15  C   UNL     1      -0.942   8.472  -1.029  0.00  0.00    +0.029 A 
ATOM     16  C   UNL     1      -1.142   9.599  -1.801  0.00  0.00    +0.022 A 
ATOM     17  C   UNL     1      -0.483  10.777  -1.494  0.00  0.00    +0.041 A 
ATOM     18  C   UNL     1       0.374  10.830  -0.408  0.00  0.00    +0.022 A 
ATOM     19  C   UNL     1       0.575   9.707   0.370  0.00  0.00    +0.029 A 
ATOM     20  C   UNL     1      -0.086   8.524   0.064  0.00  0.00    +0.069 A 
ATOM     21 CL   UNL     1      -0.732  12.190  -2.471  0.00  0.00    -0.084 Cl
ENDBRANCH   1  20
BRANCH  12  22
ATOM     22  S   UNL     1       0.791   0.658  -2.533  0.00  0.00    +0.080 S 
ATOM     23  O   UNL     1       1.124   1.138  -3.828  0.00  0.00    -0.151 OA
ATOM     24  O   UNL     1       1.151  -0.642  -2.086  0.00  0.00    -0.151 OA
BRANCH  22  25
ATOM     25  C   UNL     1      -0.962   0.773  -2.388  0.00  0.00    +0.211 A 
ATOM     26  C   UNL     1      -1.737   0.042  -1.565  0.00  0.00    +0.133 A 
ATOM     27  N   UNL     1      -3.027   0.452  -1.769  0.00  0.00    -0.349 N 
ATOM     28  H   UNL     1      -3.847  -0.005  -1.195  0.00  0.00    +0.166 HD
ATOM     29  C   UNL     1      -2.996   1.413  -2.718  0.00  0.00    +0.198 A 
ATOM     30  N   UNL     1      -1.757   1.599  -3.083  0.00  0.00    -0.217 NA
ENDBRANCH  22  25
ENDBRANCH  12  22
TORSDOF 3
