REMARK  Name = ZINC62501496
REMARK  5 active torsions:
REMARK  status: ('A' for Active; 'I' for Inactive)
REMARK    1  A    between atoms: C_1  and  O_2
REMARK    2  A    between atoms: O_2  and  C_3
REMARK    3  A    between atoms: C_8  and  N_11
REMARK    4  A    between atoms: C_17  and  C_20
REMARK    5  A    between atoms: N_22  and  C_23
REMARK                            x       y       z     vdW  Elec       q    Type
REMARK                         _______ _______ _______ _____ _____    ______ ____
ROOT
ATOM      1  N   UNL     1      -1.052  -5.574   2.320  0.00  0.00    -0.296 N 
ATOM      2  C   UNL     1      -0.557  -6.697   2.878  0.00  0.00    +0.302 C 
ATOM      3  O   UNL     1       0.634  -6.934   2.811  0.00  0.00    -0.253 OA
ATOM      4  N   UNL     1      -1.381  -7.555   3.510  0.00  0.00    -0.286 N 
ATOM      5  C   UNL     1      -2.834  -7.343   3.500  0.00  0.00    +0.110 C 
ATOM      6  C   UNL     1      -3.343  -7.347   4.945  0.00  0.00    +0.032 C 
ATOM      7  C   UNL     1      -2.902  -8.641   5.633  0.00  0.00    +0.078 C 
ATOM      8  C   UNL     1      -1.374  -8.711   5.659  0.00  0.00    +0.032 C 
ATOM      9  C   UNL     1      -0.843  -8.726   4.218  0.00  0.00    +0.110 C 
ATOM     10  H   UNL     1      -2.010  -5.420   2.309  0.00  0.00    +0.151 HD
ENDROOT
BRANCH   1  16
ATOM     11  C   UNL     1       0.620  -0.611   1.038  0.00  0.00    +0.403 C 
ATOM     12  O   UNL     1       1.128   0.052   1.921  0.00  0.00    -0.226 OA
ATOM     13  N   UNL     1       0.674  -1.956   1.091  0.00  0.00    -0.267 N 
ATOM     14  C   UNL     1       0.070  -2.772   0.028  0.00  0.00    +0.113 C 
ATOM     15  C   UNL     1      -0.891  -3.779   0.667  0.00  0.00    +0.041 C 
ATOM     16  C   UNL     1      -0.145  -4.587   1.731  0.00  0.00    +0.077 C 
ATOM     17  C   UNL     1       0.364  -3.645   2.824  0.00  0.00    +0.041 C 
ATOM     18  C   UNL     1       1.345  -2.636   2.208  0.00  0.00    +0.113 C 
BRANCH  11  20
ATOM     19  C   UNL     1      -0.017   1.428   0.018  0.00  0.00    +0.282 C 
ATOM     20  O   UNL     1       0.003  -0.001   0.009  0.00  0.00    -0.454 OA
ENDBRANCH  11  20
ENDBRANCH   1  16
BRANCH   7  21
ATOM     21  C   UNL     1      -3.430  -8.665   7.045  0.00  0.00    +0.216 C 
ATOM     22  O   UNL     1      -4.093  -7.738   7.459  0.00  0.00    -0.276 OA
ATOM     23  N   UNL     1      -3.165  -9.715   7.846  0.00  0.00    -0.312 N 
ATOM     24  H   UNL     1      -2.634 -10.456   7.514  0.00  0.00    +0.149 HD
BRANCH  23  25
ATOM     25  C   UNL     1      -3.678  -9.738   9.218  0.00  0.00    +0.073 C 
ATOM     26  C   UNL     1      -2.714  -8.983  10.135  0.00  0.00    +0.022 C 
ATOM     27  C   UNL     1      -3.250  -9.006  11.568  0.00  0.00    +0.002 C 
ATOM     28  C   UNL     1      -3.375 -10.456  12.042  0.00  0.00    +0.000 C 
ATOM     29  C   UNL     1      -4.338 -11.211  11.125  0.00  0.00    +0.002 C 
ATOM     30  C   UNL     1      -3.803 -11.188   9.692  0.00  0.00    +0.022 C 
ENDBRANCH  23  25
ENDBRANCH   7  21
TORSDOF 4
