REMARK  Name = ZINC59014852
REMARK  9 active torsions:
REMARK  status: ('A' for Active; 'I' for Inactive)
REMARK    1  A    between atoms: C_4  and  C_7
REMARK    2  A    between atoms: C_7  and  S_8
REMARK    3  A    between atoms: S_8  and  C_9
REMARK    4  A    between atoms: C_14  and  N_15
REMARK    5  A    between atoms: C_16  and  C_18
REMARK    6  A    between atoms: C_18  and  S_19
REMARK    7  A    between atoms: S_19  and  C_20
REMARK    8  A    between atoms: N_25  and  N_26
REMARK    9  A    between atoms: C_27  and  C_28
REMARK                            x       y       z     vdW  Elec       q    Type
REMARK                         _______ _______ _______ _____ _____    ______ ____
ROOT
ATOM      1  C   UNL     1       6.072  -2.270   6.343  0.00  0.00    +0.173 C 
ENDROOT
BRANCH   1   3
ATOM      2  N   UNL     1       6.015  -1.993   3.886  0.00  0.00    -0.284 N 
ATOM      3  C   UNL     1       6.660  -2.469   4.970  0.00  0.00    +0.228 C 
ATOM      4  O   UNL     1       7.712  -3.058   4.840  0.00  0.00    -0.275 OA
ATOM      5  H   UNL     1       5.216  -1.454   3.995  0.00  0.00    +0.155 HD
BRANCH   2  11
ATOM      6  C   UNL     1       6.198  -1.429   1.537  0.00  0.00    +0.029 A 
ATOM      7  C   UNL     1       6.686  -1.713   0.269  0.00  0.00    +0.016 A 
ATOM      8  C   UNL     1       7.463  -2.838   0.064  0.00  0.00    +0.001 A 
ATOM      9  C   UNL     1       7.756  -3.682   1.119  0.00  0.00    +0.002 A 
ATOM     10  C   UNL     1       7.275  -3.406   2.386  0.00  0.00    +0.024 A 
ATOM     11  C   UNL     1       6.500  -2.277   2.602  0.00  0.00    +0.047 A 
BRANCH   6  12
ATOM     12  S   UNL     1       5.208   0.004   1.802  0.00  0.00    -0.119 S 
BRANCH  12  13
ATOM     13  C   UNL     1       5.095   0.769   0.161  0.00  0.00    +0.109 C 
BRANCH  13  17
ATOM     14  C   UNL     1       2.736   4.322   0.402  0.00  0.00    +0.000 A 
ATOM     15  C   UNL     1       4.103   4.386   0.594  0.00  0.00    +0.000 A 
ATOM     16  C   UNL     1       4.867   3.236   0.516  0.00  0.00    +0.004 A 
ATOM     17  C   UNL     1       4.263   2.023   0.247  0.00  0.00    -0.037 A 
ATOM     18  C   UNL     1       2.895   1.959   0.056  0.00  0.00    +0.004 A 
ATOM     19  C   UNL     1       2.132   3.109   0.132  0.00  0.00    +0.000 A 
ENDBRANCH  13  17
ENDBRANCH  12  13
ENDBRANCH   6  12
ENDBRANCH   2  11
ENDBRANCH   1   3
BRANCH   1  20
ATOM     20  S   UNL     1       7.165  -3.018   7.583  0.00  0.00    -0.075 S 
BRANCH  20  21
ATOM     21  C   UNL     1       6.351  -2.705   9.114  0.00  0.00    +0.211 A 
ATOM     22  N   UNL     1       6.796  -3.073  10.320  0.00  0.00    -0.186 NA
ATOM     23  C   UNL     1       5.945  -2.680  11.245  0.00  0.00    +0.232 A 
ATOM     24  N   UNL     1       4.926  -2.043  10.630  0.00  0.00    -0.245 N 
ATOM     25  N   UNL     1       5.213  -2.068   9.255  0.00  0.00    -0.144 NA
ATOM     26  N   UNL     1       6.074  -2.883  12.607  0.00  0.00    -0.205 N 
ATOM     27  H   UNL     1       5.391  -2.555  13.212  0.00  0.00    +0.177 HD
ATOM     28  H   UNL     1       4.150  -1.645  11.054  0.00  0.00    +0.192 HD
BRANCH  26  29
ATOM     29  N   UNL     1       7.189  -3.563  13.111  0.00  0.00    -0.188 NA
ATOM     30  C   UNL     1       7.310  -3.755  14.389  0.00  0.00    +0.138 C 
BRANCH  30  31
ATOM     31  C   UNL     1       8.484  -4.470  14.921  0.00  0.00    -0.005 A 
ATOM     32  C   UNL     1       9.472  -4.939  14.051  0.00  0.00    +0.012 A 
ATOM     33  C   UNL     1      10.569  -5.607  14.554  0.00  0.00    +0.039 A 
ATOM     34  C   UNL     1      10.691  -5.815  15.919  0.00  0.00    +0.123 A 
ATOM     35  C   UNL     1       9.714  -5.352  16.786  0.00  0.00    +0.039 A 
ATOM     36  C   UNL     1       8.617  -4.678  16.296  0.00  0.00    +0.012 A 
ATOM     37  F   UNL     1      11.768  -6.470  16.405  0.00  0.00    -0.205 F 
ENDBRANCH  30  31
ENDBRANCH  26  29
ENDBRANCH  20  21
ENDBRANCH   1  20
TORSDOF 9
