REMARK  Name = ZINC22007825
REMARK  7 active torsions:
REMARK  status: ('A' for Active; 'I' for Inactive)
REMARK    1  A    between atoms: C_1  and  C_2
REMARK    2  A    between atoms: C_2  and  N_3
REMARK    3  A    between atoms: N_3  and  C_4
REMARK    4  A    between atoms: N_3  and  C_6
REMARK    5  A    between atoms: C_4  and  C_5
REMARK    6  A    between atoms: C_9  and  N_12
REMARK    7  A    between atoms: C_15  and  C_24
REMARK                            x       y       z     vdW  Elec       q    Type
REMARK                         _______ _______ _______ _____ _____    ______ ____
ROOT
ATOM      1  N   UNL     1      -1.109  -6.057   1.493  0.00  0.00    -0.247 NA
ATOM      2  C   UNL     1       0.072  -6.633   1.606  0.00  0.00    +0.074 C 
ATOM      3  C   UNL     1       0.244  -8.043   1.251  0.00  0.00    +0.051 C 
ATOM      4  C   UNL     1       1.508  -8.567   1.097  0.00  0.00    +0.101 C 
ATOM      5  C   UNL     1       2.691  -7.709   1.288  0.00  0.00    +0.204 C 
ATOM      6  O   UNL     1       3.788  -8.082   0.918  0.00  0.00    -0.286 OA
ATOM      7  C   UNL     1       2.529  -6.394   1.935  0.00  0.00    +0.032 A 
ATOM      8  C   UNL     1       1.236  -5.860   2.087  0.00  0.00    +0.011 A 
ATOM      9  C   UNL     1       1.072  -4.618   2.691  0.00  0.00    +0.011 A 
ATOM     10  C   UNL     1       2.179  -3.918   3.132  0.00  0.00    +0.001 A 
ATOM     11  C   UNL     1       3.451  -4.443   2.977  0.00  0.00    +0.001 A 
ATOM     12  C   UNL     1       3.633  -5.676   2.389  0.00  0.00    +0.012 A 
ENDROOT
BRANCH   1  16
ATOM     13  C   UNL     1      -1.410  -1.947   1.531  0.00  0.00    +0.014 A 
ATOM     14  C   UNL     1      -0.591  -2.569   0.602  0.00  0.00    +0.024 A 
ATOM     15  C   UNL     1      -0.483  -3.941   0.581  0.00  0.00    +0.029 A 
ATOM     16  C   UNL     1      -1.207  -4.712   1.506  0.00  0.00    +0.065 A 
ATOM     17  C   UNL     1      -2.034  -4.073   2.443  0.00  0.00    +0.029 A 
ATOM     18  C   UNL     1      -2.124  -2.698   2.451  0.00  0.00    +0.024 A 
BRANCH  13  19
ATOM     19  N   UNL     1      -1.513  -0.553   1.544  0.00  0.00    -0.394 NA
ATOM     20  H   UNL     1      -2.142  -0.269   2.280  0.00  0.00    +0.126 HD
BRANCH  19  22
ATOM     21  C   UNL     1       0.290  -0.335   3.187  0.00  0.00    +0.022 C 
ATOM     22  C   UNL     1      -0.187   0.033   1.780  0.00  0.00    +0.081 C 
ENDBRANCH  19  22
BRANCH  19  23
ATOM     23  C   UNL     1      -2.030  -0.088   0.250  0.00  0.00    +0.081 C 
ATOM     24  C   UNL     1      -3.468  -0.580   0.070  0.00  0.00    +0.022 C 
ENDBRANCH  19  23
ENDBRANCH  13  19
ENDBRANCH   1  16
BRANCH   4  25
ATOM     25  C   UNL     1       1.673  -9.946   0.749  0.00  0.00    +0.103 C 
ATOM     26  N   UNL     1       1.804 -11.040   0.473  0.00  0.00    -0.191 NA
ENDBRANCH   4  25
TORSDOF 5
