REMARK  Name = ZINC01835465
REMARK  13 active torsions:
REMARK  status: ('A' for Active; 'I' for Inactive)
REMARK    1  A    between atoms: C_1  and  O_2
REMARK    2  A    between atoms: O_2  and  C_3
REMARK    3  A    between atoms: C_5  and  C_10
REMARK    4  A    between atoms: C_8  and  O_9
REMARK    5  A    between atoms: C_16  and  C_33
REMARK    6  A    between atoms: C_17  and  C_24
REMARK    7  A    between atoms: C_19  and  C_22
REMARK    8  A    between atoms: C_20  and  N_21
REMARK    9  A    between atoms: C_27  and  O_32
REMARK   10  A    between atoms: C_28  and  O_30
REMARK   11  A    between atoms: O_30  and  C_31
REMARK   12  A    between atoms: C_33  and  O_35
REMARK   13  A    between atoms: O_35  and  C_36
REMARK                            x       y       z     vdW  Elec       q    Type
REMARK                         _______ _______ _______ _____ _____    ______ ____
ROOT
ATOM      1  C   UNL     1       8.037   4.619   1.131  0.00  0.00    +0.028 C 
ATOM      2  C   UNL     1       7.277   3.508   0.951  0.00  0.00    +0.079 A 
ATOM      3  C   UNL     1       6.840   2.871  -0.296  0.00  0.00    +0.271 A 
ATOM      4  O   UNL     1       7.156   3.334  -1.376  0.00  0.00    -0.266 OA
ATOM      5  N   UNL     1       6.081   1.760  -0.217  0.00  0.00    -0.257 N 
ATOM      6  C   UNL     1       5.761   1.290   1.040  0.00  0.00    +0.100 A 
ATOM      7  C   UNL     1       4.999   0.176   1.276  0.00  0.00    +0.080 C 
ATOM      8  C   UNL     1       4.470  -0.595   0.082  0.00  0.00    +0.102 C 
ATOM      9  C   UNL     1       4.847  -0.042  -1.277  0.00  0.00    +0.079 C 
ATOM     10  C   UNL     1       5.609   1.072  -1.341  0.00  0.00    +0.118 C 
ATOM     11  S   UNL     1       6.540   2.429   2.167  0.00  0.00    -0.065 S 
ENDROOT
BRANCH   1  14
ATOM     12  C   UNL     1       9.617   6.512   3.957  0.00  0.00    +0.162 A 
ATOM     13  C   UNL     1       9.164   6.191   2.693  0.00  0.00    +0.057 A 
ATOM     14  C   UNL     1       8.526   4.964   2.472  0.00  0.00    -0.020 A 
ATOM     15  C   UNL     1       8.361   4.065   3.533  0.00  0.00    +0.012 A 
ATOM     16  C   UNL     1       8.821   4.392   4.790  0.00  0.00    +0.050 A 
ATOM     17  C   UNL     1       9.448   5.611   5.008  0.00  0.00    +0.158 A 
BRANCH  12  19
ATOM     18  C   UNL     1      10.370   8.579   3.055  0.00  0.00    +0.277 C 
ATOM     19  O   UNL     1      10.232   7.705   4.176  0.00  0.00    -0.491 OA
ENDBRANCH  12  19
BRANCH  17  20
ATOM     20  O   UNL     1       9.900   5.927   6.250  0.00  0.00    -0.503 OA
ATOM     21  H   UNL     1      10.812   5.651   6.419  0.00  0.00    +0.292 HD
ENDBRANCH  17  20
ENDBRANCH   1  14
BRANCH   8  22
ATOM     22  C   UNL     1       2.967  -0.634   0.175  0.00  0.00    -0.031 A 
ATOM     23  C   UNL     1       2.245   0.545   0.181  0.00  0.00    +0.008 A 
ATOM     24  C   UNL     1       0.866   0.514   0.265  0.00  0.00    +0.049 A 
ATOM     25  C   UNL     1       0.203  -0.700   0.343  0.00  0.00    +0.158 A 
ATOM     26  C   UNL     1       0.929  -1.887   0.332  0.00  0.00    +0.162 A 
ATOM     27  C   UNL     1       2.312  -1.849   0.253  0.00  0.00    +0.054 A 
BRANCH  26  28
ATOM     28  O   UNL     1       0.283  -3.082   0.403  0.00  0.00    -0.491 OA
ATOM     29  C   UNL     1       1.093  -4.259   0.392  0.00  0.00    +0.277 C 
ENDBRANCH  26  28
BRANCH  25  30
ATOM     30  O   UNL     1      -1.154  -0.732   0.425  0.00  0.00    -0.503 OA
ATOM     31  H   UNL     1      -1.599  -0.770  -0.432  0.00  0.00    +0.292 HD
ENDBRANCH  25  30
ENDBRANCH   8  22
BRANCH  10  32
ATOM     32  N   UNL     1       5.941   1.557  -2.583  0.00  0.00    -0.343 N 
ATOM     33  H   UNL     1       6.002   0.953  -3.339  0.00  0.00    +0.144 HD
ATOM     34  H   UNL     1       6.114   2.504  -2.703  0.00  0.00    +0.144 HD
ENDBRANCH  10  32
BRANCH   9  35
ATOM     35  C   UNL     1       4.404  -0.690  -2.475  0.00  0.00    +0.099 C 
ATOM     36  N   UNL     1       4.052  -1.203  -3.425  0.00  0.00    -0.191 NA
ENDBRANCH   9  35
BRANCH   7  37
ATOM     37  C   UNL     1       4.716  -0.239   2.584  0.00  0.00    +0.338 C 
ATOM     38  O   UNL     1       5.150   0.394   3.531  0.00  0.00    -0.245 OA
BRANCH  37  39
ATOM     39  O   UNL     1       3.962  -1.340   2.795  0.00  0.00    -0.465 OA
ATOM     40  C   UNL     1       3.713  -1.705   4.154  0.00  0.00    +0.280 C 
ENDBRANCH  37  39
ENDBRANCH   7  37
TORSDOF 10
