REMARK  Name = ZINC01297687
REMARK  5 active torsions:
REMARK  status: ('A' for Active; 'I' for Inactive)
REMARK    1  A    between atoms: C_1  and  C_2
REMARK    2  A    between atoms: C_2  and  C_24
REMARK    3  A    between atoms: C_3  and  C_18
REMARK    4  A    between atoms: C_5  and  C_9
REMARK    5  A    between atoms: N_7  and  O_8
REMARK                            x       y       z     vdW  Elec       q    Type
REMARK                         _______ _______ _______ _____ _____    ______ ____
ROOT
ATOM      1  C   UNL     1       0.117   1.526  -0.190  0.00  0.00    +0.037 C 
ATOM      2  C   UNL     1       0.072  -0.000  -0.097  0.00  0.00    +0.089 C 
ATOM      3  C   UNL     1       0.729  -0.623  -1.309  0.00  0.00    +0.106 C 
ATOM      4  N   UNL     1      -0.009  -1.591  -1.745  0.00  0.00    -0.141 N 
ATOM      5  C   UNL     1      -1.208  -1.743  -0.912  0.00  0.00    +0.254 C 
ATOM      6  N   UNL     1      -1.331  -0.481  -0.145  0.00  0.00    -0.149 NA
ATOM      7  O   UNL     1       0.298  -2.394  -2.870  0.00  0.00    -0.167 OA
ATOM      8  C   UNL     1       0.756  -0.476   1.185  0.00  0.00    +0.037 C 
ENDROOT
BRANCH   5   9
ATOM      9  C   UNL     1      -2.422  -1.944  -1.781  0.00  0.00    +0.013 A 
ATOM     10  C   UNL     1      -3.165  -0.854  -2.193  0.00  0.00    +0.010 A 
ATOM     11  C   UNL     1      -4.279  -1.037  -2.990  0.00  0.00    +0.020 A 
ATOM     12  C   UNL     1      -4.652  -2.313  -3.376  0.00  0.00    +0.042 A 
ATOM     13  C   UNL     1      -3.909  -3.404  -2.964  0.00  0.00    +0.040 A 
ATOM     14  C   UNL     1      -2.791  -3.219  -2.171  0.00  0.00    +0.049 A 
ATOM     15 CL   UNL     1      -1.853  -4.588  -1.659  0.00  0.00    -0.083 Cl
ATOM     16 CL   UNL     1      -6.051  -2.543  -4.378  0.00  0.00    -0.083 Cl
ENDBRANCH   5   9
BRANCH   3  17
ATOM     17  C   UNL     1       2.011  -0.190  -1.901  0.00  0.00    +0.088 A 
ATOM     18  C   UNL     1       2.513  -0.849  -3.024  0.00  0.00    +0.030 A 
ATOM     19  C   UNL     1       3.715  -0.432  -3.567  0.00  0.00    +0.004 A 
ATOM     20  C   UNL     1       4.378   0.631  -2.971  0.00  0.00    +0.020 A 
ATOM     21  C   UNL     1       3.823   1.240  -1.859  0.00  0.00    +0.111 A 
ATOM     22  N   UNL     1       2.675   0.827  -1.364  0.00  0.00    -0.254 NA
ENDBRANCH   3  17
BRANCH   6  23
ATOM     23  O   UNL     1      -1.844  -0.734   1.202  0.00  0.00    -0.309 OA
ATOM     24  H   UNL     1      -2.781  -0.973   1.227  0.00  0.00    +0.237 HD
ENDBRANCH   6  23
TORSDOF 3
