REMARK  Name = ZINC42014914
REMARK  5 active torsions:
REMARK  status: ('A' for Active; 'I' for Inactive)
REMARK    1  A    between atoms: C_1  and  C_2
REMARK    2  A    between atoms: C_2  and  C_3
REMARK    3  A    between atoms: C_2  and  N_4
REMARK    4  A    between atoms: C_5  and  C_9
REMARK    5  A    between atoms: C_14  and  N_15
REMARK                            x       y       z     vdW  Elec       q    Type
REMARK                         _______ _______ _______ _____ _____    ______ ____
ROOT
ATOM      1  C   UNL     1      -1.413  -1.643  -2.252  0.00  0.00    +0.044 A 
ATOM      2  C   UNL     1      -0.177  -2.290  -2.287  0.00  0.00    +0.051 A 
ATOM      3  C   UNL     1       0.362  -2.680  -3.497  0.00  0.00    +0.124 A 
ATOM      4  C   UNL     1      -0.320  -2.431  -4.678  0.00  0.00    +0.040 A 
ATOM      5  C   UNL     1      -1.544  -1.791  -4.656  0.00  0.00    +0.026 A 
ATOM      6  C   UNL     1      -2.101  -1.399  -3.448  0.00  0.00    +0.036 A 
ATOM      7  F   UNL     1       1.558  -3.307  -3.530  0.00  0.00    -0.205 F 
ENDROOT
BRANCH   1   9
ATOM      8  N   UNL     1      -1.361  -0.542   0.028  0.00  0.00    -0.222 N 
ATOM      9  C   UNL     1      -1.995  -1.223  -0.960  0.00  0.00    +0.184 A 
ATOM     10  N   UNL     1      -3.228  -1.439  -0.549  0.00  0.00    -0.108 NA
ATOM     11  N   UNL     1      -3.405  -0.942   0.621  0.00  0.00    -0.023 NA
ATOM     12  N   UNL     1      -2.321  -0.386   1.043  0.00  0.00    -0.043 NA
BRANCH   8  14
ATOM     13  C   UNL     1       0.058   1.427   0.327  0.00  0.00    +0.032 C 
ATOM     14  C   UNL     1       0.027  -0.075   0.036  0.00  0.00    +0.105 C 
ATOM     15  C   UNL     1       0.809  -0.821   1.120  0.00  0.00    +0.032 C 
ENDBRANCH   8  14
ENDBRANCH   1   9
BRANCH   6  16
ATOM     16  N   UNL     1      -3.340  -0.758  -3.424  0.00  0.00    -0.357 N 
ATOM     17  H   UNL     1      -3.726  -0.481  -2.578  0.00  0.00    +0.142 HD
ATOM     18  H   UNL     1      -3.815  -0.590  -4.252  0.00  0.00    +0.142 HD
ENDBRANCH   6  16
TORSDOF 3
