REMARK  Name = ZINC04854756
REMARK  4 active torsions:
REMARK  status: ('A' for Active; 'I' for Inactive)
REMARK    1  A    between atoms: C_4  and  C_7
REMARK    2  A    between atoms: C_7  and  N_8
REMARK    3  A    between atoms: C_14  and  C_20
REMARK    4  A    between atoms: C_23  and  O_26
REMARK                            x       y       z     vdW  Elec       q    Type
REMARK                         _______ _______ _______ _____ _____    ______ ____
ROOT
ATOM      1  N   UNL     1      -3.298   4.376  -3.603  0.00  0.00    -0.288 N 
ATOM      2  C   UNL     1      -4.499   3.668  -3.135  0.00  0.00    +0.159 C 
ATOM      3  C   UNL     1      -4.260   3.432  -1.660  0.00  0.00    +0.039 C 
ATOM      4  C   UNL     1      -3.053   3.962  -1.381  0.00  0.00    +0.058 C 
ATOM      5  C   UNL     1      -2.483   4.524  -2.543  0.00  0.00    +0.247 C 
ATOM      6  O   UNL     1      -1.397   5.072  -2.581  0.00  0.00    -0.270 OA
ATOM      7  C   UNL     1      -2.553   3.867   0.046  0.00  0.00    +0.142 C 
ATOM      8  N   UNL     1      -3.435   3.197   1.017  0.00  0.00    -0.288 N 
ATOM      9  C   UNL     1      -4.617   2.715   0.585  0.00  0.00    +0.304 C 
ATOM     10  O   UNL     1      -5.352   2.160   1.379  0.00  0.00    -0.252 OA
ATOM     11  N   UNL     1      -5.009   2.828  -0.691  0.00  0.00    -0.271 N 
ATOM     12  H   UNL     1      -3.171   3.105   1.946  0.00  0.00    +0.151 HD
ATOM     13  H   UNL     1      -5.871   2.460  -0.940  0.00  0.00    +0.156 HD
ENDROOT
BRANCH   7  14
ATOM     14  C   UNL     1      -1.237   3.133   0.030  0.00  0.00    -0.022 A 
ATOM     15  C   UNL     1      -1.218   1.751   0.017  0.00  0.00    +0.009 A 
ATOM     16  C   UNL     1      -0.013   1.076   0.008  0.00  0.00    +0.046 A 
ATOM     17  C   UNL     1       1.179   1.786   0.000  0.00  0.00    +0.117 A 
ATOM     18  C   UNL     1       1.157   3.174   0.008  0.00  0.00    +0.046 A 
ATOM     19  C   UNL     1      -0.051   3.844   0.023  0.00  0.00    +0.009 A 
BRANCH  17  20
ATOM     20  O   UNL     1       2.366   1.125  -0.015  0.00  0.00    -0.507 OA
ATOM     21  H   UNL     1       2.701   0.938  -0.903  0.00  0.00    +0.292 HD
ENDBRANCH  17  20
ENDBRANCH   7  14
BRANCH   1  22
ATOM     22  C   UNL     1      -3.037   4.833  -4.970  0.00  0.00    +0.143 C 
BRANCH  22  26
ATOM     23  C   UNL     1      -4.530   8.806  -5.452  0.00  0.00    +0.000 A 
ATOM     24  C   UNL     1      -3.232   8.603  -5.024  0.00  0.00    +0.000 A 
ATOM     25  C   UNL     1      -2.748   7.318  -4.869  0.00  0.00    +0.005 A 
ATOM     26  C   UNL     1      -3.564   6.235  -5.140  0.00  0.00    -0.030 A 
ATOM     27  C   UNL     1      -4.861   6.438  -5.572  0.00  0.00    +0.005 A 
ATOM     28  C   UNL     1      -5.346   7.724  -5.724  0.00  0.00    +0.000 A 
ENDBRANCH  22  26
ENDBRANCH   1  22
TORSDOF 4
