REMARK  Name = ZINC24097949
REMARK  12 active torsions:
REMARK  status: ('A' for Active; 'I' for Inactive)
REMARK    1  A    between atoms: C_1  and  C_2
REMARK    2  A    between atoms: C_2  and  C_18
REMARK    3  A    between atoms: N_5  and  C_9
REMARK    4  A    between atoms: C_9  and  C_10
REMARK    5  A    between atoms: C_10  and  C_12
REMARK    6  A    between atoms: C_10  and  C_16
REMARK    7  A    between atoms: C_12  and  C_13
REMARK    8  A    between atoms: C_13  and  C_14
REMARK    9  A    between atoms: C_18  and  C_19
REMARK   10  A    between atoms: C_19  and  C_20
REMARK   11  A    between atoms: C_23  and  O_26
REMARK   12  A    between atoms: O_26  and  C_27
REMARK                            x       y       z     vdW  Elec       q    Type
REMARK                         _______ _______ _______ _____ _____    ______ ____
ROOT
ATOM      1  C   UNL     1      -0.013   1.086   0.008  0.00  0.00    +0.041 C 
ATOM      2  C   UNL     1      -0.729   1.579   1.267  0.00  0.00    +0.110 C 
ATOM      3  C   UNL     1      -0.654   3.090   1.365  0.00  0.00    +0.246 C 
ATOM      4  O   UNL     1      -1.103   3.898   0.580  0.00  0.00    -0.273 OA
ATOM      5  N   UNL     1       0.015   3.349   2.506  0.00  0.00    -0.223 N 
ATOM      6  C   UNL     1       0.371   2.223   3.135  0.00  0.00    +0.309 C 
ATOM      7  O   UNL     1       0.984   2.200   4.184  0.00  0.00    -0.252 OA
ATOM      8  N   UNL     1      -0.026   1.119   2.477  0.00  0.00    -0.285 N 
ATOM      9  H   UNL     1       0.078   0.042   2.676  0.00  0.00    +0.151 HD
ENDROOT
BRANCH   5  10
ATOM     10  C   UNL     1       0.318   4.696   2.995  0.00  0.00    +0.136 C 
BRANCH  10  11
ATOM     11  C   UNL     1       1.668   5.150   2.438  0.00  0.00    +0.110 C 
BRANCH  11  12
ATOM     12  C   UNL     1       2.735   4.291   2.976  0.00  0.00    +0.067 C 
ATOM     13  N   UNL     1       3.559   3.629   3.392  0.00  0.00    -0.196 NA
ENDBRANCH  11  12
BRANCH  11  14
ATOM     14  C   UNL     1       1.926   6.602   2.846  0.00  0.00    +0.034 C 
BRANCH  14  15
ATOM     15  C   UNL     1       3.215   7.096   2.186  0.00  0.00    +0.120 C 
BRANCH  15  16
ATOM     16  C   UNL     1       3.463   8.492   2.579  0.00  0.00    +0.063 C 
ATOM     17  N   UNL     1       3.655   9.570   2.883  0.00  0.00    -0.197 NA
ENDBRANCH  15  16
ENDBRANCH  14  15
ENDBRANCH  11  14
ENDBRANCH  10  11
ENDBRANCH   5  10
BRANCH   2  18
ATOM     18  C   UNL     1      -2.184   1.107   1.276  0.00  0.00    +0.039 C 
BRANCH  18  19
ATOM     19  C   UNL     1      -2.224  -0.420   1.358  0.00  0.00    +0.038 C 
BRANCH  19  20
ATOM     20  C   UNL     1      -3.657  -0.886   1.367  0.00  0.00    -0.047 A 
ATOM     21  C   UNL     1      -4.325  -1.040   2.568  0.00  0.00    +0.007 A 
ATOM     22  C   UNL     1      -5.641  -1.461   2.579  0.00  0.00    +0.046 A 
ATOM     23  C   UNL     1      -6.288  -1.740   1.385  0.00  0.00    +0.127 A 
ATOM     24  C   UNL     1      -5.615  -1.590   0.181  0.00  0.00    +0.046 A 
ATOM     25  C   UNL     1      -4.301  -1.163   0.175  0.00  0.00    +0.007 A 
BRANCH  23  26
ATOM     26  O   UNL     1      -7.581  -2.159   1.393  0.00  0.00    -0.434 OA
BRANCH  26  27
ATOM     27  C   UNL     1      -8.212  -2.292   2.669  0.00  0.00    +0.541 C 
ATOM     28  F   UNL     1      -7.510  -3.222   3.442  0.00  0.00    -0.166 F 
ATOM     29  F   UNL     1      -8.214  -1.052   3.318  0.00  0.00    -0.166 F 
ENDBRANCH  26  27
ENDBRANCH  23  26
ENDBRANCH  19  20
ENDBRANCH  18  19
ENDBRANCH   2  18
TORSDOF 11
