REMARK  Name = ZINC63864919
REMARK  4 active torsions:
REMARK  status: ('A' for Active; 'I' for Inactive)
REMARK    1  A    between atoms: C_1  and  C_2
REMARK    2  A    between atoms: C_2  and  C_28
REMARK    3  A    between atoms: C_5  and  N_12
REMARK    4  A    between atoms: C_13  and  C_15
REMARK                            x       y       z     vdW  Elec       q    Type
REMARK                         _______ _______ _______ _____ _____    ______ ____
ROOT
ATOM      1  N   UNL     1      -0.732  -3.756   1.804  0.00  0.00    -0.305 N 
ATOM      2  C   UNL     1      -0.843  -4.321   3.023  0.00  0.00    +0.245 C 
ATOM      3  O   UNL     1      -1.143  -3.639   3.984  0.00  0.00    -0.270 OA
ATOM      4  H   UNL     1      -0.493  -4.300   1.038  0.00  0.00    +0.150 HD
ENDROOT
BRANCH   2   5
ATOM      5  C   UNL     1      -0.600  -5.772   3.192  0.00  0.00    +0.039 A 
ATOM      6  C   UNL     1      -0.248  -6.552   2.079  0.00  0.00    +0.014 A 
ATOM      7  C   UNL     1      -0.020  -7.888   2.209  0.00  0.00    +0.016 A 
ATOM      8  C   UNL     1      -0.135  -8.498   3.466  0.00  0.00    +0.065 A 
ATOM      9  C   UNL     1      -0.490  -7.722   4.600  0.00  0.00    +0.080 A 
ATOM     10  C   UNL     1      -0.716  -6.346   4.447  0.00  0.00    +0.041 A 
ATOM     11  N   UNL     1      -0.595  -8.320   5.795  0.00  0.00    -0.223 NA
ATOM     12  C   UNL     1      -0.373  -9.619   5.923  0.00  0.00    +0.180 A 
ATOM     13  N   UNL     1      -0.035 -10.398   4.882  0.00  0.00    -0.301 N 
ATOM     14  H   UNL     1       0.119 -11.345   5.023  0.00  0.00    +0.171 HD
ATOM     15  C   UNL     1       0.094  -9.880   3.641  0.00  0.00    +0.260 A 
ATOM     16  O   UNL     1       0.433 -10.660   2.600  0.00  0.00    -0.267 OA
ATOM     17  S   UNL     1      -0.522 -10.333   7.472  0.00  0.00    -0.011 S 
ENDBRANCH   2   5
BRANCH   1  22
ATOM     18  C   UNL     1      -0.019   1.526   0.010  0.00  0.00    +0.016 C 
ATOM     19  C   UNL     1       0.002  -0.004   0.002  0.00  0.00    -0.009 C 
ATOM     20  C   UNL     1      -1.433  -0.527  -0.015  0.00  0.00    +0.013 C 
ATOM     21  C   UNL     1      -1.397  -2.045   0.197  0.00  0.00    +0.028 C 
ATOM     22  C   UNL     1      -0.972  -2.321   1.638  0.00  0.00    +0.104 C 
ATOM     23  C   UNL     1       0.286  -1.564   1.973  0.00  0.00    -0.024 A 
ATOM     24  C   UNL     1       0.732  -0.498   1.224  0.00  0.00    -0.037 A 
ATOM     25  C   UNL     1       1.897   0.162   1.592  0.00  0.00    +0.004 A 
ATOM     26  C   UNL     1       2.614  -0.245   2.698  0.00  0.00    +0.000 A 
ATOM     27  C   UNL     1       2.169  -1.318   3.448  0.00  0.00    +0.000 A 
ATOM     28  C   UNL     1       1.010  -1.973   3.085  0.00  0.00    +0.006 A 
ATOM     29  C   UNL     1       0.731  -0.492  -1.252  0.00  0.00    +0.016 C 
ENDBRANCH   1  22
TORSDOF 2
