REMARK  Name = ZINC06430442
REMARK  12 active torsions:
REMARK  status: ('A' for Active; 'I' for Inactive)
REMARK    1  A    between atoms: C_1  and  C_2
REMARK    2  A    between atoms: C_2  and  C_3
REMARK    3  A    between atoms: C_2  and  C_4
REMARK    4  A    between atoms: C_2  and  C_5
REMARK    5  A    between atoms: C_7  and  C_16
REMARK    6  A    between atoms: C_9  and  C_12
REMARK    7  A    between atoms: C_10  and  O_11
REMARK    8  A    between atoms: C_12  and  C_13
REMARK    9  A    between atoms: C_12  and  C_14
REMARK   10  A    between atoms: C_12  and  C_15
REMARK   11  A    between atoms: C_17  and  C_18
REMARK   12  A    between atoms: C_17  and  C_20
REMARK                            x       y       z     vdW  Elec       q    Type
REMARK                         _______ _______ _______ _____ _____    ______ ____
ROOT
ATOM      1  C   UNL     1      -0.321   0.194   0.718  0.00  0.00    +0.000 A 
ATOM      2  C   UNL     1      -0.207   1.539   0.510  0.00  0.00    +0.015 A 
ATOM      3  C   UNL     1       1.049   2.099   0.234  0.00  0.00    -0.023 A 
ATOM      4  C   UNL     1       2.181   1.274   0.174  0.00  0.00    +0.015 A 
ATOM      5  C   UNL     1       2.054  -0.070   0.383  0.00  0.00    +0.000 A 
ATOM      6  C   UNL     1       0.806  -0.620   0.656  0.00  0.00    +0.124 A 
ENDROOT
BRANCH   1   8
ATOM      7  C   UNL     1      -2.731   0.692   1.024  0.00  0.00    +0.015 C 
ATOM      8  C   UNL     1      -1.669  -0.410   1.014  0.00  0.00    -0.009 C 
ATOM      9  C   UNL     1      -2.014  -1.440  -0.064  0.00  0.00    +0.015 C 
ATOM     10  C   UNL     1      -1.632  -1.095   2.381  0.00  0.00    +0.015 C 
ENDBRANCH   1   8
BRANCH   5  11
ATOM     11  C   UNL     1       3.270  -0.959   0.319  0.00  0.00    -0.009 C 
ATOM     12  C   UNL     1       4.505  -0.112   0.006  0.00  0.00    +0.015 C 
ATOM     13  C   UNL     1       3.460  -1.661   1.665  0.00  0.00    +0.015 C 
ATOM     14  C   UNL     1       3.078  -2.006  -0.779  0.00  0.00    +0.015 C 
ENDBRANCH   5  11
BRANCH   6  15
ATOM     15  O   UNL     1       0.687  -1.956   0.864  0.00  0.00    -0.506 OA
ATOM     16  H   UNL     1       0.517  -2.465   0.059  0.00  0.00    +0.292 HD
ENDBRANCH   6  15
BRANCH   3  17
ATOM     17  C   UNL     1       1.177   3.541   0.009  0.00  0.00    +0.032 C 
ATOM     18  C   UNL     1       0.187   4.225  -0.662  0.00  0.00    +0.114 C 
BRANCH  18  19
ATOM     19  C   UNL     1       0.235   5.692  -0.748  0.00  0.00    +0.260 C 
ATOM     20  O   UNL     1       1.149   6.302  -0.225  0.00  0.00    -0.269 OA
ATOM     21  N   UNL     1      -0.733   6.361  -1.405  0.00  0.00    -0.260 N 
ATOM     22  C   UNL     1      -0.688   7.747  -1.486  0.00  0.00    +0.165 A 
ATOM     23  N   UNL     1       0.207   8.577  -0.986  0.00  0.00    -0.233 NA
ATOM     24  C   UNL     1       0.102   9.880  -1.160  0.00  0.00    +0.120 A 
ATOM     25  C   UNL     1      -0.958  10.355  -1.859  0.00  0.00    +0.068 A 
ATOM     26  S   UNL     1      -1.798   8.831  -2.264  0.00  0.00    -0.061 S 
ATOM     27  H   UNL     1      -1.461   5.874  -1.822  0.00  0.00    +0.157 HD
ENDBRANCH  18  19
BRANCH  18  28
ATOM     28  C   UNL     1      -0.888   3.506  -1.278  0.00  0.00    +0.104 C 
ATOM     29  N   UNL     1      -1.741   2.937  -1.765  0.00  0.00    -0.191 NA
ENDBRANCH  18  28
ENDBRANCH   3  17
TORSDOF 6
