REMARK  Name = ZINC64538281
REMARK  8 active torsions:
REMARK  status: ('A' for Active; 'I' for Inactive)
REMARK    1  A    between atoms: C_1  and  C_2
REMARK    2  A    between atoms: C_8  and  C_11
REMARK    3  A    between atoms: C_11  and  C_12
REMARK    4  A    between atoms: C_12  and  N_13
REMARK    5  A    between atoms: C_14  and  C_16
REMARK    6  A    between atoms: C_16  and  C_18
REMARK    7  A    between atoms: C_16  and  N_19
REMARK    8  A    between atoms: C_27  and  C_31
REMARK                            x       y       z     vdW  Elec       q    Type
REMARK                         _______ _______ _______ _____ _____    ______ ____
ROOT
ATOM      1  C   UNL     1      -2.534  -2.338   7.783  0.00  0.00    +0.164 C 
ATOM      2  C   UNL     1      -1.734  -3.510   8.356  0.00  0.00    +0.038 C 
ENDROOT
BRANCH   1   3
ATOM      3  N   UNL     1      -3.908  -2.390   8.291  0.00  0.00    -0.256 N 
ATOM      4  C   UNL     1      -4.427  -1.299   8.998  0.00  0.00    +0.058 A 
ATOM      5  C   UNL     1      -3.591  -0.304   9.478  0.00  0.00    +0.025 A 
ATOM      6  C   UNL     1      -4.125   0.768  10.170  0.00  0.00    +0.002 A 
ATOM      7  C   UNL     1      -5.488   0.853  10.385  0.00  0.00    +0.002 A 
ATOM      8  C   UNL     1      -6.330  -0.138   9.912  0.00  0.00    +0.025 A 
ATOM      9  C   UNL     1      -5.803  -1.214   9.220  0.00  0.00    +0.050 A 
ATOM     10  N   UNL     1      -6.628  -2.239   8.737  0.00  0.00    -0.325 N 
ATOM     11  C   UNL     1      -6.055  -3.589   8.628  0.00  0.00    +0.262 C 
ATOM     12  C   UNL     1      -4.660  -3.485   8.067  0.00  0.00    +0.250 C 
ATOM     13  O   UNL     1      -4.207  -4.399   7.411  0.00  0.00    -0.273 OA
ATOM     14  H   UNL     1      -7.547  -2.064   8.484  0.00  0.00    +0.147 HD
BRANCH  11  15
ATOM     15  C   UNL     1      -6.011  -4.240  10.011  0.00  0.00    +0.416 C 
ATOM     16  F   UNL     1      -7.308  -4.325  10.528  0.00  0.00    -0.168 F 
ATOM     17  F   UNL     1      -5.466  -5.524   9.905  0.00  0.00    -0.168 F 
ATOM     18  F   UNL     1      -5.218  -3.466  10.866  0.00  0.00    -0.168 F 
ENDBRANCH  11  15
ENDBRANCH   1   3
BRANCH   1  20
ATOM     19  N   UNL     1      -1.393  -2.401   5.590  0.00  0.00    -0.313 N 
ATOM     20  C   UNL     1      -2.551  -2.429   6.279  0.00  0.00    +0.234 C 
ATOM     21  O   UNL     1      -3.606  -2.527   5.689  0.00  0.00    -0.274 OA
ATOM     22  H   UNL     1      -0.549  -2.322   6.062  0.00  0.00    +0.149 HD
BRANCH  19  23
ATOM     23  C   UNL     1      -1.409  -2.489   4.128  0.00  0.00    +0.108 C 
BRANCH  23  24
ATOM     24  C   UNL     1       0.025  -2.435   3.598  0.00  0.00    +0.052 C 
BRANCH  24  32
ATOM     25  C   UNL     1       0.126   2.250   0.478  0.00  0.00    +0.044 C 
ATOM     26  C   UNL     1       0.083   0.754   0.299  0.00  0.00    -0.050 A 
ATOM     27  C   UNL     1       0.056   0.223  -0.998  0.00  0.00    +0.005 A 
ATOM     28  C   UNL     1       0.017  -1.105  -1.240  0.00  0.00    +0.026 A 
ATOM     29  C   UNL     1       0.001  -2.033  -0.163  0.00  0.00    +0.043 A 
ATOM     30  N   UNL     1      -0.035  -3.343  -0.139  0.00  0.00    -0.380 N 
ATOM     31  C   UNL     1      -0.035  -3.786   1.259  0.00  0.00    +0.144 C 
ATOM     32  C   UNL     1       0.009  -2.525   2.094  0.00  0.00    -0.040 C 
ATOM     33  C   UNL     1       0.030  -1.496   1.217  0.00  0.00    -0.001 A 
ATOM     34  C   UNL     1       0.077  -0.040   1.394  0.00  0.00    +0.013 A 
ATOM     35  H   UNL     1      -0.060  -3.922  -0.917  0.00  0.00    +0.160 HD
ENDBRANCH  24  32
ENDBRANCH  23  24
ENDBRANCH  19  23
ENDBRANCH   1  20
TORSDOF 6
