REMARK  Name = ZINC34957720
REMARK  6 active torsions:
REMARK  status: ('A' for Active; 'I' for Inactive)
REMARK    1  A    between atoms: C_1  and  C_2
REMARK    2  A    between atoms: C_4  and  S_10
REMARK    3  A    between atoms: C_6  and  N_9
REMARK    4  A    between atoms: C_7  and  C_8
REMARK    5  A    between atoms: S_10  and  N_13
REMARK    6  A    between atoms: N_13  and  C_14
REMARK                            x       y       z     vdW  Elec       q    Type
REMARK                         _______ _______ _______ _____ _____    ______ ____
ROOT
ATOM      1  S   UNL     1       0.488  -3.085  -2.025  0.00  0.00    +0.072 S 
ATOM      2  O   UNL     1      -0.025  -4.410  -1.994  0.00  0.00    -0.150 OA
ATOM      3  O   UNL     1      -0.348  -1.948  -2.191  0.00  0.00    -0.150 OA
ENDROOT
BRANCH   1   7
ATOM      4  C   UNL     1       2.239  -0.020   1.830  0.00  0.00    +0.044 C 
ATOM      5  C   UNL     1       2.141  -1.398   1.228  0.00  0.00    -0.044 A 
ATOM      6  C   UNL     1       1.456  -1.587   0.042  0.00  0.00    +0.032 A 
ATOM      7  C   UNL     1       1.363  -2.850  -0.514  0.00  0.00    +0.110 A 
ATOM      8  C   UNL     1       1.957  -3.928   0.115  0.00  0.00    +0.051 A 
ATOM      9  C   UNL     1       2.646  -3.741   1.306  0.00  0.00    +0.030 A 
ATOM     10  C   UNL     1       2.741  -2.470   1.859  0.00  0.00    -0.027 A 
ATOM     11  C   UNL     1       3.493  -2.263   3.148  0.00  0.00    +0.046 C 
BRANCH   9  12
ATOM     12  N   UNL     1       3.247  -4.829   1.944  0.00  0.00    -0.358 N 
ATOM     13  H   UNL     1       3.183  -5.715   1.555  0.00  0.00    +0.142 HD
ATOM     14  H   UNL     1       3.729  -4.697   2.776  0.00  0.00    +0.142 HD
ENDBRANCH   9  12
ENDBRANCH   1   7
BRANCH   1  15
ATOM     15  N   UNL     1       1.602  -3.037  -3.249  0.00  0.00    -0.216 N 
ATOM     16  H   UNL     1       1.744  -3.818  -3.806  0.00  0.00    +0.174 HD
BRANCH  15  17
ATOM     17  C   UNL     1       2.337  -1.872  -3.479  0.00  0.00    +0.048 A 
ATOM     18  C   UNL     1       1.736  -0.779  -4.090  0.00  0.00    +0.025 A 
ATOM     19  C   UNL     1       2.465   0.372  -4.316  0.00  0.00    +0.016 A 
ATOM     20  C   UNL     1       3.793   0.437  -3.936  0.00  0.00    +0.013 A 
ATOM     21  C   UNL     1       4.395  -0.650  -3.327  0.00  0.00    +0.016 A 
ATOM     22  C   UNL     1       3.670  -1.801  -3.092  0.00  0.00    +0.025 A 
ATOM     23  I   UNL     1       4.896   2.184  -4.282  0.00  0.00    -0.044 I 
ENDBRANCH  15  17
ENDBRANCH   1  15
TORSDOF 4
