REMARK  Name = ZINC35577992
REMARK  6 active torsions:
REMARK  status: ('A' for Active; 'I' for Inactive)
REMARK    1  A    between atoms: C_1  and  C_2
REMARK    2  A    between atoms: C_2  and  C_3
REMARK    3  A    between atoms: C_2  and  N_4
REMARK    4  A    between atoms: C_7  and  C_22
REMARK    5  A    between atoms: C_9  and  N_21
REMARK    6  A    between atoms: N_10  and  C_14
REMARK                            x       y       z     vdW  Elec       q    Type
REMARK                         _______ _______ _______ _____ _____    ______ ____
ROOT
ATOM      1  N   UNL     1      -1.221  -0.855  -0.015  0.00  0.00    -0.311 N 
ATOM      2  C   UNL     1      -2.021  -0.729  -1.137  0.00  0.00    +0.218 A 
ATOM      3  N   UNL     1      -3.283  -1.139  -1.057  0.00  0.00    -0.214 NA
ATOM      4  C   UNL     1      -4.119  -1.054  -2.086  0.00  0.00    +0.091 A 
ATOM      5  C   UNL     1      -3.636  -0.509  -3.297  0.00  0.00    +0.086 A 
ATOM      6  C   UNL     1      -4.167  -0.256  -4.556  0.00  0.00    +0.131 A 
ATOM      7  N   UNL     1      -3.189   0.288  -5.307  0.00  0.00    -0.216 N 
ATOM      8  N   UNL     1      -2.015   0.397  -4.553  0.00  0.00    -0.144 NA
ATOM      9  C   UNL     1      -2.231  -0.067  -3.341  0.00  0.00    +0.189 A 
ATOM     10  N   UNL     1      -1.492  -0.205  -2.223  0.00  0.00    -0.193 NA
ATOM     11  H   UNL     1      -1.584  -1.237   0.799  0.00  0.00    +0.149 HD
ENDROOT
BRANCH   4  12
ATOM     12  C   UNL     1      -5.518  -1.519  -1.967  0.00  0.00    +0.037 A 
ATOM     13  C   UNL     1      -6.007  -2.498  -2.833  0.00  0.00    +0.016 A 
ATOM     14  C   UNL     1      -7.311  -2.928  -2.718  0.00  0.00    +0.039 A 
ATOM     15  C   UNL     1      -8.139  -2.390  -1.744  0.00  0.00    +0.126 A 
ATOM     16  C   UNL     1      -7.662  -1.418  -0.881  0.00  0.00    +0.077 A 
ATOM     17  C   UNL     1      -6.354  -0.983  -0.983  0.00  0.00    +0.135 A 
ATOM     18  F   UNL     1      -5.886  -0.039  -0.137  0.00  0.00    -0.205 F 
ATOM     19  F   UNL     1      -9.417  -2.815  -1.638  0.00  0.00    -0.205 F 
ENDBRANCH   4  12
BRANCH   7  20
ATOM     20  C   UNL     1      -3.327   0.684  -6.642  0.00  0.00    +0.070 A 
ATOM     21  C   UNL     1      -4.150  -0.035  -7.500  0.00  0.00    +0.028 A 
ATOM     22  C   UNL     1      -4.285   0.357  -8.817  0.00  0.00    +0.005 A 
ATOM     23  C   UNL     1      -3.601   1.465  -9.284  0.00  0.00    +0.038 A 
ATOM     24  C   UNL     1      -2.780   2.185  -8.432  0.00  0.00    +0.125 A 
ATOM     25  C   UNL     1      -2.647   1.800  -7.110  0.00  0.00    +0.066 A 
ATOM     26  F   UNL     1      -2.114   3.267  -8.891  0.00  0.00    -0.205 F 
ENDBRANCH   7  20
BRANCH   1  28
ATOM     27  C   UNL     1       0.242   1.088   0.243  0.00  0.00    +0.027 C 
ATOM     28  C   UNL     1       0.174  -0.411  -0.057  0.00  0.00    +0.067 C 
ATOM     29  C   UNL     1       0.985  -1.177   0.989  0.00  0.00    +0.027 C 
ENDBRANCH   1  28
BRANCH   6  30
ATOM     30  N   UNL     1      -5.462  -0.516  -4.964  0.00  0.00    -0.342 N 
ATOM     31  H   UNL     1      -6.094  -0.917  -4.346  0.00  0.00    +0.144 HD
ATOM     32  H   UNL     1      -5.739  -0.297  -5.867  0.00  0.00    +0.144 HD
ENDBRANCH   6  30
TORSDOF 4
