REMARK  Name = ZINC41637424
REMARK  4 active torsions:
REMARK  status: ('A' for Active; 'I' for Inactive)
REMARK    1  A    between atoms: C_1  and  C_2
REMARK    2  A    between atoms: C_6  and  C_8
REMARK    3  A    between atoms: C_8  and  C_10
REMARK    4  A    between atoms: C_8  and  N_19
REMARK                            x       y       z     vdW  Elec       q    Type
REMARK                         _______ _______ _______ _____ _____    ______ ____
ROOT
ATOM      1  C   UNL     1       0.054  -2.845   2.489  0.00  0.00    +0.006 C 
ENDROOT
BRANCH   1   2
ATOM      2  C   UNL     1       1.460  -3.293   2.790  0.00  0.00    +0.050 A 
ATOM      3  C   UNL     1       2.263  -2.935   3.800  0.00  0.00    +0.282 A 
ATOM      4  N   UNL     1       3.529  -3.459   3.908  0.00  0.00    -0.170 N 
ATOM      5  C   UNL     1       3.920  -4.346   2.951  0.00  0.00    +0.199 A 
ATOM      6  S   UNL     1       2.492  -4.447   1.899  0.00  0.00    -0.050 S 
ATOM      7  N   UNL     1       5.138  -4.745   3.197  0.00  0.00    -0.208 NA
ATOM      8  C   UNL     1       5.583  -4.148   4.300  0.00  0.00    +0.246 A 
ATOM      9  N   UNL     1       4.652  -3.361   4.769  0.00  0.00    -0.150 NA
ATOM     10  O   UNL     1       1.821  -2.044   4.728  0.00  0.00    -0.265 OA
ENDBRANCH   1   2
BRANCH   1  16
ATOM     11  C   UNL     1      -0.018   1.503   0.010  0.00  0.00    +0.044 C 
ATOM     12  C   UNL     1       0.002  -0.004   0.002  0.00  0.00    -0.050 A 
ATOM     13  C   UNL     1       0.006  -0.689  -1.199  0.00  0.00    +0.003 A 
ATOM     14  C   UNL     1       0.025  -2.071  -1.207  0.00  0.00    +0.000 A 
ATOM     15  C   UNL     1       0.040  -2.768  -0.013  0.00  0.00    +0.002 A 
ATOM     16  C   UNL     1       0.037  -2.084   1.188  0.00  0.00    -0.056 A 
ATOM     17  C   UNL     1       0.023  -0.702   1.195  0.00  0.00    +0.005 A 
ENDBRANCH   1  16
BRANCH   1  18
ATOM     18  N   UNL     1      -0.822  -4.019   2.380  0.00  0.00    +0.387 N 
ATOM     19  C   UNL     1      -2.190  -3.581   2.077  0.00  0.00    -0.077 C 
ATOM     20  C   UNL     1      -3.089  -4.804   1.883  0.00  0.00    -0.019 C 
ATOM     21  C   UNL     1      -3.091  -5.638   3.167  0.00  0.00    -0.004 C 
ATOM     22  C   UNL     1      -1.651  -6.027   3.514  0.00  0.00    -0.019 C 
ATOM     23  C   UNL     1      -0.805  -4.759   3.648  0.00  0.00    -0.077 C 
ATOM     24  H   UNL     1      -0.490  -4.617   1.638  0.00  0.00    -0.080 HD
ENDBRANCH   1  18
TORSDOF 3
