REMARK  Name = ZINC41091127
REMARK  5 active torsions:
REMARK  status: ('A' for Active; 'I' for Inactive)
REMARK    1  A    between atoms: C_4  and  N_7
REMARK    2  A    between atoms: N_7  and  N_8
REMARK    3  A    between atoms: N_8  and  S_9
REMARK    4  A    between atoms: S_9  and  C_12
REMARK    5  A    between atoms: C_15  and  C_18
REMARK                            x       y       z     vdW  Elec       q    Type
REMARK                         _______ _______ _______ _____ _____    ______ ____
ROOT
ATOM      1  S   UNL     1       4.464  -2.859  -1.231  0.00  0.00    +0.073 S 
ATOM      2  O   UNL     1       4.420  -4.238  -0.888  0.00  0.00    -0.152 OA
ATOM      3  O   UNL     1       3.975  -2.367  -2.472  0.00  0.00    -0.152 OA
ENDROOT
BRANCH   1   4
ATOM      4  C   UNL     1       6.152  -2.366  -1.124  0.00  0.00    +0.107 A 
ATOM      5  C   UNL     1       6.599  -1.271  -1.838  0.00  0.00    +0.029 A 
ATOM      6  C   UNL     1       7.923  -0.884  -1.754  0.00  0.00    +0.006 A 
ATOM      7  C   UNL     1       8.801  -1.593  -0.954  0.00  0.00    -0.044 A 
ATOM      8  C   UNL     1       8.353  -2.688  -0.239  0.00  0.00    +0.006 A 
ATOM      9  C   UNL     1       7.028  -3.072  -0.320  0.00  0.00    +0.029 A 
BRANCH   7  10
ATOM     10  C   UNL     1      10.245  -1.172  -0.863  0.00  0.00    +0.019 C 
ATOM     11  C   UNL     1      11.141  -2.316  -1.340  0.00  0.00    +0.008 C 
ATOM     12  C   UNL     1      12.607  -1.889  -1.247  0.00  0.00    +0.001 C 
ATOM     13  C   UNL     1      12.947  -1.546   0.204  0.00  0.00    +0.000 C 
ATOM     14  C   UNL     1      12.051  -0.401   0.682  0.00  0.00    +0.001 C 
ATOM     15  C   UNL     1      10.585  -0.829   0.589  0.00  0.00    +0.008 C 
ENDBRANCH   7  10
ENDBRANCH   1   4
BRANCH   1  16
ATOM     16  N   UNL     1       3.640  -2.050  -0.044  0.00  0.00    -0.110 NA
ATOM     17  H   UNL     1       3.173  -2.546   0.646  0.00  0.00    +0.172 HD
BRANCH  16  18
ATOM     18  N   UNL     1       3.620  -0.649  -0.036  0.00  0.00    -0.262 N 
ATOM     19  H   UNL     1       4.452  -0.152  -0.042  0.00  0.00    +0.168 HD
BRANCH  18  23
ATOM     20  C   UNL     1      -0.017   1.379   0.010  0.00  0.00    +0.000 A 
ATOM     21  C   UNL     1       1.169   2.089   0.002  0.00  0.00    +0.002 A 
ATOM     22  C   UNL     1       2.377   1.420  -0.013  0.00  0.00    +0.024 A 
ATOM     23  C   UNL     1       2.400   0.031  -0.021  0.00  0.00    +0.043 A 
ATOM     24  C   UNL     1       1.206  -0.680  -0.013  0.00  0.00    +0.024 A 
ATOM     25  C   UNL     1       0.002  -0.004   0.002  0.00  0.00    +0.002 A 
ENDBRANCH  18  23
ENDBRANCH  16  18
ENDBRANCH   1  16
TORSDOF 5
