REMARK  Name = ZINC40316704
REMARK  13 active torsions:
REMARK  status: ('A' for Active; 'I' for Inactive)
REMARK    1  A    between atoms: C_1  and  C_2
REMARK    2  A    between atoms: C_2  and  C_3
REMARK    3  A    between atoms: C_3  and  O_4
REMARK    4  A    between atoms: O_4  and  C_5
REMARK    5  A    between atoms: C_8  and  C_11
REMARK    6  A    between atoms: C_11  and  N_12
REMARK    7  A    between atoms: N_12  and  C_13
REMARK    8  A    between atoms: N_12  and  C_26
REMARK    9  A    between atoms: C_13  and  C_14
REMARK   10  A    between atoms: C_14  and  C_16
REMARK   11  A    between atoms: C_14  and  O_25
REMARK   12  A    between atoms: C_16  and  O_17
REMARK   13  A    between atoms: O_17  and  C_18
REMARK                            x       y       z     vdW  Elec       q    Type
REMARK                         _______ _______ _______ _____ _____    ______ ____
ROOT
ATOM      1  N   UNL     1      -6.653  -4.980  -1.235  0.00  0.00    +0.387 N 
ATOM      2  H   UNL     1      -5.890  -5.460  -1.689  0.00  0.00    -0.081 HD
ENDROOT
BRANCH   1   3
ATOM      3  C   UNL     1      -6.549  -3.539  -1.497  0.00  0.00    -0.045 C 
ATOM      4  C   UNL     1      -5.076  -3.103  -1.430  0.00  0.00    +0.009 C 
ATOM      5  C   UNL     1      -4.984  -1.559  -1.385  0.00  0.00    +0.164 C 
ATOM      6  S   UNL     1      -6.570  -1.083  -0.586  0.00  0.00    -0.033 S 
ATOM      7  O   UNL     1      -7.337  -0.313  -1.502  0.00  0.00    -0.174 OA
ATOM      8  O   UNL     1      -6.298  -0.562   0.708  0.00  0.00    -0.174 OA
ATOM      9  C   UNL     1      -7.337  -2.749  -0.413  0.00  0.00    +0.151 C 
ENDBRANCH   1   3
BRANCH   1  10
ATOM     10  C   UNL     1      -6.590  -5.220   0.213  0.00  0.00    -0.042 C 
BRANCH  10  14
ATOM     11  C   UNL     1      -2.664  -4.315   1.638  0.00  0.00    +0.121 A 
ATOM     12  C   UNL     1      -3.681  -3.380   1.764  0.00  0.00    +0.046 A 
ATOM     13  C   UNL     1      -4.949  -3.675   1.302  0.00  0.00    +0.005 A 
ATOM     14  C   UNL     1      -5.205  -4.901   0.716  0.00  0.00    -0.064 A 
ATOM     15  C   UNL     1      -4.193  -5.834   0.589  0.00  0.00    +0.005 A 
ATOM     16  C   UNL     1      -2.922  -5.542   1.044  0.00  0.00    +0.046 A 
BRANCH  11  17
ATOM     17  O   UNL     1      -1.415  -4.027   2.091  0.00  0.00    -0.492 OA
BRANCH  17  18
ATOM     18  C   UNL     1      -1.222  -2.745   2.691  0.00  0.00    +0.229 C 
BRANCH  18  20
ATOM     19  C   UNL     1       0.441  -1.231   3.779  0.00  0.00    +0.007 C 
ATOM     20  C   UNL     1       0.235  -2.604   3.136  0.00  0.00    +0.038 C 
ENDBRANCH  18  20
ENDBRANCH  17  18
ENDBRANCH  11  17
ENDBRANCH  10  14
ENDBRANCH   1  10
BRANCH   1  21
ATOM     21  C   UNL     1      -7.929  -5.483  -1.759  0.00  0.00    -0.043 C 
BRANCH  21  22
ATOM     22  C   UNL     1      -7.841  -5.611  -3.281  0.00  0.00    +0.135 C 
BRANCH  22  23
ATOM     23  O   UNL     1      -7.749  -4.309  -3.864  0.00  0.00    -0.390 OA
ATOM     24  H   UNL     1      -8.481  -3.721  -3.630  0.00  0.00    +0.210 HD
ENDBRANCH  22  23
BRANCH  22  25
ATOM     25  C   UNL     1      -9.091  -6.319  -3.808  0.00  0.00    +0.258 C 
BRANCH  25  26
ATOM     26  O   UNL     1      -8.956  -6.542  -5.213  0.00  0.00    -0.489 OA
BRANCH  26  27
ATOM     27  C   UNL     1      -9.988  -7.166  -5.840  0.00  0.00    +0.121 A 
ATOM     28  C   UNL     1     -11.109  -7.549  -5.119  0.00  0.00    +0.047 A 
ATOM     29  C   UNL     1     -12.157  -8.183  -5.759  0.00  0.00    +0.019 A 
ATOM     30  C   UNL     1     -12.088  -8.435  -7.117  0.00  0.00    +0.018 A 
ATOM     31  C   UNL     1     -10.970  -8.054  -7.838  0.00  0.00    +0.019 A 
ATOM     32  C   UNL     1      -9.923  -7.414  -7.203  0.00  0.00    +0.047 A 
ATOM     33 BR   UNL     1     -13.523  -9.303  -7.990  0.00  0.00    -0.050 Br
ENDBRANCH  26  27
ENDBRANCH  25  26
ENDBRANCH  22  25
ENDBRANCH  21  22
ENDBRANCH   1  21
TORSDOF 12
