REMARK  Name = ZINC18282623
REMARK  6 active torsions:
REMARK  status: ('A' for Active; 'I' for Inactive)
REMARK    1  A    between atoms: C_1  and  N_2
REMARK    2  A    between atoms: C_4  and  C_11
REMARK    3  A    between atoms: N_13  and  N_14
REMARK    4  A    between atoms: C_15  and  C_17
REMARK    5  A    between atoms: C_17  and  C_18
REMARK    6  A    between atoms: C_27  and  O_30
REMARK                            x       y       z     vdW  Elec       q    Type
REMARK                         _______ _______ _______ _____ _____    ______ ____
ROOT
ATOM      1  N   UNL     1       0.040  -4.135  -3.890  0.00  0.00    -0.234 N 
ATOM      2  C   UNL     1       0.032  -3.935  -5.223  0.00  0.00    +0.230 C 
ATOM      3  O   UNL     1       0.015  -2.806  -5.667  0.00  0.00    -0.274 OA
ATOM      4  H   UNL     1       0.054  -5.037  -3.535  0.00  0.00    +0.173 HD
ENDROOT
BRANCH   1   7
ATOM      5  C   UNL     1       0.038  -3.239  -1.684  0.00  0.00    +0.262 C 
ATOM      6  O   UNL     1       0.055  -4.371  -1.239  0.00  0.00    -0.269 OA
ATOM      7  N   UNL     1       0.030  -3.039  -3.017  0.00  0.00    -0.230 N 
ATOM      8  H   UNL     1       0.016  -2.136  -3.372  0.00  0.00    +0.173 HD
BRANCH   5  12
ATOM      9  C   UNL     1      -0.018   1.461   0.010  0.00  0.00    +0.149 C 
ATOM     10  N   UNL     1       0.002  -0.004   0.002  0.00  0.00    -0.349 N 
ATOM     11  C   UNL     1       0.008  -0.771  -1.115  0.00  0.00    +0.099 A 
ATOM     12  C   UNL     1       0.027  -2.090  -0.769  0.00  0.00    +0.063 A 
ATOM     13  C   UNL     1       0.034  -2.135   0.705  0.00  0.00    +0.012 A 
ATOM     14  C   UNL     1       0.024  -0.797   1.131  0.00  0.00    +0.050 A 
ATOM     15  C   UNL     1       0.033  -0.515   2.493  0.00  0.00    +0.026 A 
ATOM     16  C   UNL     1       0.055  -1.545   3.408  0.00  0.00    +0.002 A 
ATOM     17  C   UNL     1       0.070  -2.866   2.986  0.00  0.00    +0.001 A 
ATOM     18  C   UNL     1       0.051  -3.166   1.641  0.00  0.00    +0.011 A 
ENDBRANCH   5  12
ENDBRANCH   1   7
BRANCH   2  19
ATOM     19  C   UNL     1       0.043  -5.113  -6.162  0.00  0.00    +0.104 C 
BRANCH  19  20
ATOM     20  C   UNL     1       0.030  -4.614  -7.608  0.00  0.00    -0.018 C 
ATOM     21  C   UNL     1      -1.232  -3.782  -7.848  0.00  0.00    +0.011 C 
ATOM     22  C   UNL     1      -1.245  -3.282  -9.295  0.00  0.00    -0.007 C 
ATOM     23  C   UNL     1      -0.008  -2.417  -9.546  0.00  0.00    +0.007 C 
ATOM     24  C   UNL     1       1.254  -3.249  -9.306  0.00  0.00    -0.007 C 
ATOM     25  C   UNL     1       1.267  -3.749  -7.860  0.00  0.00    +0.011 C 
ATOM     26  C   UNL     1       1.265  -4.446 -10.259  0.00  0.00    +0.038 C 
ATOM     27  C   UNL     1       0.028  -5.311 -10.007  0.00  0.00    +0.067 C 
ATOM     28  C   UNL     1      -1.233  -4.479 -10.248  0.00  0.00    +0.038 C 
ATOM     29  C   UNL     1       0.041  -5.810  -8.561  0.00  0.00    +0.042 C 
BRANCH  27  30
ATOM     30  O   UNL     1       0.039  -6.428 -10.897  0.00  0.00    -0.389 OA
ATOM     31  H   UNL     1       0.032  -6.186 -11.833  0.00  0.00    +0.210 HD
ENDBRANCH  27  30
ENDBRANCH  19  20
ENDBRANCH   2  19
TORSDOF 5
