REMARK  Name = ZINC39596361
REMARK  12 active torsions:
REMARK  status: ('A' for Active; 'I' for Inactive)
REMARK    1  A    between atoms: C_1  and  C_2
REMARK    2  A    between atoms: C_2  and  C_3
REMARK    3  A    between atoms: C_3  and  C_4
REMARK    4  A    between atoms: C_4  and  C_5
REMARK    5  A    between atoms: C_5  and  C_7
REMARK    6  A    between atoms: C_5  and  C_8
REMARK    7  A    between atoms: C_12  and  C_21
REMARK    8  A    between atoms: N_23  and  C_24
REMARK    9  A    between atoms: C_24  and  C_25
REMARK   10  A    between atoms: C_25  and  C_27
REMARK   11  A    between atoms: C_25  and  O_28
REMARK   12  A    between atoms: O_28  and  C_29
REMARK                            x       y       z     vdW  Elec       q    Type
REMARK                         _______ _______ _______ _____ _____    ______ ____
ROOT
ATOM      1  C   UNL     1      -2.832  -4.042  -0.104  0.00  0.00    +0.218 C 
ATOM      2  O   UNL     1      -1.772  -4.622  -0.204  0.00  0.00    -0.275 OA
ATOM      3  N   UNL     1      -3.986  -4.738  -0.125  0.00  0.00    -0.300 N 
ATOM      4  C   UNL     1      -5.367  -4.210  -0.023  0.00  0.00    +0.121 C 
ATOM      5  C   UNL     1      -6.184  -5.058  -1.023  0.00  0.00    +0.100 C 
ATOM      6  C   UNL     1      -5.389  -6.366  -1.170  0.00  0.00    -0.004 C 
ATOM      7  C   UNL     1      -4.161  -6.204  -0.262  0.00  0.00    +0.115 C 
ATOM      8  C   UNL     1      -6.232  -7.552  -0.713  0.00  0.00    -0.010 C 
ATOM      9  C   UNL     1      -5.442  -8.846  -0.923  0.00  0.00    -0.082 C 
ATOM     10  N   UNL     1      -5.095  -8.985  -2.342  0.00  0.00    +0.379 N 
ATOM     11  C   UNL     1      -4.207  -7.890  -2.750  0.00  0.00    -0.082 C 
ATOM     12  C   UNL     1      -4.945  -6.555  -2.618  0.00  0.00    -0.010 C 
ATOM     13  H   UNL     1      -4.627  -9.867  -2.488  0.00  0.00    -0.086 HD
ATOM     14  H   UNL     1      -5.937  -8.958  -2.897  0.00  0.00    -0.086 HD
ENDROOT
BRANCH   5  15
ATOM     15  C   UNL     1      -7.560  -5.336  -0.474  0.00  0.00    +0.218 C 
ATOM     16  O   UNL     1      -7.715  -5.498   0.717  0.00  0.00    -0.275 OA
ATOM     17  N   UNL     1      -8.617  -5.405  -1.308  0.00  0.00    -0.312 N 
ATOM     18  H   UNL     1      -8.492  -5.276  -2.261  0.00  0.00    +0.149 HD
BRANCH  17  19
ATOM     19  C   UNL     1      -9.954  -5.676  -0.774  0.00  0.00    +0.148 C 
BRANCH  19  20
ATOM     20  C   UNL     1     -10.965  -5.702  -1.922  0.00  0.00    +0.187 C 
ATOM     21  C   UNL     1     -12.362  -5.985  -1.364  0.00  0.00    +0.053 C 
BRANCH  20  22
ATOM     22  O   UNL     1     -10.965  -4.437  -2.586  0.00  0.00    -0.488 OA
BRANCH  22  23
ATOM     23  C   UNL     1     -11.371  -4.420  -3.883  0.00  0.00    +0.121 A 
ATOM     24  C   UNL     1     -11.281  -3.251  -4.624  0.00  0.00    +0.048 A 
ATOM     25  C   UNL     1     -11.694  -3.236  -5.942  0.00  0.00    +0.042 A 
ATOM     26  C   UNL     1     -12.198  -4.387  -6.524  0.00  0.00    +0.124 A 
ATOM     27  C   UNL     1     -12.289  -5.555  -5.785  0.00  0.00    +0.042 A 
ATOM     28  C   UNL     1     -11.870  -5.574  -4.469  0.00  0.00    +0.048 A 
ATOM     29  F   UNL     1     -12.602  -4.371  -7.813  0.00  0.00    -0.205 F 
ENDBRANCH  22  23
ENDBRANCH  20  22
ENDBRANCH  19  20
ENDBRANCH  17  19
ENDBRANCH   5  15
BRANCH   1  30
ATOM     30  C   UNL     1      -2.859  -2.542   0.044  0.00  0.00    +0.072 C 
ATOM     31  C   UNL     1      -3.538  -2.172   1.365  0.00  0.00    +0.017 C 
BRANCH  30  32
ATOM     32  C   UNL     1      -1.427  -2.004   0.039  0.00  0.00    +0.012 C 
BRANCH  32  33
ATOM     33  C   UNL     1      -1.457  -0.474   0.064  0.00  0.00    +0.000 C 
BRANCH  33  35
ATOM     34  C   UNL     1      -0.056   1.594   0.083  0.00  0.00    +0.004 C 
ATOM     35  C   UNL     1      -0.025   0.065   0.058  0.00  0.00    -0.003 C 
ENDBRANCH  33  35
ENDBRANCH  32  33
ENDBRANCH  30  32
ENDBRANCH   1  30
TORSDOF 9
