REMARK  Name = ZINC64870796
REMARK  8 active torsions:
REMARK  status: ('A' for Active; 'I' for Inactive)
REMARK    1  A    between atoms: C_1  and  C_2
REMARK    2  A    between atoms: C_2  and  C_3
REMARK    3  A    between atoms: C_6  and  C_9
REMARK    4  A    between atoms: C_12  and  C_16
REMARK    5  A    between atoms: N_26  and  C_29
REMARK    6  A    between atoms: C_29  and  C_30
REMARK    7  A    between atoms: C_30  and  C_31
REMARK    8  A    between atoms: C_31  and  C_32
REMARK                            x       y       z     vdW  Elec       q    Type
REMARK                         _______ _______ _______ _____ _____    ______ ____
ROOT
ATOM      1  C   UNL     1       4.734  -4.862  -5.252  0.00  0.00    -0.000 A 
ATOM      2  C   UNL     1       4.579  -5.409  -3.987  0.00  0.00    +0.008 A 
ATOM      3  C   UNL     1       5.219  -6.583  -3.651  0.00  0.00    +0.016 A 
ATOM      4  C   UNL     1       6.024  -7.220  -4.593  0.00  0.00    +0.063 A 
ATOM      5  C   UNL     1       6.181  -6.665  -5.875  0.00  0.00    +0.056 A 
ATOM      6  C   UNL     1       5.525  -5.486  -6.196  0.00  0.00    +0.034 A 
ATOM      7  N   UNL     1       6.989  -7.321  -6.792  0.00  0.00    -0.307 N 
ATOM      8  H   UNL     1       7.106  -6.950  -7.680  0.00  0.00    +0.170 HD
ATOM      9  C   UNL     1       7.610  -8.466  -6.461  0.00  0.00    +0.330 A 
ATOM     10  O   UNL     1       8.310  -9.009  -7.294  0.00  0.00    -0.246 OA
ATOM     11  N   UNL     1       7.492  -9.034  -5.251  0.00  0.00    -0.261 N 
ATOM     12  C   UNL     1       6.730  -8.477  -4.286  0.00  0.00    +0.264 A 
ATOM     13  O   UNL     1       6.628  -8.998  -3.192  0.00  0.00    -0.267 OA
ENDROOT
BRANCH   1  16
ATOM     14  C   UNL     1       2.707  -1.868  -4.752  0.00  0.00    +0.180 C 
ATOM     15  N   UNL     1       3.863  -2.732  -4.391  0.00  0.00    -0.265 NA
ATOM     16  C   UNL     1       4.027  -3.578  -5.602  0.00  0.00    +0.242 C 
ATOM     17  O   UNL     1       2.686  -3.847  -6.048  0.00  0.00    -0.274 OA
ATOM     18  N   UNL     1       1.826  -2.768  -5.534  0.00  0.00    -0.177 NA
ATOM     19  H   UNL     1       4.689  -2.178  -4.223  0.00  0.00    +0.127 HD
ATOM     20  H   UNL     1       1.086  -3.139  -4.957  0.00  0.00    +0.156 HD
BRANCH  14  24
ATOM     21  C   UNL     1       0.707  -0.490  -1.238  0.00  0.00    -0.048 A 
ATOM     22  C   UNL     1      -0.011  -0.719  -2.397  0.00  0.00    +0.004 A 
ATOM     23  C   UNL     1       0.636  -1.164  -3.534  0.00  0.00    +0.007 A 
ATOM     24  C   UNL     1       2.002  -1.381  -3.513  0.00  0.00    -0.014 A 
ATOM     25  C   UNL     1       2.720  -1.152  -2.354  0.00  0.00    +0.007 A 
ATOM     26  C   UNL     1       2.073  -0.702  -1.218  0.00  0.00    +0.004 A 
BRANCH  21  28
ATOM     27  C   UNL     1      -0.019   1.526   0.010  0.00  0.00    +0.009 C 
ATOM     28  C   UNL     1       0.002  -0.004   0.002  0.00  0.00    +0.032 C 
ENDBRANCH  21  28
ENDBRANCH  14  24
ENDBRANCH   1  16
BRANCH  11  29
ATOM     29  C   UNL     1       8.204 -10.284  -4.972  0.00  0.00    +0.130 C 
BRANCH  29  30
ATOM     30  C   UNL     1       9.591  -9.966  -4.410  0.00  0.00    +0.026 C 
BRANCH  30  31
ATOM     31  C   UNL     1      10.335 -11.271  -4.119  0.00  0.00    +0.037 C 
BRANCH  31  32
ATOM     32  C   UNL     1      11.701 -10.958  -3.565  0.00  0.00    -0.047 A 
ATOM     33  C   UNL     1      12.775 -10.801  -4.422  0.00  0.00    +0.003 A 
ATOM     34  C   UNL     1      14.028 -10.514  -3.914  0.00  0.00    +0.000 A 
ATOM     35  C   UNL     1      14.207 -10.383  -2.550  0.00  0.00    +0.000 A 
ATOM     36  C   UNL     1      13.134 -10.539  -1.693  0.00  0.00    +0.000 A 
ATOM     37  C   UNL     1      11.880 -10.822  -2.201  0.00  0.00    +0.003 A 
ENDBRANCH  31  32
ENDBRANCH  30  31
ENDBRANCH  29  30
ENDBRANCH  11  29
TORSDOF 7
