REMARK  Name = ZINC00832394
REMARK  12 active torsions:
REMARK  status: ('A' for Active; 'I' for Inactive)
REMARK    1  A    between atoms: C_1  and  C_2
REMARK    2  A    between atoms: C_2  and  O_3
REMARK    3  A    between atoms: O_3  and  C_4
REMARK    4  A    between atoms: C_4  and  C_6
REMARK    5  A    between atoms: C_7  and  C_35
REMARK    6  A    between atoms: C_14  and  C_15
REMARK    7  A    between atoms: C_19  and  O_21
REMARK    8  A    between atoms: C_23  and  C_25
REMARK    9  A    between atoms: C_28  and  O_33
REMARK   10  A    between atoms: C_29  and  O_31
REMARK   11  A    between atoms: O_31  and  C_32
REMARK   12  A    between atoms: O_33  and  C_34
REMARK                            x       y       z     vdW  Elec       q    Type
REMARK                         _______ _______ _______ _____ _____    ______ ____
ROOT
ATOM      1  C   UNL     1       6.503  -0.437  -0.909  0.00  0.00    +0.085 C 
ATOM      2  C   UNL     1       7.847  -0.192  -0.873  0.00  0.00    +0.053 C 
ATOM      3  N   UNL     1       8.370   0.557   0.089  0.00  0.00    -0.228 NA
ATOM      4  C   UNL     1       7.688   1.114   1.058  0.00  0.00    +0.178 A 
ATOM      5  N   UNL     1       6.326   0.995   1.208  0.00  0.00    -0.275 N 
ATOM      6  C   UNL     1       5.736   1.611   2.240  0.00  0.00    +0.268 A 
ATOM      7  O   UNL     1       4.534   1.534   2.414  0.00  0.00    -0.266 OA
ATOM      8  C   UNL     1       6.587   2.385   3.159  0.00  0.00    +0.081 A 
ATOM      9  C   UNL     1       6.242   3.091   4.265  0.00  0.00    +0.028 C 
ATOM     10  S   UNL     1       8.196   2.140   2.423  0.00  0.00    -0.046 S 
ATOM     11  C   UNL     1       5.640   0.169   0.174  0.00  0.00    +0.162 C 
ATOM     12  C   UNL     1       8.741  -0.778  -1.934  0.00  0.00    +0.066 C 
ENDROOT
BRANCH   9  13
ATOM     13  C   UNL     1       7.287   3.628   5.149  0.00  0.00    -0.020 A 
ATOM     14  C   UNL     1       6.946   4.496   6.193  0.00  0.00    +0.008 A 
ATOM     15  C   UNL     1       7.929   4.996   7.019  0.00  0.00    +0.004 A 
ATOM     16  C   UNL     1       9.252   4.643   6.822  0.00  0.00    +0.045 A 
ATOM     17  C   UNL     1       9.601   3.782   5.790  0.00  0.00    +0.117 A 
ATOM     18  C   UNL     1       8.624   3.269   4.955  0.00  0.00    +0.053 A 
BRANCH  17  19
ATOM     19  O   UNL     1      10.903   3.440   5.602  0.00  0.00    -0.507 OA
ATOM     20  H   UNL     1      11.176   2.650   6.088  0.00  0.00    +0.292 HD
ENDBRANCH  17  19
ENDBRANCH   9  13
BRANCH  11  21
ATOM     21  C   UNL     1       4.598   1.031  -0.491  0.00  0.00    -0.016 A 
ATOM     22  C   UNL     1       3.332   0.527  -0.724  0.00  0.00    +0.010 A 
ATOM     23  C   UNL     1       2.373   1.314  -1.334  0.00  0.00    +0.050 A 
ATOM     24  C   UNL     1       2.678   2.612  -1.709  0.00  0.00    +0.162 A 
ATOM     25  C   UNL     1       3.954   3.118  -1.480  0.00  0.00    +0.162 A 
ATOM     26  C   UNL     1       4.911   2.324  -0.868  0.00  0.00    +0.055 A 
BRANCH  25  27
ATOM     27  O   UNL     1       4.260   4.390  -1.851  0.00  0.00    -0.491 OA
ATOM     28  C   UNL     1       5.602   4.827  -1.625  0.00  0.00    +0.277 C 
ENDBRANCH  25  27
BRANCH  24  29
ATOM     29  O   UNL     1       1.734   3.389  -2.305  0.00  0.00    -0.491 OA
ATOM     30  C   UNL     1       0.447   2.804  -2.508  0.00  0.00    +0.277 C 
ENDBRANCH  24  29
ENDBRANCH  11  21
BRANCH   1  31
ATOM     31  C   UNL     1       5.939  -1.229  -1.923  0.00  0.00    +0.339 C 
ATOM     32  O   UNL     1       6.645  -1.675  -2.810  0.00  0.00    -0.245 OA
BRANCH  31  33
ATOM     33  O   UNL     1       4.615  -1.497  -1.913  0.00  0.00    -0.462 OA
BRANCH  33  35
ATOM     34  C   UNL     1       2.602  -2.484  -2.815  0.00  0.00    +0.048 C 
ATOM     35  C   UNL     1       4.125  -2.377  -2.926  0.00  0.00    +0.229 C 
ENDBRANCH  33  35
ENDBRANCH  31  33
ENDBRANCH   1  31
TORSDOF 8
