REMARK  Name = ZINC39666406
REMARK  7 active torsions:
REMARK  status: ('A' for Active; 'I' for Inactive)
REMARK    1  A    between atoms: C_1  and  C_2
REMARK    2  A    between atoms: C_2  and  C_4
REMARK    3  A    between atoms: C_2  and  O_29
REMARK    4  A    between atoms: C_4  and  N_5
REMARK    5  A    between atoms: C_6  and  C_8
REMARK    6  A    between atoms: C_19  and  C_21
REMARK    7  A    between atoms: O_29  and  C_30
REMARK                            x       y       z     vdW  Elec       q    Type
REMARK                         _______ _______ _______ _____ _____    ______ ____
ROOT
ATOM      1  C   UNL     1      -2.274  -4.639  -0.374  0.00  0.00    +0.100 C 
ATOM      2  C   UNL     1      -1.678  -4.921  -1.771  0.00  0.00    +0.121 C 
ATOM      3  N   UNL     1      -2.458  -6.071  -2.286  0.00  0.00    -0.296 N 
ATOM      4  C   UNL     1      -3.848  -5.800  -1.847  0.00  0.00    +0.115 C 
ATOM      5  C   UNL     1      -3.699  -5.216  -0.428  0.00  0.00    -0.004 C 
ATOM      6  C   UNL     1      -4.726  -4.111  -0.202  0.00  0.00    -0.010 C 
ATOM      7  C   UNL     1      -6.131  -4.719  -0.202  0.00  0.00    -0.082 C 
ATOM      8  N   UNL     1      -6.229  -5.730   0.857  0.00  0.00    +0.379 N 
ATOM      9  C   UNL     1      -5.303  -6.835   0.582  0.00  0.00    -0.082 C 
ATOM     10  C   UNL     1      -3.863  -6.317   0.615  0.00  0.00    -0.010 C 
ATOM     11  C   UNL     1      -2.006  -7.126  -2.992  0.00  0.00    +0.249 C 
ATOM     12  O   UNL     1      -0.814  -7.252  -3.201  0.00  0.00    -0.270 OA
ATOM     13  H   UNL     1      -5.995  -5.310   1.744  0.00  0.00    -0.086 HD
ATOM     14  H   UNL     1      -7.173  -6.085   0.895  0.00  0.00    -0.086 HD
ENDROOT
BRANCH  11  15
ATOM     15  C   UNL     1      -2.956  -8.127  -3.513  0.00  0.00    +0.072 A 
ATOM     16  C   UNL     1      -4.227  -7.733  -3.939  0.00  0.00    +0.019 A 
ATOM     17  C   UNL     1      -5.111  -8.672  -4.424  0.00  0.00    +0.039 A 
ATOM     18  C   UNL     1      -4.742 -10.008  -4.491  0.00  0.00    +0.126 A 
ATOM     19  C   UNL     1      -3.484 -10.408  -4.071  0.00  0.00    +0.077 A 
ATOM     20  C   UNL     1      -2.586  -9.475  -3.587  0.00  0.00    +0.138 A 
ATOM     21  F   UNL     1      -1.357  -9.863  -3.183  0.00  0.00    -0.205 F 
ATOM     22  F   UNL     1      -5.614 -10.924  -4.967  0.00  0.00    -0.205 F 
ENDBRANCH  11  15
BRANCH   1  24
ATOM     23  N   UNL     1      -2.230  -2.691   1.150  0.00  0.00    -0.312 N 
ATOM     24  C   UNL     1      -2.319  -3.155  -0.112  0.00  0.00    +0.218 C 
ATOM     25  O   UNL     1      -2.435  -2.380  -1.037  0.00  0.00    -0.275 OA
ATOM     26  H   UNL     1      -2.137  -3.311   1.890  0.00  0.00    +0.149 HD
BRANCH  23  27
ATOM     27  C   UNL     1      -2.273  -1.249   1.405  0.00  0.00    +0.148 C 
BRANCH  27  29
ATOM     28  C   UNL     1      -2.200   0.514   3.174  0.00  0.00    +0.053 C 
ATOM     29  C   UNL     1      -2.154  -0.992   2.908  0.00  0.00    +0.187 C 
BRANCH  29  30
ATOM     30  O   UNL     1      -3.238  -1.629   3.587  0.00  0.00    -0.486 OA
BRANCH  30  31
ATOM     31  C   UNL     1      -3.041  -1.958   4.891  0.00  0.00    +0.139 A 
ATOM     32  C   UNL     1      -1.876  -1.573   5.537  0.00  0.00    +0.047 A 
ATOM     33  C   UNL     1      -1.678  -1.908   6.862  0.00  0.00    +0.004 A 
ATOM     34  C   UNL     1      -2.640  -2.629   7.546  0.00  0.00    +0.002 A 
ATOM     35  C   UNL     1      -3.803  -3.016   6.905  0.00  0.00    +0.023 A 
ATOM     36  C   UNL     1      -4.008  -2.677   5.581  0.00  0.00    +0.083 A 
ATOM     37 CL   UNL     1      -5.471  -3.156   4.778  0.00  0.00    -0.080 Cl
ENDBRANCH  30  31
ENDBRANCH  29  30
ENDBRANCH  27  29
ENDBRANCH  23  27
ENDBRANCH   1  24
TORSDOF 6
