REMARK  Name = ZINC08871935
REMARK  6 active torsions:
REMARK  status: ('A' for Active; 'I' for Inactive)
REMARK    1  A    between atoms: C_4  and  S_7
REMARK    2  A    between atoms: S_7  and  N_10
REMARK    3  A    between atoms: N_10  and  C_11
REMARK    4  A    between atoms: C_18  and  N_29
REMARK    5  A    between atoms: N_29  and  S_30
REMARK    6  A    between atoms: S_30  and  C_33
REMARK                            x       y       z     vdW  Elec       q    Type
REMARK                         _______ _______ _______ _____ _____    ______ ____
ROOT
ATOM      1  C   UNL     1       3.372  -0.411   1.799  0.00  0.00    +0.060 A 
ATOM      2  C   UNL     1       3.065  -1.173   2.954  0.00  0.00    +0.007 A 
ATOM      3  C   UNL     1       4.036  -1.401   3.942  0.00  0.00    +0.010 A 
ATOM      4  C   UNL     1       3.716  -2.134   5.045  0.00  0.00    +0.001 A 
ATOM      5  C   UNL     1       2.437  -2.662   5.207  0.00  0.00    +0.001 A 
ATOM      6  C   UNL     1       1.471  -2.461   4.269  0.00  0.00    +0.010 A 
ATOM      7  C   UNL     1       1.765  -1.711   3.119  0.00  0.00    +0.007 A 
ATOM      8  C   UNL     1       0.778  -1.489   2.127  0.00  0.00    +0.060 A 
ATOM      9  C   UNL     1       1.110  -0.754   1.032  0.00  0.00    -0.012 A 
ATOM     10  C   UNL     1       2.399  -0.217   0.869  0.00  0.00    -0.012 A 
ATOM     11  C   UNL     1       2.565   0.574  -0.416  0.00  0.00    +0.044 C 
ATOM     12  C   UNL     1       1.511   1.697  -0.373  0.00  0.00    +0.013 C 
ATOM     13  C   UNL     1       0.110   1.112  -0.198  0.00  0.00    +0.013 C 
ATOM     14  C   UNL     1       0.171  -0.425  -0.116  0.00  0.00    +0.044 C 
ATOM     15  C   UNL     1       0.900  -0.879  -1.381  0.00  0.00    -0.022 C 
ATOM     16  C   UNL     1       2.119  -0.371  -1.535  0.00  0.00    -0.022 C 
ENDROOT
BRANCH   1  17
ATOM     17  N   UNL     1       4.649   0.129   1.619  0.00  0.00    -0.215 N 
ATOM     18  H   UNL     1       5.501  -0.532   1.403  0.00  0.00    +0.174 HD
BRANCH  17  19
ATOM     19  S   UNL     1       4.878   1.765   1.731  0.00  0.00    +0.072 S 
ATOM     20  O   UNL     1       6.262   1.997   1.506  0.00  0.00    -0.150 OA
ATOM     21  O   UNL     1       3.866   2.372   0.940  0.00  0.00    -0.150 OA
BRANCH  19  25
ATOM     22  C   UNL     1       4.049   2.944   6.022  0.00  0.00    +0.000 A 
ATOM     23  C   UNL     1       5.344   2.681   5.615  0.00  0.00    +0.002 A 
ATOM     24  C   UNL     1       5.597   2.321   4.305  0.00  0.00    +0.029 A 
ATOM     25  C   UNL     1       4.556   2.224   3.401  0.00  0.00    +0.108 A 
ATOM     26  C   UNL     1       3.261   2.492   3.806  0.00  0.00    +0.029 A 
ATOM     27  C   UNL     1       3.008   2.848   5.118  0.00  0.00    +0.002 A 
ENDBRANCH  19  25
ENDBRANCH  17  19
ENDBRANCH   1  17
BRANCH   8  28
ATOM     28  N   UNL     1      -0.509  -2.014   2.271  0.00  0.00    -0.215 N 
ATOM     29  H   UNL     1      -0.856  -2.813   1.598  0.00  0.00    +0.174 HD
BRANCH  28  30
ATOM     30  S   UNL     1      -1.513  -1.434   3.453  0.00  0.00    +0.072 S 
ATOM     31  O   UNL     1      -2.727  -2.165   3.351  0.00  0.00    -0.150 OA
ATOM     32  O   UNL     1      -0.748  -1.392   4.650  0.00  0.00    -0.150 OA
BRANCH  30  33
ATOM     33  C   UNL     1      -1.894   0.236   3.040  0.00  0.00    +0.108 A 
ATOM     34  C   UNL     1      -1.050   1.256   3.437  0.00  0.00    +0.029 A 
ATOM     35  C   UNL     1      -1.346   2.566   3.108  0.00  0.00    +0.002 A 
ATOM     36  C   UNL     1      -2.493   2.856   2.393  0.00  0.00    +0.000 A 
ATOM     37  C   UNL     1      -3.340   1.837   2.001  0.00  0.00    +0.002 A 
ATOM     38  C   UNL     1      -3.041   0.526   2.325  0.00  0.00    +0.029 A 
ENDBRANCH  30  33
ENDBRANCH  28  30
ENDBRANCH   8  28
TORSDOF 6
