REMARK  Name = ZINC11737478
REMARK  9 active torsions:
REMARK  status: ('A' for Active; 'I' for Inactive)
REMARK    1  A    between atoms: C_1  and  N_2
REMARK    2  A    between atoms: N_2  and  C_3
REMARK    3  A    between atoms: N_2  and  C_4
REMARK    4  A    between atoms: C_7  and  C_10
REMARK    5  A    between atoms: C_10  and  C_12
REMARK    6  A    between atoms: C_10  and  N_45
REMARK    7  A    between atoms: C_14  and  C_17
REMARK    8  A    between atoms: C_20  and  O_23
REMARK    9  A    between atoms: O_23  and  C_24
REMARK                            x       y       z     vdW  Elec       q    Type
REMARK                         _______ _______ _______ _____ _____    ______ ____
ROOT
ATOM      1  C   UNL     1      -2.513   0.976   0.019  0.00  0.00    +0.013 C 
ENDROOT
BRANCH   1   5
ATOM      2  C   UNL     1       1.155   3.171   0.008  0.00  0.00    +0.029 A 
ATOM      3  C   UNL     1       1.174   1.782   0.000  0.00  0.00    +0.023 A 
ATOM      4  C   UNL     1      -0.013   1.076   0.008  0.00  0.00    +0.004 A 
ATOM      5  C   UNL     1      -1.220   1.750   0.017  0.00  0.00    -0.056 A 
ATOM      6  C   UNL     1      -1.243   3.133   0.031  0.00  0.00    +0.004 A 
ATOM      7  C   UNL     1      -0.060   3.845   0.023  0.00  0.00    +0.023 A 
BRANCH   2   9
ATOM      8  C   UNL     1       3.633   3.175  -0.017  0.00  0.00    +0.129 C 
ATOM      9  N   UNL     1       2.353   3.888   0.000  0.00  0.00    -0.336 N 
ATOM     10  C   UNL     1       2.330   5.353   0.008  0.00  0.00    +0.129 C 
ENDBRANCH   2   9
ENDBRANCH   1   5
BRANCH   1  11
ATOM     11  C   UNL     1      -3.077   0.938  -1.378  0.00  0.00    +0.069 A 
ATOM     12  N   UNL     1      -3.092  -0.057  -2.231  0.00  0.00    -0.245 NA
ATOM     13  C   UNL     1      -3.632   0.070  -3.433  0.00  0.00    +0.078 A 
ATOM     14  C   UNL     1      -4.179   1.280  -3.764  0.00  0.00    +0.075 A 
ATOM     15  S   UNL     1      -3.878   2.200  -2.262  0.00  0.00    -0.081 S 
BRANCH  13  16
ATOM     16  C   UNL     1      -3.644  -1.063  -4.390  0.00  0.00    +0.001 A 
ATOM     17  C   UNL     1      -3.171  -2.314  -3.997  0.00  0.00    +0.013 A 
ATOM     18  C   UNL     1      -3.188  -3.367  -4.888  0.00  0.00    +0.046 A 
ATOM     19  C   UNL     1      -3.667  -3.179  -6.178  0.00  0.00    +0.120 A 
ATOM     20  C   UNL     1      -4.133  -1.934  -6.573  0.00  0.00    +0.046 A 
ATOM     21  C   UNL     1      -4.123  -0.878  -5.686  0.00  0.00    +0.013 A 
BRANCH  19  22
ATOM     22  O   UNL     1      -3.678  -4.218  -7.055  0.00  0.00    -0.495 OA
ATOM     23  C   UNL     1      -3.183  -5.472  -6.581  0.00  0.00    +0.277 C 
ENDBRANCH  19  22
ENDBRANCH  13  16
ENDBRANCH   1  11
BRANCH   1  26
ATOM     24  H   UNL     1      -3.663   2.575   0.619  0.00  0.00    -0.089 HD
ATOM     25  H   UNL     1      -4.327   1.095   0.986  0.00  0.00    -0.089 HD
ATOM     26  N   UNL     1      -3.461   1.630   0.939  0.00  0.00    +0.387 N 
ATOM     27  H   UNL     1      -3.044   1.675   1.876  0.00  0.00    -0.089 HD
ENDBRANCH   1  26
TORSDOF 6
