REMARK  Name = ZINC08961923
REMARK  5 active torsions:
REMARK  status: ('A' for Active; 'I' for Inactive)
REMARK    1  A    between atoms: C_1  and  C_2
REMARK    2  A    between atoms: C_6  and  S_8
REMARK    3  A    between atoms: S_8  and  N_11
REMARK    4  A    between atoms: N_11  and  C_12
REMARK    5  A    between atoms: C_22  and  C_25
REMARK                            x       y       z     vdW  Elec       q    Type
REMARK                         _______ _______ _______ _____ _____    ______ ____
ROOT
ATOM      1  C   UNL     1      -1.345   5.699  -2.290  0.00  0.00    +0.049 A 
ATOM      2  C   UNL     1      -2.002   4.492  -2.079  0.00  0.00    +0.028 A 
ATOM      3  C   UNL     1      -3.156   4.191  -2.775  0.00  0.00    +0.048 A 
ATOM      4  C   UNL     1      -3.662   5.090  -3.699  0.00  0.00    +0.133 A 
ATOM      5  C   UNL     1      -2.999   6.307  -3.923  0.00  0.00    +0.080 A 
ATOM      6  C   UNL     1      -1.838   6.607  -3.213  0.00  0.00    +0.041 A 
ATOM      7  C   UNL     1      -3.549   7.247  -4.918  0.00  0.00    +0.248 C 
ATOM      8  O   UNL     1      -2.827   7.754  -5.755  0.00  0.00    -0.270 OA
ATOM      9  N   UNL     1      -4.872   7.537  -4.882  0.00  0.00    -0.308 N 
ATOM     10  C   UNL     1      -5.700   6.999  -3.802  0.00  0.00    +0.148 C 
ATOM     11  C   UNL     1      -5.974   5.516  -4.018  0.00  0.00    +0.187 C 
ATOM     12  O   UNL     1      -4.796   4.815  -4.393  0.00  0.00    -0.487 OA
ATOM     13  C   UNL     1      -6.521   4.916  -2.721  0.00  0.00    +0.053 C 
ATOM     14  H   UNL     1      -5.268   8.096  -5.569  0.00  0.00    +0.149 HD
ENDROOT
BRANCH   1  15
ATOM     15  N   UNL     1      -0.181   5.995  -1.573  0.00  0.00    -0.216 N 
ATOM     16  H   UNL     1       0.685   5.937  -2.007  0.00  0.00    +0.174 HD
BRANCH  15  17
ATOM     17  S   UNL     1      -0.280   6.446   0.017  0.00  0.00    +0.072 S 
ATOM     18  O   UNL     1       1.044   6.752   0.436  0.00  0.00    -0.150 OA
ATOM     19  O   UNL     1      -1.077   5.466   0.668  0.00  0.00    -0.150 OA
BRANCH  17  25
ATOM     20  C   UNL     1      -0.549  11.656  -0.307  0.00  0.00    +0.044 C 
ATOM     21  C   UNL     1      -1.254  10.343  -0.083  0.00  0.00    -0.049 A 
ATOM     22  C   UNL     1      -2.613  10.322   0.169  0.00  0.00    +0.003 A 
ATOM     23  C   UNL     1      -3.261   9.117   0.368  0.00  0.00    +0.002 A 
ATOM     24  C   UNL     1      -2.548   7.934   0.322  0.00  0.00    +0.029 A 
ATOM     25  C   UNL     1      -1.188   7.955   0.076  0.00  0.00    +0.109 A 
ATOM     26  C   UNL     1      -0.541   9.160  -0.124  0.00  0.00    +0.032 A 
ENDBRANCH  17  25
ENDBRANCH  15  17
ENDBRANCH   1  15
TORSDOF 3
