REMARK  Name = ZINC14092876
REMARK  9 active torsions:
REMARK  status: ('A' for Active; 'I' for Inactive)
REMARK    1  A    between atoms: C_1  and  N_60
REMARK    2  A    between atoms: C_2  and  C_3
REMARK    3  A    between atoms: C_2  and  N_60
REMARK    4  A    between atoms: C_8  and  C_9
REMARK    5  A    between atoms: C_8  and  N_60
REMARK    6  A    between atoms: C_12  and  C_28
REMARK    7  A    between atoms: C_14  and  O_27
REMARK    8  A    between atoms: C_31  and  O_34
REMARK    9  A    between atoms: O_34  and  C_35
REMARK                            x       y       z     vdW  Elec       q    Type
REMARK                         _______ _______ _______ _____ _____    ______ ____
ROOT
ATOM      1  C   UNL     1       7.702   0.098  -0.071  0.00  0.00    +0.216 C 
ATOM      2  O   UNL     1       8.897   0.306  -0.081  0.00  0.00    -0.276 OA
ATOM      3  N   UNL     1       6.838   1.133  -0.057  0.00  0.00    -0.214 N 
ATOM      4  C   UNL     1       7.213   2.553  -0.052  0.00  0.00    +0.161 C 
ATOM      5  C   UNL     1       5.870   3.306  -0.042  0.00  0.00    +0.187 C 
ATOM      6  C   UNL     1       4.828   2.212  -0.032  0.00  0.00    +0.062 C 
ATOM      7  C   UNL     1       3.459   2.404  -0.018  0.00  0.00    +0.023 C 
ATOM      8  C   UNL     1       2.759   3.638  -0.004  0.00  0.00    +0.121 C 
ATOM      9  N   UNL     1       1.474   3.409   0.007  0.00  0.00    -0.254 NA
ATOM     10  C   UNL     1       1.187   2.086   0.002  0.00  0.00    +0.072 A 
ATOM     11  C   UNL     1       2.404   1.371  -0.013  0.00  0.00    +0.011 A 
ATOM     12  C   UNL     1       2.402  -0.018  -0.021  0.00  0.00    +0.011 A 
ATOM     13  C   UNL     1       1.204  -0.699  -0.014  0.00  0.00    +0.001 A 
ATOM     14  C   UNL     1       0.002  -0.004   0.002  0.00  0.00    +0.002 A 
ATOM     15  C   UNL     1      -0.017   1.372   0.010  0.00  0.00    +0.028 A 
ATOM     16  N   UNL     1       5.449   1.022  -0.045  0.00  0.00    -0.262 N 
ATOM     17  H   UNL     1       4.980   0.173  -0.045  0.00  0.00    +0.170 HD
ENDROOT
BRANCH   4  18
ATOM     18  C   UNL     1       7.993   2.896  -1.296  0.00  0.00    -0.022 A 
ATOM     19  C   UNL     1       7.642   2.330  -2.508  0.00  0.00    +0.009 A 
ATOM     20  C   UNL     1       8.352   2.646  -3.650  0.00  0.00    +0.046 A 
ATOM     21  C   UNL     1       9.424   3.524  -3.579  0.00  0.00    +0.120 A 
ATOM     22  C   UNL     1       9.777   4.086  -2.360  0.00  0.00    +0.046 A 
ATOM     23  C   UNL     1       9.061   3.771  -1.222  0.00  0.00    +0.009 A 
BRANCH  21  24
ATOM     24  O   UNL     1      10.127   3.832  -4.700  0.00  0.00    -0.495 OA
ATOM     25  C   UNL     1       9.707   3.216  -5.919  0.00  0.00    +0.277 C 
ENDBRANCH  21  24
ENDBRANCH   4  18
BRANCH   5  26
ATOM     26  O   UNL     1       5.737   4.112  -1.214  0.00  0.00    -0.384 OA
ATOM     27  H   UNL     1       4.886   4.566  -1.285  0.00  0.00    +0.210 HD
ENDBRANCH   5  26
BRANCH   1  28
ATOM     28  C   UNL     1       7.184  -1.317  -0.074  0.00  0.00    +0.021 C 
BRANCH  28  30
ATOM     29  C   UNL     1       9.065  -2.152  -1.350  0.00  0.00    -0.095 C 
ATOM     30  N   UNL     1       8.333  -2.246  -0.069  0.00  0.00    +0.388 N 
ATOM     31  H   UNL     1       8.967  -1.987   0.697  0.00  0.00    -0.081 HD
BRANCH  30  32
ATOM     32  C   UNL     1       7.863  -3.631   0.144  0.00  0.00    -0.003 C 
BRANCH  32  33
ATOM     33  C   UNL     1       9.058  -4.521   0.365  0.00  0.00    +0.089 A 
ATOM     34  C   UNL     1       9.635  -4.784   1.552  0.00  0.00    +0.042 A 
ATOM     35  C   UNL     1      10.713  -5.662   1.298  0.00  0.00    +0.041 A 
ATOM     36  C   UNL     1      10.736  -5.877  -0.029  0.00  0.00    +0.195 A 
ATOM     37  O   UNL     1       9.731  -5.184  -0.589  0.00  0.00    -0.470 OA
ENDBRANCH  32  33
ENDBRANCH  30  32
ENDBRANCH  28  30
ENDBRANCH   1  28
TORSDOF 7
