REMARK  Name = ZINC15947162
REMARK  9 active torsions:
REMARK  status: ('A' for Active; 'I' for Inactive)
REMARK    1  A    between atoms: C_1  and  C_2
REMARK    2  A    between atoms: C_2  and  N_3
REMARK    3  A    between atoms: C_11  and  O_32
REMARK    4  A    between atoms: C_13  and  C_16
REMARK    5  A    between atoms: C_19  and  O_24
REMARK    6  A    between atoms: C_20  and  O_22
REMARK    7  A    between atoms: O_22  and  C_23
REMARK    8  A    between atoms: O_24  and  C_25
REMARK    9  A    between atoms: C_25  and  C_27
REMARK                            x       y       z     vdW  Elec       q    Type
REMARK                         _______ _______ _______ _____ _____    ______ ____
ROOT
ATOM      1  N   UNL     1       0.652  -0.399   1.249  0.00  0.00    +0.383 N 
ATOM      2  C   UNL     1       0.767  -1.860   1.151  0.00  0.00    -0.074 C 
ATOM      3  C   UNL     1       1.776  -2.380   2.180  0.00  0.00    +0.018 C 
ATOM      4  C   UNL     1       1.385  -1.824   3.543  0.00  0.00    -0.027 A 
ATOM      5  C   UNL     1       0.542  -0.767   3.626  0.00  0.00    -0.021 A 
ATOM      6  S   UNL     1       0.367  -0.466   5.362  0.00  0.00    -0.080 S 
ATOM      7  C   UNL     1       1.350  -1.667   5.948  0.00  0.00    +0.080 A 
ATOM      8  C   UNL     1       1.845  -2.332   4.819  0.00  0.00    +0.067 A 
ATOM      9  C   UNL     1       2.780  -3.465   5.047  0.00  0.00    +0.220 C 
ATOM     10  N   UNL     1       2.885  -3.928   6.263  0.00  0.00    -0.223 NA
ATOM     11  C   UNL     1       2.103  -3.455   7.398  0.00  0.00    +0.224 C 
ATOM     12  N   UNL     1       1.690  -2.050   7.225  0.00  0.00    -0.313 N 
ATOM     13  C   UNL     1      -0.081  -0.041   2.477  0.00  0.00    -0.035 C 
ATOM     14  H   UNL     1       1.661  -1.430   7.971  0.00  0.00    +0.149 HD
ATOM     15  H   UNL     1       1.575   0.009   1.277  0.00  0.00    -0.081 HD
ENDROOT
BRANCH  11  16
ATOM     16  C   UNL     1       0.873  -4.314   7.541  0.00  0.00    -0.002 A 
ATOM     17  C   UNL     1      -0.288  -3.773   8.061  0.00  0.00    +0.011 A 
ATOM     18  C   UNL     1      -1.419  -4.557   8.195  0.00  0.00    +0.050 A 
ATOM     19  C   UNL     1      -1.391  -5.887   7.807  0.00  0.00    +0.173 A 
ATOM     20  C   UNL     1      -0.221  -6.431   7.284  0.00  0.00    +0.163 A 
ATOM     21  C   UNL     1       0.907  -5.638   7.147  0.00  0.00    +0.056 A 
BRANCH  20  22
ATOM     22  O   UNL     1      -0.188  -7.735   6.902  0.00  0.00    -0.491 OA
ATOM     23  C   UNL     1       1.046  -8.225   6.373  0.00  0.00    +0.277 C 
ENDBRANCH  20  22
BRANCH  19  24
ATOM     24  O   UNL     1      -2.502  -6.659   7.939  0.00  0.00    -0.418 OA
BRANCH  24  25
ATOM     25  C   UNL     1      -2.587  -7.470   9.014  0.00  0.00    +0.351 C 
ATOM     26  O   UNL     1      -1.734  -7.423   9.879  0.00  0.00    -0.244 OA
BRANCH  25  27
ATOM     27  C   UNL     1      -3.706  -8.405   9.138  0.00  0.00    +0.097 A 
ATOM     28  C   UNL     1      -3.980  -9.310  10.154  0.00  0.00    +0.022 A 
ATOM     29  C   UNL     1      -5.118 -10.063   9.991  0.00  0.00    +0.008 A 
ATOM     30  C   UNL     1      -5.877  -9.879   8.882  0.00  0.00    +0.046 A 
ATOM     31  S   UNL     1      -5.075  -8.674   8.029  0.00  0.00    -0.090 S 
ENDBRANCH  25  27
ENDBRANCH  24  25
ENDBRANCH  19  24
ENDBRANCH  11  16
BRANCH   1  33
ATOM     32  C   UNL     1      -0.082   1.643   0.114  0.00  0.00    -0.017 C 
ATOM     33  C   UNL     1      -0.074   0.114   0.079  0.00  0.00    -0.082 C 
ENDBRANCH   1  33
BRANCH   9  34
ATOM     34  O   UNL     1       3.496  -3.997   4.030  0.00  0.00    -0.492 OA
ATOM     35  H   UNL     1       4.071  -4.729   4.295  0.00  0.00    +0.294 HD
ENDBRANCH   9  34
TORSDOF 7
