REMARK  Name = ZINC64600180
REMARK  7 active torsions:
REMARK  status: ('A' for Active; 'I' for Inactive)
REMARK    1  A    between atoms: C_1  and  C_2
REMARK    2  A    between atoms: C_2  and  C_3
REMARK    3  A    between atoms: C_2  and  C_4
REMARK    4  A    between atoms: C_4  and  C_6
REMARK    5  A    between atoms: C_4  and  N_18
REMARK    6  A    between atoms: N_8  and  C_9
REMARK    7  A    between atoms: C_19  and  O_30
REMARK                            x       y       z     vdW  Elec       q    Type
REMARK                         _______ _______ _______ _____ _____    ______ ____
ROOT
ATOM      1  C   UNL     1      -1.562  -0.485  -0.022  0.00  0.00    +0.169 C 
ENDROOT
BRANCH   1   2
ATOM      2  N   UNL     1      -2.604  -0.208   0.970  0.00  0.00    -0.245 N 
ATOM      3  C   UNL     1      -3.111  -1.299   1.803  0.00  0.00    +0.300 C 
ATOM      4  N   UNL     1      -4.530  -1.086   2.113  0.00  0.00    -0.303 N 
ATOM      5  C   UNL     1      -4.953   0.189   2.471  0.00  0.00    +0.042 A 
ATOM      6  C   UNL     1      -6.039   0.389   3.307  0.00  0.00    +0.024 A 
ATOM      7  C   UNL     1      -6.429   1.675   3.627  0.00  0.00    +0.002 A 
ATOM      8  C   UNL     1      -5.742   2.766   3.117  0.00  0.00    +0.001 A 
ATOM      9  C   UNL     1      -4.656   2.585   2.287  0.00  0.00    +0.015 A 
ATOM     10  C   UNL     1      -4.249   1.293   1.961  0.00  0.00    +0.058 A 
ATOM     11  C   UNL     1      -3.076   1.048   1.102  0.00  0.00    +0.252 C 
ATOM     12  O   UNL     1      -2.541   1.969   0.515  0.00  0.00    -0.270 OA
ATOM     13  H   UNL     1      -5.161  -1.821   2.068  0.00  0.00    +0.150 HD
BRANCH   3  14
ATOM     14  O   UNL     1      -2.366  -1.348   3.022  0.00  0.00    -0.359 OA
ATOM     15  H   UNL     1      -2.647  -2.049   3.626  0.00  0.00    +0.213 HD
ENDBRANCH   3  14
ENDBRANCH   1   2
BRANCH   1  16
ATOM     16  C   UNL     1      -2.091  -0.192  -1.402  0.00  0.00    +0.237 C 
ATOM     17  O   UNL     1      -3.110   0.452  -1.537  0.00  0.00    -0.274 OA
ATOM     18  N   UNL     1      -1.432  -0.644  -2.487  0.00  0.00    -0.277 N 
ATOM     19  H   UNL     1      -0.647  -1.204  -2.379  0.00  0.00    +0.152 HD
BRANCH  18  20
ATOM     20  C   UNL     1      -1.900  -0.291  -3.829  0.00  0.00    +0.269 C 
ATOM     21  N   UNL     1      -3.057  -1.118  -4.194  0.00  0.00    -0.348 N 
ATOM     22  C   UNL     1      -2.732  -1.799  -5.254  0.00  0.00    +0.061 A 
ATOM     23  C   UNL     1      -3.457  -2.781  -6.072  0.00  0.00    +0.027 A 
ATOM     24  C   UNL     1      -2.849  -3.336  -7.140  0.00  0.00    +0.002 A 
ATOM     25  C   UNL     1      -1.532  -3.014  -7.514  0.00  0.00    +0.002 A 
ATOM     26  C   UNL     1      -0.779  -2.128  -6.833  0.00  0.00    +0.027 A 
ATOM     27  C   UNL     1      -1.338  -1.459  -5.651  0.00  0.00    +0.061 A 
ATOM     28  N   UNL     1      -0.856  -0.581  -4.820  0.00  0.00    -0.348 N 
ATOM     29  H   UNL     1      -3.908  -1.151  -3.729  0.00  0.00    +0.163 HD
ATOM     30  H   UNL     1       0.031  -0.189  -4.850  0.00  0.00    +0.163 HD
ENDBRANCH  18  20
ENDBRANCH   1  16
BRANCH   1  32
ATOM     31  C   UNL     1       0.115   0.193   1.701  0.00  0.00    +0.009 C 
ATOM     32  C   UNL     1      -0.345   0.400   0.257  0.00  0.00    +0.012 C 
ATOM     33  C   UNL     1       0.789   0.023  -0.699  0.00  0.00    +0.009 C 
ENDBRANCH   1  32
TORSDOF 5
