REMARK  Name = ZINC03995616
REMARK  9 active torsions:
REMARK  status: ('A' for Active; 'I' for Inactive)
REMARK    1  A    between atoms: C_1  and  C_2
REMARK    2  A    between atoms: C_2  and  C_4
REMARK    3  A    between atoms: C_2  and  C_5
REMARK    4  A    between atoms: C_5  and  N_29
REMARK    5  A    between atoms: C_9  and  C_22
REMARK    6  A    between atoms: C_19  and  O_21
REMARK    7  A    between atoms: C_22  and  C_23
REMARK    8  A    between atoms: C_30  and  C_32
REMARK    9  A    between atoms: C_51  and  N_86
REMARK                            x       y       z     vdW  Elec       q    Type
REMARK                         _______ _______ _______ _____ _____    ______ ____
ROOT
ATOM      1  C   UNL     1       1.215  -2.828  -3.205  0.00  0.00    +0.220 C 
ATOM      2  C   UNL     1       2.258  -1.865  -2.679  0.00  0.00    +0.271 C 
ATOM      3  O   UNL     1       2.210  -0.654  -2.735  0.00  0.00    -0.270 OA
ATOM      4  N   UNL     1       3.252  -2.603  -2.134  0.00  0.00    -0.233 N 
ATOM      5  C   UNL     1       4.458  -2.066  -1.500  0.00  0.00    +0.171 C 
ATOM      6  C   UNL     1       5.596  -3.032  -1.696  0.00  0.00    +0.237 C 
ATOM      7  O   UNL     1       6.724  -2.689  -1.415  0.00  0.00    -0.274 OA
ATOM      8  N   UNL     1       5.382  -4.266  -2.174  0.00  0.00    -0.290 N 
ATOM      9  C   UNL     1       6.365  -5.365  -2.197  0.00  0.00    +0.108 C 
ATOM     10  C   UNL     1       5.567  -6.683  -2.172  0.00  0.00    +0.021 C 
ATOM     11  C   UNL     1       4.080  -6.251  -2.166  0.00  0.00    +0.031 C 
ATOM     12  C   UNL     1       4.141  -4.816  -2.736  0.00  0.00    +0.156 C 
ATOM     13  C   UNL     1       2.926  -4.019  -2.305  0.00  0.00    +0.269 C 
ATOM     14  O   UNL     1       1.890  -4.098  -3.297  0.00  0.00    -0.298 OA
ENDROOT
BRANCH   1  15
ATOM     15  N   UNL     1       0.088  -2.916  -2.274  0.00  0.00    -0.280 N 
ATOM     16  C   UNL     1      -0.781  -3.942  -2.362  0.00  0.00    +0.217 C 
ATOM     17  O   UNL     1      -0.569  -4.851  -3.137  0.00  0.00    -0.276 OA
ATOM     18  H   UNL     1      -0.034  -2.235  -1.593  0.00  0.00    +0.152 HD
BRANCH  16  19
ATOM     19  C   UNL     1      -2.016  -3.961  -1.498  0.00  0.00    +0.059 C 
ATOM     20  C   UNL     1      -2.744  -5.296  -1.676  0.00  0.00    +0.017 C 
ATOM     21  C   UNL     1      -4.034  -5.285  -0.829  0.00  0.00    +0.007 C 
ATOM     22  C   UNL     1      -4.755  -6.582  -1.035  0.00  0.00    -0.036 A 
ATOM     23  C   UNL     1      -4.227  -7.807  -1.290  0.00  0.00    +0.004 A 
ATOM     24  C   UNL     1      -5.059  -8.915  -1.449  0.00  0.00    +0.002 A 
ATOM     25  C   UNL     1      -6.444  -8.869  -1.363  0.00  0.00    +0.026 A 
ATOM     26  C   UNL     1      -7.017  -7.625  -1.104  0.00  0.00    +0.047 A 
ATOM     27  C   UNL     1      -6.149  -6.537  -0.954  0.00  0.00    +0.006 A 
ATOM     28  C   UNL     1      -6.952  -5.340  -0.706  0.00  0.00    -0.024 A 
ATOM     29  C   UNL     1      -8.211  -5.751  -0.706  0.00  0.00    +0.087 A 
ATOM     30  N   UNL     1      -8.270  -7.117  -0.940  0.00  0.00    -0.360 N 
ATOM     31  H   UNL     1      -9.088  -7.637  -0.981  0.00  0.00    +0.165 HD
ATOM     32  C   UNL     1      -6.229  -4.013  -0.499  0.00  0.00    +0.022 C 
ATOM     33  C   UNL     1      -4.901  -4.102  -1.265  0.00  0.00    -0.057 C 
ATOM     34  C   UNL     1      -2.947  -2.820  -1.913  0.00  0.00    -0.066 C 
ATOM     35  C   UNL     1      -5.010  -1.685  -1.351  0.00  0.00    -0.096 C 
ATOM     36  N   UNL     1      -4.149  -2.847  -1.051  0.00  0.00    +0.381 N 
ATOM     37  H   UNL     1      -3.854  -2.799  -0.068  0.00  0.00    -0.082 HD
ENDBRANCH  16  19
ENDBRANCH   1  15
BRANCH   1  39
ATOM     38  C   UNL     1      -0.218  -3.439  -5.158  0.00  0.00    +0.012 C 
ATOM     39  C   UNL     1       0.729  -2.383  -4.586  0.00  0.00    +0.043 C 
ATOM     40  C   UNL     1      -0.010  -1.049  -4.461  0.00  0.00    +0.012 C 
ENDBRANCH   1  39
BRANCH  13  41
ATOM     41  O   UNL     1       2.443  -4.550  -1.069  0.00  0.00    -0.348 OA
ATOM     42  H   UNL     1       1.653  -4.105  -0.732  0.00  0.00    +0.214 HD
ENDBRANCH  13  41
BRANCH   5  43
ATOM     43  C   UNL     1       4.205  -1.871  -0.004  0.00  0.00    +0.067 C 
BRANCH  43  44
ATOM     44  C   UNL     1       3.167  -0.796   0.195  0.00  0.00    -0.045 A 
ATOM     45  C   UNL     1       1.826  -1.128   0.226  0.00  0.00    +0.004 A 
ATOM     46  C   UNL     1       0.874  -0.142   0.409  0.00  0.00    +0.000 A 
ATOM     47  C   UNL     1       1.264   1.175   0.561  0.00  0.00    +0.000 A 
ATOM     48  C   UNL     1       2.606   1.507   0.530  0.00  0.00    +0.000 A 
ATOM     49  C   UNL     1       3.557   0.521   0.346  0.00  0.00    +0.004 A 
ENDBRANCH  43  44
ENDBRANCH   5  43
TORSDOF 6
