REMARK  Name = ZINC59537046
REMARK  11 active torsions:
REMARK  status: ('A' for Active; 'I' for Inactive)
REMARK    1  A    between atoms: C_1  and  C_2
REMARK    2  A    between atoms: C_2  and  C_3
REMARK    3  A    between atoms: C_3  and  C_4
REMARK    4  A    between atoms: C_4  and  O_5
REMARK    5  A    between atoms: O_5  and  C_6
REMARK    6  A    between atoms: C_9  and  N_12
REMARK    7  A    between atoms: C_16  and  S_20
REMARK    8  A    between atoms: S_20  and  C_21
REMARK    9  A    between atoms: N_23  and  N_24
REMARK   10  A    between atoms: C_25  and  C_26
REMARK   11  A    between atoms: C_25  and  C_27
REMARK                            x       y       z     vdW  Elec       q    Type
REMARK                         _______ _______ _______ _____ _____    ______ ____
ROOT
ATOM      1  N   UNL     1      -3.259  -8.460  -0.110  0.00  0.00    -0.209 N 
ATOM      2  C   UNL     1      -2.298  -9.381  -0.252  0.00  0.00    +0.228 C 
ATOM      3  O   UNL     1      -1.114  -9.148  -0.372  0.00  0.00    -0.275 OA
ATOM      4  C   UNL     1      -2.923 -10.759  -0.237  0.00  0.00    +0.120 C 
ATOM      5  C   UNL     1      -4.428 -10.471  -0.061  0.00  0.00    +0.149 C 
ATOM      6  C   UNL     1      -4.494  -8.961   0.012  0.00  0.00    +0.240 C 
ATOM      7  O   UNL     1      -5.506  -8.309   0.155  0.00  0.00    -0.274 OA
ENDROOT
BRANCH   1  11
ATOM      8  C   UNL     1      -2.466  -4.364  -0.035  0.00  0.00    +0.121 A 
ATOM      9  C   UNL     1      -3.136  -4.961   1.024  0.00  0.00    +0.047 A 
ATOM     10  C   UNL     1      -3.399  -6.316   1.000  0.00  0.00    +0.027 A 
ATOM     11  C   UNL     1      -2.993  -7.082  -0.085  0.00  0.00    +0.044 A 
ATOM     12  C   UNL     1      -2.322  -6.485  -1.144  0.00  0.00    +0.027 A 
ATOM     13  C   UNL     1      -2.065  -5.129  -1.121  0.00  0.00    +0.047 A 
BRANCH   8  14
ATOM     14  O   UNL     1      -2.208  -3.030  -0.010  0.00  0.00    -0.492 OA
BRANCH  14  15
ATOM     15  C   UNL     1      -2.650  -2.304   1.139  0.00  0.00    +0.229 C 
BRANCH  15  16
ATOM     16  C   UNL     1      -2.273  -0.829   0.987  0.00  0.00    +0.041 C 
BRANCH  16  18
ATOM     17  C   UNL     1      -2.369   1.422   2.066  0.00  0.00    +0.004 C 
ATOM     18  C   UNL     1      -2.746  -0.053   2.218  0.00  0.00    -0.000 C 
ENDBRANCH  16  18
ENDBRANCH  15  16
ENDBRANCH  14  15
ENDBRANCH   8  14
ENDBRANCH   1  11
BRANCH   5  19
ATOM     19  S   UNL     1      -5.043 -11.210   1.477  0.00  0.00    -0.078 S 
BRANCH  19  20
ATOM     20  C   UNL     1      -6.779 -10.909   1.431  0.00  0.00    +0.146 C 
ATOM     21  N   UNL     1      -7.304 -10.275   0.418  0.00  0.00    -0.380 N 
ATOM     22  N   UNL     1      -7.580 -11.342   2.462  0.00  0.00    -0.217 N 
ATOM     23  H   UNL     1      -8.259 -10.109   0.393  0.00  0.00    +0.158 HD
ATOM     24  H   UNL     1      -7.190 -11.814   3.214  0.00  0.00    +0.176 HD
ATOM     25  H   UNL     1      -6.739  -9.969  -0.309  0.00  0.00    +0.158 HD
BRANCH  22  26
ATOM     26  N   UNL     1      -8.960 -11.103   2.425  0.00  0.00    -0.185 NA
ATOM     27  C   UNL     1      -9.703 -11.419   3.444  0.00  0.00    +0.070 C 
ATOM     28  C   UNL     1     -11.203 -11.329   3.340  0.00  0.00    +0.068 C 
BRANCH  27  29
ATOM     29  C   UNL     1      -9.079 -11.865   4.695  0.00  0.00    +0.035 A 
ATOM     30  C   UNL     1      -9.590 -12.696   5.676  0.00  0.00    +0.017 A 
ATOM     31  C   UNL     1      -8.806 -12.972   6.773  0.00  0.00    +0.008 A 
ATOM     32  C   UNL     1      -7.566 -12.423   6.858  0.00  0.00    +0.046 A 
ATOM     33  S   UNL     1      -7.462 -11.481   5.346  0.00  0.00    -0.095 S 
ENDBRANCH  27  29
ENDBRANCH  22  26
ENDBRANCH  19  20
ENDBRANCH   5  19
TORSDOF 9
