REMARK  Name = ZINC54094454
REMARK  7 active torsions:
REMARK  status: ('A' for Active; 'I' for Inactive)
REMARK    1  A    between atoms: C_1  and  C_2
REMARK    2  A    between atoms: C_8  and  N_10
REMARK    3  A    between atoms: N_16  and  C_19
REMARK    4  A    between atoms: C_19  and  C_20
REMARK    5  A    between atoms: N_22  and  C_23
REMARK    6  A    between atoms: C_23  and  C_24
REMARK    7  A    between atoms: C_23  and  C_25
REMARK                            x       y       z     vdW  Elec       q    Type
REMARK                         _______ _______ _______ _____ _____    ______ ____
ROOT
ATOM      1  N   UNL     1       2.050  -0.210   3.648  0.00  0.00    -0.296 N 
ATOM      2  C   UNL     1       0.738   0.093   3.602  0.00  0.00    +0.303 C 
ATOM      3  O   UNL     1       0.144   0.062   2.542  0.00  0.00    -0.253 OA
ATOM      4  N   UNL     1       0.084   0.431   4.731  0.00  0.00    -0.283 N 
ATOM      5  C   UNL     1      -1.370   0.653   4.724  0.00  0.00    +0.124 C 
ATOM      6  C   UNL     1      -1.996  -0.186   5.843  0.00  0.00    +0.104 C 
ATOM      7  N   UNL     1      -1.327   0.122   7.114  0.00  0.00    -0.291 NA
ATOM      8  C   UNL     1       0.093  -0.249   7.072  0.00  0.00    +0.104 C 
ATOM      9  C   UNL     1       0.804   0.581   6.005  0.00  0.00    +0.124 C 
ATOM     10  H   UNL     1       2.541  -0.114   4.480  0.00  0.00    +0.151 HD
ENDROOT
BRANCH   1  17
ATOM     11  C   UNL     1       3.497  -2.719   3.677  0.00  0.00    +0.009 C 
ATOM     12  C   UNL     1       3.953  -1.519   2.845  0.00  0.00    +0.006 C 
ATOM     13  C   UNL     1       4.912  -0.659   3.671  0.00  0.00    +0.005 C 
ATOM     14  C   UNL     1       5.368   0.540   2.839  0.00  0.00    +0.000 C 
ATOM     15  C   UNL     1       4.150   1.376   2.438  0.00  0.00    +0.002 C 
ATOM     16  C   UNL     1       3.192   0.516   1.611  0.00  0.00    +0.022 C 
ATOM     17  C   UNL     1       2.736  -0.684   2.443  0.00  0.00    +0.077 C 
ENDBRANCH   1  17
BRANCH   7  18
ATOM     18  C   UNL     1      -2.009  -0.530   8.240  0.00  0.00    +0.180 C 
BRANCH  18  19
ATOM     19  C   UNL     1      -1.454  -0.002   9.538  0.00  0.00    +0.227 C 
ATOM     20  O   UNL     1      -0.578   0.835   9.526  0.00  0.00    -0.274 OA
ATOM     21  N   UNL     1      -1.933  -0.461  10.711  0.00  0.00    -0.312 N 
ATOM     22  H   UNL     1      -2.634  -1.131  10.720  0.00  0.00    +0.149 HD
BRANCH  21  23
ATOM     23  C   UNL     1      -1.394   0.052  11.973  0.00  0.00    +0.067 C 
ATOM     24  C   UNL     1      -2.441  -0.106  13.077  0.00  0.00    +0.027 C 
ATOM     25  C   UNL     1      -0.135  -0.733  12.347  0.00  0.00    +0.027 C 
ENDBRANCH  21  23
ENDBRANCH  18  19
ENDBRANCH   7  18
TORSDOF 4
