REMARK  Name = ZINC26893358
REMARK  3 active torsions:
REMARK  status: ('A' for Active; 'I' for Inactive)
REMARK    1  A    between atoms: C_6  and  C_7
REMARK    2  A    between atoms: C_10  and  C_12
REMARK    3  A    between atoms: C_13  and  C_14
REMARK                            x       y       z     vdW  Elec       q    Type
REMARK                         _______ _______ _______ _____ _____    ______ ____
ROOT
ATOM      1  C   UNL     1      -2.921   0.295  -1.194  0.00  0.00    +0.034 C 
ATOM      2  C   UNL     1      -1.815   0.592  -2.212  0.00  0.00    +0.109 C 
ATOM      3  N   UNL     1      -0.774   1.398  -1.558  0.00  0.00    -0.298 N 
ATOM      4  C   UNL     1      -1.167   2.635  -0.871  0.00  0.00    +0.109 C 
ATOM      5  C   UNL     1      -2.280   2.319   0.127  0.00  0.00    +0.034 C 
ATOM      6  C   UNL     1      -3.426   1.611  -0.599  0.00  0.00    +0.105 C 
ATOM      7  C   UNL     1       0.515   1.006  -1.584  0.00  0.00    +0.240 C 
ATOM      8  O   UNL     1       0.841   0.031  -2.232  0.00  0.00    -0.271 OA
ENDROOT
BRANCH   6   9
ATOM      9  C   UNL     1      -4.538   1.326   0.378  0.00  0.00    +0.359 C 
ATOM     10  O   UNL     1      -4.890   0.188   0.577  0.00  0.00    -0.246 OA
ATOM     11  O   UNL     1      -5.138   2.337   1.026  0.00  0.00    -0.246 OA
ENDBRANCH   6   9
BRANCH   7  12
ATOM     12  C   UNL     1       1.532   1.765  -0.829  0.00  0.00    +0.074 C 
ATOM     13  C   UNL     1       2.418   1.115  -0.057  0.00  0.00    +0.101 C 
BRANCH  13  14
ATOM     14  C   UNL     1       2.490  -0.358  -0.096  0.00  0.00    +0.380 C 
ATOM     15  O   UNL     1       1.471  -1.017  -0.051  0.00  0.00    -0.241 OA
ATOM     16  O   UNL     1       3.687  -0.972  -0.181  0.00  0.00    -0.241 OA
ENDBRANCH  13  14
ENDBRANCH   7  12
TORSDOF 3
