REMARK  Name = ZINC03592843
REMARK  3 active torsions:
REMARK  status: ('A' for Active; 'I' for Inactive)
REMARK    1  A    between atoms: C_3  and  N_9
REMARK    2  A    between atoms: C_10  and  C_12
REMARK    3  A    between atoms: C_12  and  N_13
REMARK                            x       y       z     vdW  Elec       q    Type
REMARK                         _______ _______ _______ _____ _____    ______ ____
ROOT
ATOM      1  N   UNL     1       3.501  -2.408   0.266  0.00  0.00    -0.215 N 
ATOM      2  C   UNL     1       3.415  -3.229  -0.798  0.00  0.00    +0.247 C 
ATOM      3  O   UNL     1       3.517  -2.924  -1.967  0.00  0.00    -0.273 OA
ATOM      4  C   UNL     1       3.163  -4.616  -0.232  0.00  0.00    +0.113 C 
ATOM      5  C   UNL     1       4.401  -5.487  -0.544  0.00  0.00    +0.035 C 
ATOM      6  C   UNL     1       4.464  -6.611   0.453  0.00  0.00    +0.003 C 
ATOM      7  C   UNL     1       3.786  -7.898  -0.058  0.00  0.00    +0.000 C 
ATOM      8  C   UNL     1       2.458  -7.623  -0.788  0.00  0.00    +0.000 C 
ATOM      9  C   UNL     1       1.628  -6.578  -0.091  0.00  0.00    +0.003 C 
ATOM     10  C   UNL     1       1.930  -5.210  -0.732  0.00  0.00    +0.035 C 
ATOM     11  N   UNL     1       3.131  -4.385   1.227  0.00  0.00    -0.285 N 
ATOM     12  C   UNL     1       3.344  -3.071   1.416  0.00  0.00    +0.310 C 
ATOM     13  O   UNL     1       3.385  -2.545   2.511  0.00  0.00    -0.252 OA
ATOM     14  H   UNL     1       2.987  -5.053   1.915  0.00  0.00    +0.151 HD
ENDROOT
BRANCH   1  15
ATOM     15  C   UNL     1       3.744  -0.966   0.175  0.00  0.00    +0.214 C 
BRANCH  15  17
ATOM     16  N   UNL     1       2.403   1.104  -0.015  0.00  0.00    -0.282 N 
ATOM     17  C   UNL     1       2.426  -0.240   0.078  0.00  0.00    +0.235 C 
ATOM     18  O   UNL     1       1.387  -0.866   0.085  0.00  0.00    -0.274 OA
ATOM     19  H   UNL     1       3.233   1.599  -0.102  0.00  0.00    +0.155 HD
BRANCH  16  22
ATOM     20  C   UNL     1      -1.130   1.885   0.647  0.00  0.00    +0.017 A 
ATOM     21  C   UNL     1       0.076   1.213   0.626  0.00  0.00    +0.027 A 
ATOM     22  C   UNL     1       1.180   1.787   0.012  0.00  0.00    +0.069 A 
ATOM     23  C   UNL     1       1.069   3.042  -0.578  0.00  0.00    +0.146 A 
ATOM     24  C   UNL     1      -0.140   3.712  -0.550  0.00  0.00    +0.055 A 
ATOM     25  C   UNL     1      -1.237   3.136   0.065  0.00  0.00    +0.021 A 
ATOM     26 BR   UNL     1      -2.889   4.056   0.102  0.00  0.00    -0.050 Br
ATOM     27  F   UNL     1       2.141   3.605  -1.177  0.00  0.00    -0.204 F 
ENDBRANCH  16  22
ENDBRANCH  15  17
ENDBRANCH   1  15
TORSDOF 3
