REMARK  Name = ZINC03322858
REMARK  12 active torsions:
REMARK  status: ('A' for Active; 'I' for Inactive)
REMARK    1  A    between atoms: C_1  and  C_2
REMARK    2  A    between atoms: C_2  and  C_3
REMARK    3  A    between atoms: C_3  and  C_4
REMARK    4  A    between atoms: C_4  and  N_5
REMARK    5  A    between atoms: N_5  and  C_6
REMARK    6  A    between atoms: C_7  and  N_22
REMARK    7  A    between atoms: N_8  and  C_15
REMARK    8  A    between atoms: C_15  and  C_16
REMARK    9  A    between atoms: C_23  and  C_25
REMARK   10  A    between atoms: C_25  and  S_26
REMARK   11  A    between atoms: S_26  and  C_27
REMARK   12  A    between atoms: N_31  and  C_32
REMARK                            x       y       z     vdW  Elec       q    Type
REMARK                         _______ _______ _______ _____ _____    ______ ____
ROOT
ATOM      1  N   UNL     1      -2.724  -2.583   0.026  0.00  0.00    -0.264 N 
ATOM      2  C   UNL     1      -3.181  -2.934   1.246  0.00  0.00    +0.230 C 
ATOM      3  O   UNL     1      -4.263  -3.471   1.358  0.00  0.00    -0.274 OA
ENDROOT
BRANCH   1   4
ATOM      4  C   UNL     1      -3.551  -2.736  -1.107  0.00  0.00    +0.140 A 
ATOM      5  C   UNL     1      -3.224  -3.639  -2.098  0.00  0.00    +0.128 A 
ATOM      6  N   UNL     1      -4.049  -3.765  -3.191  0.00  0.00    -0.276 N 
ATOM      7  C   UNL     1      -5.162  -3.017  -3.293  0.00  0.00    +0.331 A 
ATOM      8  O   UNL     1      -5.879  -3.143  -4.267  0.00  0.00    -0.246 OA
ATOM      9  N   UNL     1      -5.497  -2.132  -2.337  0.00  0.00    -0.273 N 
ATOM     10  H   UNL     1      -6.305  -1.604  -2.435  0.00  0.00    +0.173 HD
ATOM     11  C   UNL     1      -4.726  -1.974  -1.244  0.00  0.00    +0.277 A 
ATOM     12  O   UNL     1      -5.041  -1.172  -0.381  0.00  0.00    -0.266 OA
BRANCH   5  13
ATOM     13  N   UNL     1      -2.086  -4.403  -1.994  0.00  0.00    -0.343 N 
ATOM     14  H   UNL     1      -1.474  -4.263  -1.255  0.00  0.00    +0.144 HD
ATOM     15  H   UNL     1      -1.896  -5.083  -2.659  0.00  0.00    +0.144 HD
ENDBRANCH   5  13
BRANCH   6  16
ATOM     16  C   UNL     1      -3.714  -4.721  -4.250  0.00  0.00    +0.163 C 
BRANCH  16  17
ATOM     17  C   UNL     1      -4.339  -6.056  -3.938  0.00  0.00    -0.028 A 
ATOM     18  C   UNL     1      -3.643  -6.987  -3.189  0.00  0.00    +0.005 A 
ATOM     19  C   UNL     1      -4.215  -8.212  -2.903  0.00  0.00    +0.000 A 
ATOM     20  C   UNL     1      -5.485  -8.506  -3.365  0.00  0.00    +0.000 A 
ATOM     21  C   UNL     1      -6.181  -7.575  -4.112  0.00  0.00    +0.000 A 
ATOM     22  C   UNL     1      -5.610  -6.348  -4.395  0.00  0.00    +0.005 A 
ENDBRANCH  16  17
ENDBRANCH   6  16
ENDBRANCH   1   4
BRANCH   1  23
ATOM     23  C   UNL     1      -1.370  -2.043  -0.122  0.00  0.00    +0.114 C 
BRANCH  23  24
ATOM     24  C   UNL     1      -1.425  -0.514  -0.098  0.00  0.00    +0.019 C 
BRANCH  24  26
ATOM     25  C   UNL     1      -0.066   1.578  -0.228  0.00  0.00    +0.004 C 
ATOM     26  C   UNL     1      -0.011   0.049  -0.253  0.00  0.00    -0.002 C 
ENDBRANCH  24  26
ENDBRANCH  23  24
ENDBRANCH   1  23
BRANCH   2  27
ATOM     27  C   UNL     1      -2.346  -2.659   2.471  0.00  0.00    +0.173 C 
BRANCH  27  28
ATOM     28  S   UNL     1      -3.226  -3.243   3.946  0.00  0.00    -0.076 S 
BRANCH  28  29
ATOM     29  C   UNL     1      -2.135  -2.855   5.274  0.00  0.00    +0.196 A 
ATOM     30  N   UNL     1      -0.964  -2.270   5.177  0.00  0.00    -0.122 NA
ATOM     31  N   UNL     1      -0.441  -2.142   6.344  0.00  0.00    -0.137 NA
ATOM     32  C   UNL     1      -1.238  -2.633   7.250  0.00  0.00    +0.230 A 
ATOM     33  N   UNL     1      -2.351  -3.100   6.602  0.00  0.00    -0.277 N 
BRANCH  33  34
ATOM     34  C   UNL     1      -3.476  -3.707   7.180  0.00  0.00    +0.050 A 
ATOM     35  C   UNL     1      -4.750  -3.266   6.850  0.00  0.00    +0.026 A 
ATOM     36  C   UNL     1      -5.856  -3.866   7.421  0.00  0.00    +0.002 A 
ATOM     37  C   UNL     1      -5.695  -4.904   8.320  0.00  0.00    +0.000 A 
ATOM     38  C   UNL     1      -4.427  -5.345   8.650  0.00  0.00    +0.002 A 
ATOM     39  C   UNL     1      -3.318  -4.753   8.079  0.00  0.00    +0.026 A 
ENDBRANCH  33  34
ENDBRANCH  28  29
ENDBRANCH  27  28
ENDBRANCH   2  27
TORSDOF 11
