REMARK  Name = ZINC44170544
REMARK  10 active torsions:
REMARK  status: ('A' for Active; 'I' for Inactive)
REMARK    1  A    between atoms: C_1  and  C_2
REMARK    2  A    between atoms: C_2  and  C_3
REMARK    3  A    between atoms: C_8  and  C_9
REMARK    4  A    between atoms: C_15  and  C_18
REMARK    5  A    between atoms: C_23  and  C_26
REMARK    6  A    between atoms: C_26  and  C_27
REMARK    7  A    between atoms: C_33  and  C_39
REMARK    8  A    between atoms: C_33  and  C_40
REMARK    9  A    between atoms: C_36  and  C_37
REMARK   10  A    between atoms: C_36  and  C_38
REMARK                            x       y       z     vdW  Elec       q    Type
REMARK                         _______ _______ _______ _____ _____    ______ ____
ROOT
ATOM      1  C   UNL     1      -1.462  -0.281  -2.473  0.00  0.00    -0.027 C 
ATOM      2  C   UNL     1      -0.640  -1.472  -2.982  0.00  0.00    +0.092 C 
ATOM      3  S   UNL     1       0.187  -0.976  -4.526  0.00  0.00    +0.020 S 
ATOM      4  O   UNL     1       0.684  -2.130  -5.189  0.00  0.00    -0.257 OA
ATOM      5  C   UNL     1      -1.176  -0.259  -5.495  0.00  0.00    +0.097 C 
ATOM      6  C   UNL     1      -1.917   0.750  -4.610  0.00  0.00    +0.029 C 
ATOM      7  N   UNL     1      -2.494   0.064  -3.452  0.00  0.00    +0.392 N 
ATOM      8  H   UNL     1      -2.953  -0.781  -3.760  0.00  0.00    -0.084 HD
ATOM      9  H   UNL     1      -3.175   0.668  -3.016  0.00  0.00    -0.084 HD
ENDROOT
BRANCH   1  15
ATOM     10  C   UNL     1      -1.417  -0.506   0.021  0.00  0.00    -0.046 A 
ATOM     11  C   UNL     1      -2.022  -0.840   1.215  0.00  0.00    +0.008 A 
ATOM     12  C   UNL     1      -3.325  -1.319   1.236  0.00  0.00    -0.038 A 
ATOM     13  C   UNL     1      -4.020  -1.459   0.055  0.00  0.00    -0.038 A 
ATOM     14  C   UNL     1      -3.408  -1.126  -1.146  0.00  0.00    +0.006 A 
ATOM     15  C   UNL     1      -2.114  -0.646  -1.164  0.00  0.00    -0.057 A 
ATOM     16  C   UNL     1      -5.441  -1.957   0.004  0.00  0.00    -0.010 C 
ATOM     17  C   UNL     1      -5.807  -2.670   1.304  0.00  0.00    +0.012 C 
ATOM     18  C   UNL     1      -5.444  -1.753   2.478  0.00  0.00    +0.012 C 
ATOM     19  C   UNL     1      -3.922  -1.672   2.574  0.00  0.00    -0.010 C 
ATOM     20  C   UNL     1      -3.372  -3.025   3.031  0.00  0.00    +0.016 C 
ATOM     21  C   UNL     1      -3.537  -0.601   3.596  0.00  0.00    +0.016 C 
ATOM     22  C   UNL     1      -6.384  -0.770  -0.203  0.00  0.00    +0.016 C 
ATOM     23  C   UNL     1      -5.592  -2.931  -1.165  0.00  0.00    +0.016 C 
BRANCH  10  25
ATOM     24  C   UNL     1      -0.024   1.545   0.013  0.00  0.00    +0.009 C 
ATOM     25  C   UNL     1      -0.003   0.015   0.010  0.00  0.00    +0.032 C 
ENDBRANCH  10  25
ENDBRANCH   1  15
BRANCH   6  26
ATOM     26  C   UNL     1      -3.020   1.399  -5.406  0.00  0.00    +0.202 C 
ATOM     27  O   UNL     1      -4.148   0.956  -5.353  0.00  0.00    -0.277 OA
ATOM     28  N   UNL     1      -2.753   2.472  -6.177  0.00  0.00    -0.303 N 
ATOM     29  C   UNL     1      -1.373   2.948  -6.345  0.00  0.00    +0.108 C 
ATOM     30  C   UNL     1      -1.064   3.042  -7.843  0.00  0.00    +0.023 C 
ATOM     31  C   UNL     1      -2.118   3.917  -8.524  0.00  0.00    -0.004 C 
ATOM     32  C   UNL     1      -3.499   3.279  -8.355  0.00  0.00    +0.023 C 
ATOM     33  C   UNL     1      -3.836   3.185  -6.869  0.00  0.00    +0.108 C 
BRANCH  31  34
ATOM     34  C   UNL     1      -1.792   4.041 -10.014  0.00  0.00    +0.038 C 
BRANCH  34  35
ATOM     35  C   UNL     1      -2.758   5.000 -10.661  0.00  0.00    -0.047 A 
ATOM     36  C   UNL     1      -3.946   4.533 -11.191  0.00  0.00    +0.003 A 
ATOM     37  C   UNL     1      -4.832   5.413 -11.784  0.00  0.00    +0.000 A 
ATOM     38  C   UNL     1      -4.529   6.760 -11.848  0.00  0.00    +0.000 A 
ATOM     39  C   UNL     1      -3.341   7.228 -11.317  0.00  0.00    +0.000 A 
ATOM     40  C   UNL     1      -2.458   6.348 -10.720  0.00  0.00    +0.003 A 
ENDBRANCH  34  35
ENDBRANCH  31  34
ENDBRANCH   6  26
TORSDOF 5
