REMARK  Name = ZINC39990705
REMARK  7 active torsions:
REMARK  status: ('A' for Active; 'I' for Inactive)
REMARK    1  A    between atoms: C_1  and  C_2
REMARK    2  A    between atoms: C_2  and  C_4
REMARK    3  A    between atoms: C_2  and  S_16
REMARK    4  A    between atoms: N_6  and  C_7
REMARK    5  A    between atoms: S_16  and  C_17
REMARK    6  A    between atoms: C_21  and  C_26
REMARK    7  A    between atoms: N_22  and  C_23
REMARK                            x       y       z     vdW  Elec       q    Type
REMARK                         _______ _______ _______ _____ _____    ______ ____
ROOT
ATOM      1  C   UNL     1       2.577   0.050   1.241  0.00  0.00    +0.238 C 
ATOM      2  N   UNL     1       3.212  -0.461   0.015  0.00  0.00    -0.237 N 
ATOM      3  N   UNL     1       3.678   0.656  -0.687  0.00  0.00    -0.169 NA
ATOM      4  C   UNL     1       3.409   1.764  -0.048  0.00  0.00    +0.147 C 
ATOM      5  N   UNL     1       2.734   1.511   1.153  0.00  0.00    -0.282 N 
ATOM      6  H   UNL     1       3.292  -1.390  -0.253  0.00  0.00    +0.171 HD
ENDROOT
BRANCH   4   7
ATOM      7  C   UNL     1       3.754   3.045  -0.506  0.00  0.00    +0.022 C 
ATOM      8  C   UNL     1       4.345   3.374  -1.726  0.00  0.00    +0.006 A 
ATOM      9  C   UNL     1       4.762   2.593  -2.825  0.00  0.00    +0.010 A 
ATOM     10  C   UNL     1       5.319   3.195  -3.907  0.00  0.00    +0.001 A 
ATOM     11  C   UNL     1       5.492   4.579  -3.965  0.00  0.00    +0.002 A 
ATOM     12  C   UNL     1       5.115   5.391  -2.946  0.00  0.00    +0.026 A 
ATOM     13  C   UNL     1       4.526   4.834  -1.782  0.00  0.00    +0.043 A 
ATOM     14  N   UNL     1       4.082   5.396  -0.675  0.00  0.00    -0.380 N 
ATOM     15  C   UNL     1       3.557   4.359   0.218  0.00  0.00    +0.152 C 
ATOM     16  H   UNL     1       4.096   6.347  -0.483  0.00  0.00    +0.160 HD
ENDBRANCH   4   7
BRANCH   5  17
ATOM     17  C   UNL     1       2.274   2.502   2.128  0.00  0.00    +0.078 C 
ATOM     18  C   UNL     1       2.924   2.485   3.513  0.00  0.00    +0.024 C 
ATOM     19  C   UNL     1       1.487   1.991   3.337  0.00  0.00    +0.024 C 
ENDBRANCH   5  17
BRANCH   1  20
ATOM     20  S   UNL     1       0.820  -0.398   1.280  0.00  0.00    -0.106 S 
BRANCH  20  22
ATOM     21  C   UNL     1       0.250   1.827  -0.205  0.00  0.00    +0.029 C 
ATOM     22  C   UNL     1       0.155   0.301  -0.256  0.00  0.00    +0.133 C 
BRANCH  22  23
ATOM     23  C   UNL     1      -1.288  -0.108  -0.411  0.00  0.00    +0.230 C 
ATOM     24  O   UNL     1      -1.947  -0.389   0.568  0.00  0.00    -0.274 OA
ATOM     25  N   UNL     1      -1.845  -0.161  -1.637  0.00  0.00    -0.285 N 
ATOM     26  H   UNL     1      -1.340   0.128  -2.412  0.00  0.00    +0.155 HD
BRANCH  25  27
ATOM     27  C   UNL     1      -3.154  -0.632  -1.790  0.00  0.00    +0.034 A 
ATOM     28  C   UNL     1      -4.109  -0.366  -0.818  0.00  0.00    +0.023 A 
ATOM     29  C   UNL     1      -5.398  -0.833  -0.975  0.00  0.00    +0.006 A 
ATOM     30  C   UNL     1      -5.744  -1.567  -2.098  0.00  0.00    -0.044 A 
ATOM     31  C   UNL     1      -4.795  -1.834  -3.067  0.00  0.00    -0.042 A 
ATOM     32  C   UNL     1      -3.502  -1.363  -2.917  0.00  0.00    +0.027 A 
ATOM     33  C   UNL     1      -5.418  -2.646  -4.183  0.00  0.00    +0.036 C 
ATOM     34  C   UNL     1      -6.723  -3.216  -3.587  0.00  0.00    +0.009 C 
ATOM     35  C   UNL     1      -7.069  -2.181  -2.496  0.00  0.00    +0.036 C 
ENDBRANCH  25  27
ENDBRANCH  22  23
ENDBRANCH  20  22
ENDBRANCH   1  20
TORSDOF 6
