REMARK  Name = ZINC40158754
REMARK  6 active torsions:
REMARK  status: ('A' for Active; 'I' for Inactive)
REMARK    1  A    between atoms: C_1  and  S_2
REMARK    2  A    between atoms: S_2  and  N_5
REMARK    3  A    between atoms: N_5  and  C_6
REMARK    4  A    between atoms: C_10  and  C_12
REMARK    5  A    between atoms: C_15  and  C_18
REMARK    6  A    between atoms: C_23  and  C_25
REMARK                            x       y       z     vdW  Elec       q    Type
REMARK                         _______ _______ _______ _____ _____    ______ ____
ROOT
ATOM      1  C   UNL     1       5.455  -1.398  -2.736  0.00  0.00    +0.069 C 
ATOM      2  N   UNL     1       5.158  -2.514  -3.309  0.00  0.00    -0.180 NA
ATOM      3  N   UNL     1       6.251  -3.180  -3.859  0.00  0.00    -0.176 N 
ATOM      4  C   UNL     1       7.465  -2.386  -3.614  0.00  0.00    +0.173 C 
ATOM      5  C   UNL     1       6.943  -1.153  -2.849  0.00  0.00    +0.090 C 
ATOM      6  C   UNL     1       6.204  -4.361  -4.508  0.00  0.00    +0.302 C 
ATOM      7  O   UNL     1       7.226  -4.854  -4.949  0.00  0.00    -0.265 OA
ENDROOT
BRANCH   1  12
ATOM      8  C   UNL     1       2.238   0.024  -1.414  0.00  0.00    +0.048 A 
ATOM      9  C   UNL     1       2.687   1.206  -0.837  0.00  0.00    +0.024 A 
ATOM     10  C   UNL     1       4.029   1.536  -0.878  0.00  0.00    +0.002 A 
ATOM     11  C   UNL     1       4.933   0.694  -1.494  0.00  0.00    +0.010 A 
ATOM     12  C   UNL     1       4.492  -0.497  -2.077  0.00  0.00    -0.000 A 
ATOM     13  C   UNL     1       3.138  -0.832  -2.030  0.00  0.00    +0.034 A 
BRANCH   8  14
ATOM     14  N   UNL     1       0.881  -0.304  -1.369  0.00  0.00    -0.221 N 
ATOM     15  H   UNL     1       0.334  -0.215  -2.164  0.00  0.00    +0.173 HD
BRANCH  14  17
ATOM     16  C   UNL     1       1.060  -2.408   0.397  0.00  0.00    +0.218 C 
ATOM     17  S   UNL     1       0.207  -0.847   0.043  0.00  0.00    +0.040 S 
ATOM     18  O   UNL     1      -1.155  -1.095  -0.277  0.00  0.00    -0.155 OA
ATOM     19  O   UNL     1       0.557   0.133   1.012  0.00  0.00    -0.155 OA
ENDBRANCH  14  17
ENDBRANCH   8  14
ENDBRANCH   1  12
BRANCH   6  20
ATOM     20  C   UNL     1       4.923  -5.050  -4.683  0.00  0.00    +0.193 A 
ATOM     21  C   UNL     1       4.735  -6.248  -5.312  0.00  0.00    +0.056 A 
ATOM     22  C   UNL     1       3.362  -6.527  -5.247  0.00  0.00    +0.058 A 
ATOM     23  C   UNL     1       2.777  -5.500  -4.588  0.00  0.00    +0.171 A 
ATOM     24  O   UNL     1       3.722  -4.615  -4.245  0.00  0.00    -0.444 OA
ATOM     25 BR   UNL     1       0.931  -5.344  -4.208  0.00  0.00    -0.008 Br
ENDBRANCH   6  20
BRANCH   4  26
ATOM     26  C   UNL     1       8.098  -1.971  -4.917  0.00  0.00    +0.128 A 
ATOM     27  C   UNL     1       9.419  -1.924  -5.171  0.00  0.00    +0.046 A 
ATOM     28  C   UNL     1       9.564  -1.484  -6.506  0.00  0.00    +0.041 A 
ATOM     29  C   UNL     1       8.324  -1.288  -6.989  0.00  0.00    +0.195 A 
ATOM     30  O   UNL     1       7.440  -1.590  -6.024  0.00  0.00    -0.466 OA
ENDBRANCH   4  26
TORSDOF 5
