REMARK  Name = ZINC38705052
REMARK  11 active torsions:
REMARK  status: ('A' for Active; 'I' for Inactive)
REMARK    1  A    between atoms: C_1  and  C_2
REMARK    2  A    between atoms: C_2  and  O_3
REMARK    3  A    between atoms: O_3  and  C_4
REMARK    4  A    between atoms: C_6  and  C_11
REMARK    5  A    between atoms: C_9  and  O_10
REMARK    6  A    between atoms: C_14  and  C_30
REMARK    7  A    between atoms: N_21  and  C_22
REMARK    8  A    between atoms: C_22  and  C_23
REMARK    9  A    between atoms: C_31  and  C_38
REMARK   10  A    between atoms: C_33  and  C_37
REMARK   11  A    between atoms: C_35  and  O_36
REMARK                            x       y       z     vdW  Elec       q    Type
REMARK                         _______ _______ _______ _____ _____    ______ ____
ROOT
ATOM      1  C   UNL     1      -0.248  -4.970   0.500  0.00  0.00    +0.142 C 
ATOM      2  C   UNL     1       0.864  -5.583   1.308  0.00  0.00    +0.035 A 
ATOM      3  C   UNL     1       1.943  -5.379   2.174  0.00  0.00    +0.102 A 
ATOM      4  N   UNL     1       2.454  -6.562   2.453  0.00  0.00    -0.173 NA
ATOM      5  N   UNL     1       1.805  -7.492   1.849  0.00  0.00    -0.272 N 
ATOM      6  H   UNL     1       2.004  -8.440   1.908  0.00  0.00    +0.189 HD
ATOM      7  C   UNL     1       0.792  -6.949   1.111  0.00  0.00    +0.126 A 
ATOM      8  C   UNL     1      -0.328  -7.231   0.206  0.00  0.00    +0.266 C 
ATOM      9  O   UNL     1      -0.657  -8.342  -0.166  0.00  0.00    -0.268 OA
ATOM     10  N   UNL     1      -0.940  -6.087  -0.155  0.00  0.00    -0.281 N 
ENDROOT
BRANCH   3  11
ATOM     11  C   UNL     1       2.425  -4.071   2.685  0.00  0.00    +0.047 A 
ATOM     12  C   UNL     1       3.776  -3.745   2.608  0.00  0.00    -0.037 A 
ATOM     13  C   UNL     1       4.220  -2.528   3.084  0.00  0.00    +0.007 A 
ATOM     14  C   UNL     1       3.325  -1.630   3.639  0.00  0.00    -0.047 A 
ATOM     15  C   UNL     1       1.982  -1.944   3.720  0.00  0.00    +0.049 A 
ATOM     16  C   UNL     1       1.523  -3.160   3.240  0.00  0.00    +0.127 A 
ATOM     17  C   UNL     1       3.818  -0.303   4.156  0.00  0.00    +0.044 C 
ATOM     18  C   UNL     1       4.755  -4.721   2.005  0.00  0.00    +0.044 C 
BRANCH  16  19
ATOM     19  O   UNL     1       0.202  -3.467   3.314  0.00  0.00    -0.506 OA
ATOM     20  H   UNL     1      -0.068  -3.845   4.162  0.00  0.00    +0.292 HD
ENDBRANCH  16  19
ENDBRANCH   3  11
BRANCH   1  23
ATOM     21  C   UNL     1       0.624  -1.808  -1.373  0.00  0.00    +0.162 A 
ATOM     22  C   UNL     1       0.103  -2.671  -0.423  0.00  0.00    +0.055 A 
ATOM     23  C   UNL     1       0.319  -4.032  -0.534  0.00  0.00    -0.019 A 
ATOM     24  C   UNL     1       1.054  -4.535  -1.592  0.00  0.00    +0.009 A 
ATOM     25  C   UNL     1       1.576  -3.678  -2.543  0.00  0.00    +0.049 A 
ATOM     26  C   UNL     1       1.358  -2.314  -2.441  0.00  0.00    +0.158 A 
BRANCH  26  27
ATOM     27  O   UNL     1       1.866  -1.471  -3.380  0.00  0.00    -0.503 OA
ATOM     28  H   UNL     1       2.755  -1.147  -3.178  0.00  0.00    +0.292 HD
ENDBRANCH  26  27
BRANCH  21  29
ATOM     29  O   UNL     1       0.412  -0.469  -1.266  0.00  0.00    -0.489 OA
BRANCH  29  31
ATOM     30  C   UNL     1      -0.483   1.503  -0.192  0.00  0.00    +0.048 C 
ATOM     31  C   UNL     1      -0.351  -0.020  -0.144  0.00  0.00    +0.226 C 
ENDBRANCH  29  31
ENDBRANCH  21  29
ENDBRANCH   1  23
BRANCH  10  32
ATOM     32  C   UNL     1      -2.096  -5.976  -1.048  0.00  0.00    +0.145 C 
BRANCH  32  33
ATOM     33  C   UNL     1      -1.620  -5.823  -2.470  0.00  0.00    -0.012 A 
ATOM     34  C   UNL     1      -1.581  -4.571  -3.055  0.00  0.00    +0.006 A 
ATOM     35  C   UNL     1      -1.144  -4.431  -4.359  0.00  0.00    +0.000 A 
ATOM     36  C   UNL     1      -0.747  -5.542  -5.079  0.00  0.00    +0.001 A 
ATOM     37  C   UNL     1      -0.786  -6.794  -4.495  0.00  0.00    +0.020 A 
ATOM     38  C   UNL     1      -1.217  -6.935  -3.187  0.00  0.00    +0.046 A 
ATOM     39 CL   UNL     1      -1.260  -8.506  -2.451  0.00  0.00    -0.083 Cl
ENDBRANCH  32  33
ENDBRANCH  10  32
TORSDOF 8
