REMARK  Name = ZINC13100522
REMARK  8 active torsions:
REMARK  status: ('A' for Active; 'I' for Inactive)
REMARK    1  A    between atoms: C_7  and  C_11
REMARK    2  A    between atoms: C_11  and  C_12
REMARK    3  A    between atoms: C_12  and  O_14
REMARK    4  A    between atoms: O_14  and  C_15
REMARK    5  A    between atoms: C_15  and  C_16
REMARK    6  A    between atoms: N_18  and  C_19
REMARK    7  A    between atoms: C_22  and  S_26
REMARK    8  A    between atoms: S_26  and  N_29
REMARK                            x       y       z     vdW  Elec       q    Type
REMARK                         _______ _______ _______ _____ _____    ______ ____
ROOT
ATOM      1  C   UNL     1       2.369   5.180  -0.392  0.00  0.00    +0.255 C 
ATOM      2  O   UNL     1       1.327   5.744  -0.653  0.00  0.00    -0.272 OA
ATOM      3  N   UNL     1       2.357   3.891   0.000  0.00  0.00    -0.280 N 
ATOM      4  H   UNL     1       3.181   3.461   0.279  0.00  0.00    +0.155 HD
ENDROOT
BRANCH   3   5
ATOM      5  C   UNL     1       1.156   3.171   0.007  0.00  0.00    +0.071 A 
ATOM      6  C   UNL     1       0.749   2.484  -1.130  0.00  0.00    +0.065 A 
ATOM      7  C   UNL     1      -0.437   1.775  -1.119  0.00  0.00    +0.050 A 
ATOM      8  C   UNL     1      -1.222   1.753   0.019  0.00  0.00    +0.108 A 
ATOM      9  C   UNL     1      -0.818   2.432   1.154  0.00  0.00    +0.050 A 
ATOM     10  C   UNL     1       0.367   3.143   1.151  0.00  0.00    +0.065 A 
ATOM     11 CL   UNL     1       0.871   4.000   2.575  0.00  0.00    -0.082 Cl
ATOM     12 CL   UNL     1       1.730   2.516  -2.562  0.00  0.00    -0.082 Cl
BRANCH   8  13
ATOM     13  S   UNL     1      -2.737   0.854   0.026  0.00  0.00    +0.056 S 
ATOM     14  O   UNL     1      -3.552   1.439   1.032  0.00  0.00    -0.153 OA
ATOM     15  O   UNL     1      -3.154   0.752  -1.329  0.00  0.00    -0.153 OA
BRANCH  13  16
ATOM     16  N   UNL     1      -2.391  -0.685   0.532  0.00  0.00    -0.204 NA
ATOM     17  H   UNL     1      -3.058  -1.199   1.012  0.00  0.00    +0.144 HD
ATOM     18  H   UNL     1      -1.520  -1.071   0.348  0.00  0.00    +0.144 HD
ENDBRANCH  13  16
ENDBRANCH   8  13
ENDBRANCH   3   5
BRANCH   1  19
ATOM     19  C   UNL     1       3.676   5.921  -0.508  0.00  0.00    +0.328 C 
BRANCH  19  20
ATOM     20  O   UNL     1       3.424   7.282  -0.945  0.00  0.00    -0.455 OA
BRANCH  20  21
ATOM     21  C   UNL     1       4.492   8.081  -1.099  0.00  0.00    +0.312 C 
ATOM     22  O   UNL     1       5.601   7.656  -0.875  0.00  0.00    -0.250 OA
BRANCH  21  23
ATOM     23  C   UNL     1       4.308   9.507  -1.550  0.00  0.00    +0.157 C 
BRANCH  23  30
ATOM     24  C   UNL     1       7.575   9.699  -4.905  0.00  0.00    +0.001 A 
ATOM     25  C   UNL     1       8.680  10.458  -4.542  0.00  0.00    +0.002 A 
ATOM     26  C   UNL     1       8.741  11.063  -3.306  0.00  0.00    +0.026 A 
ATOM     27  C   UNL     1       7.686  10.913  -2.411  0.00  0.00    +0.047 A 
ATOM     28  C   UNL     1       6.569  10.144  -2.784  0.00  0.00    +0.003 A 
ATOM     29  C   UNL     1       6.529   9.539  -4.042  0.00  0.00    +0.010 A 
ATOM     30  C   UNL     1       5.652  10.182  -1.643  0.00  0.00    -0.012 A 
ATOM     31  C   UNL     1       6.233  10.937  -0.697  0.00  0.00    +0.087 A 
ATOM     32  N   UNL     1       7.451  11.378  -1.136  0.00  0.00    -0.360 N 
ATOM     33  H   UNL     1       8.058  11.938  -0.627  0.00  0.00    +0.165 HD
ENDBRANCH  23  30
ENDBRANCH  21  23
ENDBRANCH  20  21
ENDBRANCH  19  20
ENDBRANCH   1  19
TORSDOF 8
