REMARK  Name = ZINC57962805
REMARK  6 active torsions:
REMARK  status: ('A' for Active; 'I' for Inactive)
REMARK    1  A    between atoms: C_1  and  C_2
REMARK    2  A    between atoms: C_2  and  C_4
REMARK    3  A    between atoms: C_2  and  O_17
REMARK    4  A    between atoms: N_6  and  N_7
REMARK    5  A    between atoms: C_8  and  C_10
REMARK    6  A    between atoms: O_17  and  C_18
REMARK                            x       y       z     vdW  Elec       q    Type
REMARK                         _______ _______ _______ _____ _____    ______ ____
ROOT
ATOM      1  C   UNL     1       0.767  -0.717  -1.225  0.00  0.00    +0.270 C 
ATOM      2  O   UNL     1       1.890  -1.143  -1.060  0.00  0.00    -0.270 OA
ATOM      3  N   UNL     1       0.234  -0.679  -2.462  0.00  0.00    -0.231 N 
ATOM      4  H   UNL     1      -0.664  -0.338  -2.594  0.00  0.00    +0.173 HD
ENDROOT
BRANCH   3   5
ATOM      5  N   UNL     1       0.979  -1.133  -3.559  0.00  0.00    -0.229 N 
ATOM      6  C   UNL     1       0.447  -1.095  -4.797  0.00  0.00    +0.276 C 
ATOM      7  O   UNL     1      -0.680  -0.667  -4.962  0.00  0.00    -0.267 OA
ATOM      8  H   UNL     1       1.878  -1.474  -3.428  0.00  0.00    +0.173 HD
BRANCH   6   9
ATOM      9  C   UNL     1       1.226  -1.569  -5.945  0.00  0.00    +0.104 A 
ATOM     10  C   UNL     1       0.813  -1.584  -7.261  0.00  0.00    +0.047 A 
ATOM     11  C   UNL     1       1.864  -2.114  -8.016  0.00  0.00    +0.036 A 
ATOM     12  C   UNL     1       2.879  -2.407  -7.167  0.00  0.00    +0.098 A 
ATOM     13  N   UNL     1       2.506  -2.076  -5.906  0.00  0.00    -0.356 N 
ATOM     14  H   UNL     1       3.049  -2.180  -5.110  0.00  0.00    +0.166 HD
ATOM     15 BR   UNL     1       1.869  -2.375  -9.889  0.00  0.00    -0.049 Br
ENDBRANCH   6   9
ENDBRANCH   3   5
BRANCH   1  17
ATOM     16  C   UNL     1      -0.289   1.273  -0.187  0.00  0.00    +0.062 C 
ATOM     17  C   UNL     1      -0.034  -0.229  -0.045  0.00  0.00    +0.257 C 
BRANCH  17  18
ATOM     18  O   UNL     1       0.693  -0.477   1.160  0.00  0.00    -0.477 OA
BRANCH  18  19
ATOM     19  C   UNL     1      -0.031  -0.600   2.304  0.00  0.00    +0.157 A 
ATOM     20  C   UNL     1      -1.398  -0.371   2.288  0.00  0.00    +0.048 A 
ATOM     21  C   UNL     1      -2.132  -0.496   3.452  0.00  0.00    +0.004 A 
ATOM     22  C   UNL     1      -1.505  -0.848   4.633  0.00  0.00    +0.003 A 
ATOM     23  C   UNL     1      -0.142  -1.077   4.653  0.00  0.00    +0.042 A 
ATOM     24  C   UNL     1       0.597  -0.960   3.490  0.00  0.00    +0.165 A 
ATOM     25  F   UNL     1       1.928  -1.189   3.508  0.00  0.00    -0.202 F 
ENDBRANCH  18  19
ENDBRANCH  17  18
ENDBRANCH   1  17
TORSDOF 5
