REMARK  Name = ZINC20886109
REMARK  8 active torsions:
REMARK  status: ('A' for Active; 'I' for Inactive)
REMARK    1  A    between atoms: C_1  and  O_2
REMARK    2  A    between atoms: O_2  and  C_3
REMARK    3  A    between atoms: C_5  and  C_13
REMARK    4  A    between atoms: C_7  and  O_11
REMARK    5  A    between atoms: C_8  and  O_9
REMARK    6  A    between atoms: O_9  and  C_10
REMARK    7  A    between atoms: O_11  and  C_12
REMARK    8  A    between atoms: C_18  and  C_28
REMARK                            x       y       z     vdW  Elec       q    Type
REMARK                         _______ _______ _______ _____ _____    ______ ____
ROOT
ATOM      1  C   UNL     1      -0.020   6.105  -0.549  0.00  0.00    +0.032 C 
ATOM      2  C   UNL     1      -1.067   7.007  -1.202  0.00  0.00    +0.059 C 
ATOM      3  C   UNL     1      -0.399   7.928  -2.209  0.00  0.00    +0.017 C 
ATOM      4  C   UNL     1       0.850   8.375  -1.997  0.00  0.00    +0.036 C 
ATOM      5  C   UNL     1       1.623   9.308  -2.899  0.00  0.00    +0.138 C 
ATOM      6  N   UNL     1       1.023   9.518  -4.199  0.00  0.00    -0.331 N 
ATOM      7  C   UNL     1      -0.214  10.146  -4.329  0.00  0.00    +0.049 A 
ATOM      8  C   UNL     1      -0.341  11.373  -4.961  0.00  0.00    +0.025 A 
ATOM      9  C   UNL     1      -1.583  11.980  -5.024  0.00  0.00    +0.002 A 
ATOM     10  C   UNL     1      -2.690  11.372  -4.460  0.00  0.00    +0.002 A 
ATOM     11  C   UNL     1      -2.569  10.139  -3.842  0.00  0.00    +0.025 A 
ATOM     12  C   UNL     1      -1.332   9.521  -3.797  0.00  0.00    +0.052 A 
ATOM     13  N   UNL     1      -1.162   8.238  -3.288  0.00  0.00    -0.316 N 
ATOM     14  C   UNL     1       1.569   7.963  -0.851  0.00  0.00    +0.163 C 
ATOM     15  O   UNL     1       2.690   8.398  -0.674  0.00  0.00    -0.292 OA
ATOM     16  C   UNL     1       0.999   7.008   0.155  0.00  0.00    +0.088 C 
ATOM     17  H   UNL     1       1.544   9.179  -5.107  0.00  0.00    +0.147 HD
ATOM     18  H   UNL     1      -1.701   7.444  -3.826  0.00  0.00    +0.152 HD
ENDROOT
BRANCH   5  19
ATOM     19  C   UNL     1       1.746  10.644  -2.212  0.00  0.00    +0.002 A 
ATOM     20  C   UNL     1       1.021  11.073  -1.167  0.00  0.00    +0.089 A 
ATOM     21  N   UNL     1       1.415  12.335  -0.812  0.00  0.00    -0.360 N 
ATOM     22  H   UNL     1       0.932  12.845   0.034  0.00  0.00    +0.165 HD
ATOM     23  C   UNL     1       2.423  12.762  -1.648  0.00  0.00    +0.047 A 
ATOM     24  C   UNL     1       2.674  11.722  -2.561  0.00  0.00    +0.005 A 
ATOM     25  C   UNL     1       3.657  11.876  -3.540  0.00  0.00    +0.010 A 
ATOM     26  C   UNL     1       4.372  13.039  -3.606  0.00  0.00    +0.001 A 
ATOM     27  C   UNL     1       4.128  14.068  -2.708  0.00  0.00    +0.002 A 
ATOM     28  C   UNL     1       3.162  13.937  -1.734  0.00  0.00    +0.026 A 
ENDBRANCH   5  19
BRANCH   1  31
ATOM     29  C   UNL     1      -1.213   2.992   1.230  0.00  0.00    +0.165 A 
ATOM     30  C   UNL     1      -0.606   3.828   0.306  0.00  0.00    +0.053 A 
ATOM     31  C   UNL     1      -0.682   5.200   0.457  0.00  0.00    -0.036 A 
ATOM     32  C   UNL     1      -1.364   5.744   1.530  0.00  0.00    +0.053 A 
ATOM     33  C   UNL     1      -1.974   4.914   2.459  0.00  0.00    +0.165 A 
ATOM     34  C   UNL     1      -1.904   3.534   2.307  0.00  0.00    +0.204 A 
BRANCH  29  36
ATOM     35  C   UNL     1      -0.417   1.155  -0.054  0.00  0.00    +0.277 C 
ATOM     36  O   UNL     1      -1.138   1.642   1.079  0.00  0.00    -0.491 OA
ENDBRANCH  29  36
BRANCH  34  37
ATOM     37  O   UNL     1      -2.506   2.717   3.213  0.00  0.00    -0.488 OA
ATOM     38  C   UNL     1      -1.725   2.310   4.339  0.00  0.00    +0.277 C 
ENDBRANCH  34  37
BRANCH  33  39
ATOM     39  O   UNL     1      -2.644   5.450   3.514  0.00  0.00    -0.491 OA
ATOM     40  C   UNL     1      -2.679   6.876   3.604  0.00  0.00    +0.277 C 
ENDBRANCH  33  39
ENDBRANCH   1  31
TORSDOF 5
