REMARK  Name = ZINC32666473
REMARK  10 active torsions:
REMARK  status: ('A' for Active; 'I' for Inactive)
REMARK    1  A    between atoms: C_1  and  C_2
REMARK    2  A    between atoms: C_2  and  N_3
REMARK    3  A    between atoms: N_3  and  C_4
REMARK    4  A    between atoms: C_5  and  N_20
REMARK    5  A    between atoms: N_6  and  C_13
REMARK    6  A    between atoms: C_13  and  C_14
REMARK    7  A    between atoms: C_21  and  C_23
REMARK    8  A    between atoms: C_23  and  O_24
REMARK    9  A    between atoms: O_24  and  C_25
REMARK   10  A    between atoms: C_25  and  C_27
REMARK                            x       y       z     vdW  Elec       q    Type
REMARK                         _______ _______ _______ _____ _____    ______ ____
ROOT
ATOM      1  N   UNL     1       0.915   1.548  -7.475  0.00  0.00    -0.262 N 
ATOM      2  C   UNL     1       0.951   2.003  -6.205  0.00  0.00    +0.258 C 
ATOM      3  O   UNL     1       2.010   2.317  -5.703  0.00  0.00    -0.272 OA
ENDROOT
BRANCH   1   4
ATOM      4  C   UNL     1       2.094   1.528  -8.251  0.00  0.00    +0.140 A 
ATOM      5  C   UNL     1       2.741   2.703  -8.573  0.00  0.00    +0.128 A 
ATOM      6  N   UNL     1       3.891   2.652  -9.326  0.00  0.00    -0.276 N 
ATOM      7  C   UNL     1       4.372   1.470  -9.754  0.00  0.00    +0.331 A 
ATOM      8  O   UNL     1       5.387   1.446 -10.423  0.00  0.00    -0.246 OA
ATOM      9  N   UNL     1       3.751   0.316  -9.455  0.00  0.00    -0.273 N 
ATOM     10  H   UNL     1       4.162  -0.639  -9.816  0.00  0.00    +0.173 HD
ATOM     11  C   UNL     1       2.625   0.310  -8.716  0.00  0.00    +0.277 A 
ATOM     12  O   UNL     1       2.070  -0.742  -8.450  0.00  0.00    -0.266 OA
BRANCH   5  13
ATOM     13  N   UNL     1       2.247   3.911  -8.141  0.00  0.00    -0.343 N 
ATOM     14  H   UNL     1       2.768   4.843  -8.401  0.00  0.00    +0.144 HD
ATOM     15  H   UNL     1       1.329   3.944  -7.535  0.00  0.00    +0.144 HD
ENDBRANCH   5  13
BRANCH   6  16
ATOM     16  C   UNL     1       4.592   3.891  -9.670  0.00  0.00    +0.163 C 
BRANCH  16  17
ATOM     17  C   UNL     1       4.054   4.428 -10.972  0.00  0.00    -0.028 A 
ATOM     18  C   UNL     1       4.633   4.047 -12.168  0.00  0.00    +0.005 A 
ATOM     19  C   UNL     1       4.136   4.536 -13.362  0.00  0.00    +0.000 A 
ATOM     20  C   UNL     1       3.068   5.413 -13.359  0.00  0.00    +0.000 A 
ATOM     21  C   UNL     1       2.493   5.798 -12.162  0.00  0.00    +0.000 A 
ATOM     22  C   UNL     1       2.986   5.305 -10.969  0.00  0.00    +0.005 A 
ENDBRANCH  16  17
ENDBRANCH   6  16
ENDBRANCH   1   4
BRANCH   1  24
ATOM     23  C   UNL     1      -1.053   2.232  -8.755  0.00  0.00    +0.025 C 
ATOM     24  C   UNL     1      -0.347   1.073  -8.048  0.00  0.00    +0.110 C 
ENDBRANCH   1  24
BRANCH   2  25
ATOM     25  C   UNL     1      -0.324   2.121  -5.411  0.00  0.00    +0.328 C 
BRANCH  25  26
ATOM     26  O   UNL     1      -0.022   2.630  -4.085  0.00  0.00    -0.452 OA
BRANCH  26  27
ATOM     27  C   UNL     1      -1.061   2.796  -3.243  0.00  0.00    +0.341 C 
ATOM     28  O   UNL     1      -2.187   2.522  -3.606  0.00  0.00    -0.245 OA
BRANCH  27  29
ATOM     29  C   UNL     1      -0.830   3.310  -1.877  0.00  0.00    +0.073 A 
ATOM     30  C   UNL     1      -0.863   4.700  -1.609  0.00  0.00    +0.015 A 
ATOM     31  C   UNL     1      -1.113   5.637  -2.619  0.00  0.00    +0.011 A 
ATOM     32  C   UNL     1      -1.138   6.965  -2.314  0.00  0.00    +0.001 A 
ATOM     33  C   UNL     1      -0.917   7.403  -1.010  0.00  0.00    +0.002 A 
ATOM     34  C   UNL     1      -0.669   6.519  -0.005  0.00  0.00    +0.028 A 
ATOM     35  C   UNL     1      -0.635   5.140  -0.281  0.00  0.00    +0.072 A 
ATOM     36  N   UNL     1      -0.395   4.250   0.680  0.00  0.00    -0.251 NA
ATOM     37  C   UNL     1      -0.356   2.951   0.455  0.00  0.00    +0.046 A 
ATOM     38  C   UNL     1      -0.574   2.439  -0.818  0.00  0.00    -0.012 A 
ATOM     39  C   UNL     1      -0.548   0.964  -1.118  0.00  0.00    +0.038 C 
ATOM     40  C   UNL     1       0.152   0.200   0.004  0.00  0.00    +0.005 C 
ATOM     41  C   UNL     1      -0.474   0.620   1.339  0.00  0.00    +0.006 C 
ATOM     42  C   UNL     1      -0.060   2.059   1.635  0.00  0.00    +0.056 C 
ENDBRANCH  27  29
ENDBRANCH  26  27
ENDBRANCH  25  26
ENDBRANCH   2  25
TORSDOF 9
