REMARK  Name = ZINC46672962
REMARK  10 active torsions:
REMARK  status: ('A' for Active; 'I' for Inactive)
REMARK    1  A    between atoms: C_1  and  C_2
REMARK    2  A    between atoms: C_6  and  C_8
REMARK    3  A    between atoms: C_8  and  C_10
REMARK    4  A    between atoms: C_8  and  N_29
REMARK    5  A    between atoms: C_10  and  C_11
REMARK    6  A    between atoms: N_13  and  C_14
REMARK    7  A    between atoms: C_14  and  C_15
REMARK    8  A    between atoms: C_15  and  C_17
REMARK    9  A    between atoms: C_15  and  N_22
REMARK   10  A    between atoms: C_25  and  C_28
REMARK                            x       y       z     vdW  Elec       q    Type
REMARK                         _______ _______ _______ _____ _____    ______ ____
ROOT
ATOM      1  C   UNL     1      -2.568  -3.520   4.729  0.00  0.00    +0.215 C 
ATOM      2  O   UNL     1      -1.836  -3.776   5.661  0.00  0.00    -0.276 OA
ATOM      3  N   UNL     1      -3.876  -3.839   4.791  0.00  0.00    -0.316 N 
ATOM      4  H   UNL     1      -4.461  -3.634   4.045  0.00  0.00    +0.149 HD
ENDROOT
BRANCH   1   5
ATOM      5  C   UNL     1      -2.015  -2.844   3.500  0.00  0.00    +0.122 C 
BRANCH   5   6
ATOM      6  C   UNL     1      -0.517  -2.594   3.687  0.00  0.00    +0.113 C 
BRANCH   6  12
ATOM      7  C   UNL     1       1.063  -2.433  -1.059  0.00  0.00    +0.044 C 
ATOM      8  C   UNL     1       0.768  -1.734   0.243  0.00  0.00    -0.050 A 
ATOM      9  C   UNL     1       0.982  -0.373   0.360  0.00  0.00    +0.003 A 
ATOM     10  C   UNL     1       0.712   0.269   1.554  0.00  0.00    +0.001 A 
ATOM     11  C   UNL     1       0.226  -0.450   2.631  0.00  0.00    +0.005 A 
ATOM     12  C   UNL     1       0.012  -1.810   2.513  0.00  0.00    -0.026 A 
ATOM     13  C   UNL     1       0.278  -2.451   1.318  0.00  0.00    +0.008 A 
ENDBRANCH   6  12
BRANCH   6  14
ATOM     14  N   UNL     1       0.185  -3.877   3.773  0.00  0.00    -0.292 N 
ATOM     15  C   UNL     1       1.373  -3.954   4.405  0.00  0.00    +0.298 C 
ATOM     16  O   UNL     1       1.819  -2.981   4.983  0.00  0.00    -0.253 OA
ATOM     17  N   UNL     1       2.067  -5.109   4.398  0.00  0.00    -0.313 N 
ATOM     18  H   UNL     1      -0.205  -4.671   3.376  0.00  0.00    +0.151 HD
ATOM     19  H   UNL     1       1.712  -5.885   3.937  0.00  0.00    +0.146 HD
ATOM     20  H   UNL     1       2.922  -5.165   4.853  0.00  0.00    +0.146 HD
ENDBRANCH   6  14
ENDBRANCH   5   6
ENDBRANCH   1   5
BRANCH   3  21
ATOM     21  C   UNL     1      -4.414  -4.496   5.985  0.00  0.00    +0.094 C 
BRANCH  21  22
ATOM     22  C   UNL     1      -5.886  -4.843   5.756  0.00  0.00    -0.013 C 
BRANCH  22  23
ATOM     23  N   UNL     1      -6.404  -5.571   6.922  0.00  0.00    +0.386 N 
ATOM     24  C   UNL     1      -7.838  -5.825   6.741  0.00  0.00    -0.078 C 
ATOM     25  C   UNL     1      -8.400  -6.512   7.988  0.00  0.00    -0.015 C 
ATOM     26  C   UNL     1      -7.669  -7.839   8.206  0.00  0.00    -0.018 C 
ATOM     27  C   UNL     1      -6.165  -7.569   8.320  0.00  0.00    -0.015 C 
ATOM     28  C   UNL     1      -5.686  -6.844   7.061  0.00  0.00    -0.078 C 
ATOM     29  C   UNL     1      -8.170  -8.493   9.495  0.00  0.00    +0.007 C 
ATOM     30  H   UNL     1      -6.266  -5.016   7.753  0.00  0.00    -0.081 HD
ENDBRANCH  22  23
BRANCH  22  31
ATOM     31  C   UNL     1      -6.677  -3.575   5.564  0.00  0.00    -0.022 A 
ATOM     32  C   UNL     1      -7.113  -3.006   4.413  0.00  0.00    +0.009 A 
ATOM     33  C   UNL     1      -7.831  -1.827   4.478  0.00  0.00    +0.008 A 
ATOM     34  C   UNL     1      -8.078  -1.274   5.690  0.00  0.00    +0.045 A 
ATOM     35  S   UNL     1      -7.291  -2.435   6.794  0.00  0.00    -0.103 S 
ENDBRANCH  22  31
ENDBRANCH  21  22
ENDBRANCH   3  21
TORSDOF 8
