REMARK  Name = ZINC12689899
REMARK  8 active torsions:
REMARK  status: ('A' for Active; 'I' for Inactive)
REMARK    1  A    between atoms: C_3  and  C_8
REMARK    2  A    between atoms: C_5  and  O_7
REMARK    3  A    between atoms: N_9  and  N_10
REMARK    4  A    between atoms: C_11  and  C_13
REMARK    5  A    between atoms: C_15  and  C_19
REMARK    6  A    between atoms: C_23  and  O_25
REMARK    7  A    between atoms: O_25  and  C_26
REMARK    8  A    between atoms: C_26  and  C_27
REMARK                            x       y       z     vdW  Elec       q    Type
REMARK                         _______ _______ _______ _____ _____    ______ ____
ROOT
ATOM      1  C   UNL     1       6.083   6.283  -0.025  0.00  0.00    +0.122 A 
ATOM      2  C   UNL     1       6.226   7.658  -0.014  0.00  0.00    +0.062 A 
ATOM      3  C   UNL     1       7.614   7.886  -0.029  0.00  0.00    +0.093 A 
ATOM      4  N   UNL     1       8.210   6.712  -0.047  0.00  0.00    -0.173 NA
ATOM      5  N   UNL     1       7.346   5.762  -0.039  0.00  0.00    -0.272 N 
ATOM      6  H   UNL     1       7.559   4.816  -0.045  0.00  0.00    +0.189 HD
ENDROOT
BRANCH   3   7
ATOM      7  C   UNL     1       8.285   9.210  -0.025  0.00  0.00    +0.006 A 
ATOM      8  C   UNL     1       7.526  10.378   0.000  0.00  0.00    +0.010 A 
ATOM      9  C   UNL     1       8.152  11.608   0.003  0.00  0.00    +0.004 A 
ATOM     10  C   UNL     1       9.532  11.686  -0.019  0.00  0.00    +0.046 A 
ATOM     11  C   UNL     1      10.296  10.527  -0.044  0.00  0.00    +0.122 A 
ATOM     12  C   UNL     1       9.675   9.288  -0.042  0.00  0.00    +0.055 A 
BRANCH  11  13
ATOM     13  O   UNL     1      11.652  10.608  -0.067  0.00  0.00    -0.487 OA
BRANCH  13  14
ATOM     14  C   UNL     1      12.224  11.917  -0.062  0.00  0.00    +0.264 C 
BRANCH  14  15
ATOM     15  C   UNL     1      13.727  11.809  -0.089  0.00  0.00    -0.010 A 
ATOM     16  C   UNL     1      14.436  11.740   1.096  0.00  0.00    +0.008 A 
ATOM     17  C   UNL     1      15.814  11.641   1.073  0.00  0.00    +0.020 A 
ATOM     18  C   UNL     1      16.485  11.609  -0.137  0.00  0.00    +0.041 A 
ATOM     19  C   UNL     1      15.775  11.678  -1.323  0.00  0.00    +0.020 A 
ATOM     20  C   UNL     1      14.396  11.771  -1.298  0.00  0.00    +0.008 A 
ATOM     21 CL   UNL     1      18.216  11.485  -0.168  0.00  0.00    -0.084 Cl
ENDBRANCH  14  15
ENDBRANCH  13  14
ENDBRANCH  11  13
ENDBRANCH   3   7
BRANCH   1  23
ATOM     22  N   UNL     1       4.838   4.182  -0.023  0.00  0.00    -0.202 N 
ATOM     23  C   UNL     1       4.819   5.529  -0.016  0.00  0.00    +0.281 C 
ATOM     24  O   UNL     1       3.757   6.122  -0.003  0.00  0.00    -0.267 OA
ATOM     25  H   UNL     1       5.685   3.709  -0.034  0.00  0.00    +0.178 HD
BRANCH  22  27
ATOM     26  C   UNL     1       3.654   2.166  -0.022  0.00  0.00    +0.138 C 
ATOM     27  N   UNL     1       3.635   3.464  -0.015  0.00  0.00    -0.187 NA
BRANCH  26  30
ATOM     28  C   UNL     1      -0.017   1.378   0.010  0.00  0.00    +0.004 A 
ATOM     29  C   UNL     1       1.166   2.089   0.002  0.00  0.00    +0.010 A 
ATOM     30  C   UNL     1       2.387   1.411  -0.013  0.00  0.00    -0.002 A 
ATOM     31  C   UNL     1       2.404   0.014  -0.021  0.00  0.00    +0.054 A 
ATOM     32  C   UNL     1       1.211  -0.688  -0.013  0.00  0.00    +0.117 A 
ATOM     33  C   UNL     1       0.002  -0.004   0.002  0.00  0.00    +0.045 A 
BRANCH  32  34
ATOM     34  O   UNL     1       1.223  -2.047  -0.021  0.00  0.00    -0.507 OA
ATOM     35  H   UNL     1       1.234  -2.445   0.861  0.00  0.00    +0.292 HD
ENDBRANCH  32  34
ENDBRANCH  26  30
ENDBRANCH  22  27
ENDBRANCH   1  23
TORSDOF 8
