REMARK  Name = ZINC64343351
REMARK  9 active torsions:
REMARK  status: ('A' for Active; 'I' for Inactive)
REMARK    1  A    between atoms: C_1  and  C_2
REMARK    2  A    between atoms: C_2  and  C_3
REMARK    3  A    between atoms: C_6  and  C_30
REMARK    4  A    between atoms: C_9  and  C_11
REMARK    5  A    between atoms: C_13  and  C_24
REMARK    6  A    between atoms: C_33  and  O_38
REMARK    7  A    between atoms: C_34  and  O_36
REMARK    8  A    between atoms: O_36  and  C_37
REMARK    9  A    between atoms: O_38  and  C_39
REMARK                            x       y       z     vdW  Elec       q    Type
REMARK                         _______ _______ _______ _____ _____    ______ ____
ROOT
ATOM      1  C   UNL     1       0.216  -0.288   0.961  0.00  0.00    +0.235 C 
ATOM      2  O   UNL     1       0.553   0.589   1.727  0.00  0.00    -0.274 OA
ATOM      3  N   UNL     1       0.450  -1.579   1.269  0.00  0.00    -0.185 N 
ATOM      4  C   UNL     1       1.098  -2.064   2.499  0.00  0.00    +0.137 C 
ATOM      5  C   UNL     1       1.101  -3.595   2.317  0.00  0.00    +0.083 C 
ATOM      6  C   UNL     1       0.438  -3.800   0.974  0.00  0.00    +0.055 C 
ATOM      7  N   UNL     1       0.114  -2.677   0.479  0.00  0.00    -0.185 NA
ENDROOT
BRANCH   6   8
ATOM      8  C   UNL     1       0.194  -5.138   0.323  0.00  0.00    +0.152 C 
ATOM      9  C   UNL     1      -0.286  -4.885  -1.094  0.00  0.00    -0.014 C 
ATOM     10  C   UNL     1      -1.532  -5.413  -1.445  0.00  0.00    +0.002 A 
ATOM     11  C   UNL     1      -2.054  -5.225  -2.742  0.00  0.00    +0.030 A 
ATOM     12  C   UNL     1      -3.269  -5.751  -3.059  0.00  0.00    +0.042 A 
ATOM     13  C   UNL     1      -4.011  -6.473  -2.125  0.00  0.00    +0.022 A 
ATOM     14  C   UNL     1      -3.559  -6.687  -0.859  0.00  0.00    +0.025 A 
ATOM     15  C   UNL     1      -2.312  -6.173  -0.462  0.00  0.00    +0.041 A 
ATOM     16  N   UNL     1      -1.870  -6.384   0.782  0.00  0.00    -0.284 N 
ATOM     17  C   UNL     1      -0.714  -5.937   1.230  0.00  0.00    +0.230 C 
ATOM     18  O   UNL     1      -0.376  -6.168   2.376  0.00  0.00    -0.274 OA
ATOM     19 CL   UNL     1      -3.907  -5.517  -4.656  0.00  0.00    -0.084 Cl
ATOM     20  H   UNL     1      -2.430  -6.895   1.388  0.00  0.00    +0.155 HD
BRANCH   9  21
ATOM     21  C   UNL     1       0.493  -4.145  -2.019  0.00  0.00    -0.020 A 
ATOM     22  C   UNL     1       0.007  -2.937  -2.545  0.00  0.00    +0.008 A 
ATOM     23  C   UNL     1       0.772  -2.227  -3.444  0.00  0.00    +0.001 A 
ATOM     24  C   UNL     1       2.016  -2.700  -3.828  0.00  0.00    +0.000 A 
ATOM     25  C   UNL     1       2.504  -3.891  -3.315  0.00  0.00    +0.001 A 
ATOM     26  C   UNL     1       1.758  -4.614  -2.411  0.00  0.00    +0.008 A 
ENDBRANCH   9  21
ENDBRANCH   6   8
BRANCH   4  27
ATOM     27  C   UNL     1       0.296  -1.670   3.713  0.00  0.00    -0.021 A 
ATOM     28  C   UNL     1      -1.085  -1.711   3.670  0.00  0.00    +0.009 A 
ATOM     29  C   UNL     1      -1.825  -1.351   4.781  0.00  0.00    +0.050 A 
ATOM     30  C   UNL     1      -1.182  -0.949   5.941  0.00  0.00    +0.162 A 
ATOM     31  C   UNL     1       0.208  -0.908   5.984  0.00  0.00    +0.162 A 
ATOM     32  C   UNL     1       0.944  -1.275   4.868  0.00  0.00    +0.055 A 
BRANCH  31  33
ATOM     33  O   UNL     1       0.844  -0.514   7.120  0.00  0.00    -0.491 OA
ATOM     34  C   UNL     1       2.273  -0.496   7.091  0.00  0.00    +0.277 C 
ENDBRANCH  31  33
BRANCH  30  35
ATOM     35  O   UNL     1      -1.908  -0.594   7.035  0.00  0.00    -0.491 OA
ATOM     36  C   UNL     1      -3.331  -0.659   6.918  0.00  0.00    +0.277 C 
ENDBRANCH  30  35
ENDBRANCH   4  27
BRANCH   1  38
ATOM     37  C   UNL     1      -0.609   1.585  -0.440  0.00  0.00    +0.013 C 
ATOM     38  C   UNL     1      -0.465   0.065  -0.336  0.00  0.00    +0.094 C 
ENDBRANCH   1  38
TORSDOF 6
