REMARK  Name = ZINC06322051
REMARK  10 active torsions:
REMARK  status: ('A' for Active; 'I' for Inactive)
REMARK    1  A    between atoms: C_1  and  C_2
REMARK    2  A    between atoms: C_5  and  C_39
REMARK    3  A    between atoms: C_9  and  C_14
REMARK    4  A    between atoms: C_14  and  C_16
REMARK    5  A    between atoms: C_14  and  N_71
REMARK    6  A    between atoms: N_20  and  C_21
REMARK    7  A    between atoms: C_26  and  C_27
REMARK    8  A    between atoms: C_26  and  N_71
REMARK    9  A    between atoms: C_32  and  C_33
REMARK   10  A    between atoms: C_32  and  N_71
REMARK                            x       y       z     vdW  Elec       q    Type
REMARK                         _______ _______ _______ _____ _____    ______ ____
ROOT
ATOM      1  C   UNL     1      -2.435  -4.015   0.454  0.00  0.00    +0.039 C 
ENDROOT
BRANCH   1  10
ATOM      2  C   UNL     1       1.267  -0.353   0.445  0.00  0.00    +0.044 C 
ATOM      3  C   UNL     1       1.958  -1.688   0.347  0.00  0.00    -0.041 A 
ATOM      4  C   UNL     1       3.321  -1.752   0.274  0.00  0.00    +0.004 A 
ATOM      5  C   UNL     1       3.967  -2.977   0.177  0.00  0.00    +0.005 A 
ATOM      6  C   UNL     1       3.247  -4.152   0.153  0.00  0.00    -0.026 A 
ATOM      7  C   UNL     1       1.858  -4.112   0.226  0.00  0.00    +0.052 A 
ATOM      8  C   UNL     1       1.207  -2.868   0.324  0.00  0.00    +0.002 A 
ATOM      9  C   UNL     1      -0.255  -2.837   0.400  0.00  0.00    +0.018 A 
ATOM     10  C   UNL     1      -0.930  -4.012   0.376  0.00  0.00    +0.011 A 
ATOM     11  C   UNL     1      -0.229  -5.233   0.276  0.00  0.00    +0.251 A 
ATOM     12  O   UNL     1      -0.856  -6.278   0.255  0.00  0.00    -0.268 OA
ATOM     13  N   UNL     1       1.113  -5.272   0.205  0.00  0.00    -0.322 N 
ATOM     14  H   UNL     1       1.563  -6.128   0.138  0.00  0.00    +0.169 HD
ATOM     15  C   UNL     1       3.961  -5.475   0.048  0.00  0.00    +0.046 C 
ENDBRANCH   1  10
BRANCH   1  16
ATOM     16  C   UNL     1      -3.004  -4.562  -0.829  0.00  0.00    +0.143 A 
ATOM     17  N   UNL     1      -2.691  -5.699  -1.402  0.00  0.00    -0.115 NA
ATOM     18  N   UNL     1      -3.391  -5.808  -2.478  0.00  0.00    -0.023 NA
ATOM     19  N   UNL     1      -4.143  -4.771  -2.607  0.00  0.00    -0.044 NA
ATOM     20  N   UNL     1      -3.937  -3.982  -1.607  0.00  0.00    -0.227 N 
BRANCH  20  21
ATOM     21  C   UNL     1      -4.593  -2.694  -1.365  0.00  0.00    +0.111 C 
ATOM     22  C   UNL     1      -6.125  -2.861  -1.432  0.00  0.00    +0.027 C 
ATOM     23  C   UNL     1      -6.619  -1.557  -2.108  0.00  0.00    +0.002 C 
ATOM     24  C   UNL     1      -5.524  -1.286  -3.169  0.00  0.00    +0.002 C 
ATOM     25  C   UNL     1      -4.210  -1.693  -2.470  0.00  0.00    +0.027 C 
ENDBRANCH  20  21
ENDBRANCH   1  16
BRANCH   1  26
ATOM     26  N   UNL     1      -2.851  -4.882   1.577  0.00  0.00    +0.396 N 
ATOM     27  H   UNL     1      -2.339  -5.770   1.520  0.00  0.00    -0.080 HD
BRANCH  26  28
ATOM     28  C   UNL     1      -2.534  -4.228   2.864  0.00  0.00    -0.002 C 
BRANCH  28  29
ATOM     29  C   UNL     1      -1.065  -4.404   3.147  0.00  0.00    +0.089 A 
ATOM     30  C   UNL     1      -0.175  -3.413   3.337  0.00  0.00    +0.042 A 
ATOM     31  C   UNL     1       1.077  -4.026   3.572  0.00  0.00    +0.041 A 
ATOM     32  C   UNL     1       0.880  -5.355   3.503  0.00  0.00    +0.195 A 
ATOM     33  O   UNL     1      -0.419  -5.578   3.245  0.00  0.00    -0.470 OA
ENDBRANCH  28  29
ENDBRANCH  26  28
BRANCH  26  34
ATOM     34  C   UNL     1      -4.301  -5.157   1.493  0.00  0.00    -0.045 C 
BRANCH  34  35
ATOM     35  C   UNL     1      -4.506  -6.446   0.694  0.00  0.00    +0.102 C 
ATOM     36  C   UNL     1      -6.008  -6.796   0.615  0.00  0.00    +0.032 C 
ATOM     37  C   UNL     1      -6.040  -8.338   0.715  0.00  0.00    +0.030 C 
ATOM     38  C   UNL     1      -4.553  -8.736   0.843  0.00  0.00    +0.160 C 
ATOM     39  O   UNL     1      -3.901  -7.564   1.379  0.00  0.00    -0.378 OA
ENDBRANCH  34  35
ENDBRANCH  26  34
ENDBRANCH   1  26
TORSDOF 8
