REMARK  Name = ZINC13064373
REMARK  12 active torsions:
REMARK  status: ('A' for Active; 'I' for Inactive)
REMARK    1  A    between atoms: C_1  and  C_2
REMARK    2  A    between atoms: C_2  and  C_3
REMARK    3  A    between atoms: C_3  and  C_5
REMARK    4  A    between atoms: C_3  and  N_68
REMARK    5  A    between atoms: N_9  and  C_10
REMARK    6  A    between atoms: C_10  and  C_11
REMARK    7  A    between atoms: C_10  and  C_12
REMARK    8  A    between atoms: C_10  and  C_13
REMARK    9  A    between atoms: C_14  and  C_15
REMARK   10  A    between atoms: C_14  and  N_68
REMARK   11  A    between atoms: C_22  and  C_23
REMARK   12  A    between atoms: C_22  and  N_68
REMARK                            x       y       z     vdW  Elec       q    Type
REMARK                         _______ _______ _______ _____ _____    ______ ____
ROOT
ATOM      1  N   UNL     1       1.252  -2.903  -1.743  0.00  0.00    +0.392 N 
ATOM      2  H   UNL     1       0.462  -2.431  -2.198  0.00  0.00    -0.080 HD
ENDROOT
BRANCH   1   3
ATOM      3  C   UNL     1       2.495  -2.568  -2.469  0.00  0.00    +0.003 C 
BRANCH   3   4
ATOM      4  C   UNL     1       2.359  -1.180  -3.038  0.00  0.00    +0.139 A 
ATOM      5  N   UNL     1       1.768  -0.156  -2.472  0.00  0.00    -0.115 NA
ATOM      6  N   UNL     1       1.862   0.850  -3.271  0.00  0.00    -0.023 NA
ATOM      7  N   UNL     1       2.498   0.495  -4.332  0.00  0.00    -0.043 NA
ATOM      8  N   UNL     1       2.826  -0.748  -4.225  0.00  0.00    -0.226 N 
BRANCH   8   9
ATOM      9  C   UNL     1       3.564  -1.542  -5.210  0.00  0.00    +0.059 C 
ATOM     10  C   UNL     1       2.646  -2.622  -5.787  0.00  0.00    +0.036 C 
ATOM     11  C   UNL     1       4.050  -0.630  -6.338  0.00  0.00    +0.036 C 
ATOM     12  C   UNL     1       4.767  -2.204  -4.534  0.00  0.00    +0.036 C 
ENDBRANCH   8   9
ENDBRANCH   3   4
BRANCH   3  14
ATOM     13  C   UNL     1       3.866  -4.039  -0.986  0.00  0.00    +0.002 C 
ATOM     14  C   UNL     1       3.695  -2.616  -1.522  0.00  0.00    -0.011 C 
ENDBRANCH   3  14
ENDBRANCH   1   3
BRANCH   1  15
ATOM     15  C   UNL     1       1.345  -2.441  -0.342  0.00  0.00    -0.042 C 
BRANCH  15  16
ATOM     16  C   UNL     1       1.082  -0.958  -0.305  0.00  0.00    -0.064 A 
ATOM     17  C   UNL     1      -0.201  -0.478  -0.494  0.00  0.00    +0.004 A 
ATOM     18  C   UNL     1      -0.442   0.882  -0.460  0.00  0.00    +0.038 A 
ATOM     19  C   UNL     1       0.601   1.764  -0.237  0.00  0.00    +0.123 A 
ATOM     20  C   UNL     1       1.885   1.283  -0.049  0.00  0.00    +0.038 A 
ATOM     21  C   UNL     1       2.125  -0.077  -0.083  0.00  0.00    +0.004 A 
ATOM     22  F   UNL     1       0.365   3.095  -0.204  0.00  0.00    -0.205 F 
ENDBRANCH  15  16
ENDBRANCH   1  15
BRANCH   1  23
ATOM     23  C   UNL     1       1.023  -4.363  -1.779  0.00  0.00    -0.036 C 
BRANCH  23  24
ATOM     24  C   UNL     1       0.550  -4.745  -3.158  0.00  0.00    +0.001 A 
ATOM     25  C   UNL     1       1.437  -5.214  -4.072  0.00  0.00    +0.017 A 
ATOM     26  C   UNL     1       0.945  -5.580  -5.400  0.00  0.00    +0.002 A 
ATOM     27  C   UNL     1       1.813  -6.073  -6.381  0.00  0.00    +0.059 A 
ATOM     28  C   UNL     1       1.322  -6.406  -7.626  0.00  0.00    +0.163 A 
ATOM     29  C   UNL     1      -0.038  -6.253  -7.910  0.00  0.00    +0.164 A 
ATOM     30  C   UNL     1      -0.904  -5.766  -6.946  0.00  0.00    +0.075 A 
ATOM     31  C   UNL     1      -0.425  -5.425  -5.687  0.00  0.00    +0.053 A 
ATOM     32  N   UNL     1      -1.274  -4.936  -4.715  0.00  0.00    -0.322 N 
ATOM     33  H   UNL     1      -2.217  -4.829  -4.914  0.00  0.00    +0.169 HD
ATOM     34  C   UNL     1      -0.812  -4.607  -3.496  0.00  0.00    +0.251 A 
ATOM     35  O   UNL     1      -1.591  -4.179  -2.661  0.00  0.00    -0.268 OA
ATOM     36  O   UNL     1      -0.532  -6.583  -9.134  0.00  0.00    -0.485 OA
ATOM     37  C   UNL     1       0.417  -6.715 -10.197  0.00  0.00    +0.270 C 
ATOM     38  C   UNL     1       1.595  -7.558  -9.689  0.00  0.00    +0.270 C 
ATOM     39  O   UNL     1       2.180  -6.882  -8.571  0.00  0.00    -0.485 OA
ENDBRANCH  23  24
ENDBRANCH   1  23
TORSDOF 8
