REMARK  Name = ZINC64847090
REMARK  8 active torsions:
REMARK  status: ('A' for Active; 'I' for Inactive)
REMARK    1  A    between atoms: C_1  and  N_2
REMARK    2  A    between atoms: N_2  and  C_3
REMARK    3  A    between atoms: N_2  and  C_24
REMARK    4  A    between atoms: C_3  and  C_4
REMARK    5  A    between atoms: C_4  and  N_5
REMARK    6  A    between atoms: C_6  and  C_8
REMARK    7  A    between atoms: C_8  and  C_9
REMARK    8  A    between atoms: N_17  and  C_18
REMARK                            x       y       z     vdW  Elec       q    Type
REMARK                         _______ _______ _______ _____ _____    ______ ____
ROOT
ATOM      1  C   UNL     1       0.748  -0.793  -6.103  0.00  0.00    +0.099 C 
ENDROOT
BRANCH   1   2
ATOM      2  C   UNL     1      -0.061  -0.394  -7.339  0.00  0.00    +0.001 C 
ATOM      3  C   UNL     1      -0.088   1.132  -7.459  0.00  0.00    +0.023 C 
ATOM      4  C   UNL     1      -0.928   1.529  -8.677  0.00  0.00    +0.109 C 
ATOM      5  N   UNL     1      -0.398   0.841  -9.861  0.00  0.00    -0.286 N 
ATOM      6  C   UNL     1      -0.244  -0.620  -9.820  0.00  0.00    +0.109 C 
ATOM      7  C   UNL     1       0.588  -0.993  -8.588  0.00  0.00    +0.023 C 
ATOM      8  C   UNL     1      -0.059   1.535 -10.966  0.00  0.00    +0.302 C 
ATOM      9  O   UNL     1      -0.276   2.730 -11.022  0.00  0.00    -0.253 OA
ATOM     10  N   UNL     1       0.520   0.905 -12.007  0.00  0.00    -0.296 N 
ATOM     11  H   UNL     1       0.626  -0.059 -11.992  0.00  0.00    +0.151 HD
BRANCH  10  12
ATOM     12  C   UNL     1       0.989   1.677 -13.161  0.00  0.00    +0.074 C 
ATOM     13  C   UNL     1       2.399   2.203 -12.883  0.00  0.00    +0.022 C 
ATOM     14  C   UNL     1       2.889   3.008 -14.088  0.00  0.00    +0.002 C 
ATOM     15  C   UNL     1       2.914   2.110 -15.327  0.00  0.00    +0.000 C 
ATOM     16  C   UNL     1       1.504   1.584 -15.604  0.00  0.00    +0.002 C 
ATOM     17  C   UNL     1       1.014   0.778 -14.399  0.00  0.00    +0.022 C 
ENDBRANCH  10  12
ENDBRANCH   1   2
BRANCH   1  19
ATOM     18  N   UNL     1       0.576  -0.546  -3.648  0.00  0.00    -0.317 N 
ATOM     19  C   UNL     1       0.044  -0.307  -4.863  0.00  0.00    +0.213 C 
ATOM     20  O   UNL     1      -1.002   0.299  -4.958  0.00  0.00    -0.276 OA
ATOM     21  H   UNL     1       1.413  -1.031  -3.572  0.00  0.00    +0.149 HD
BRANCH  18  22
ATOM     22  C   UNL     1      -0.109  -0.073  -2.442  0.00  0.00    +0.085 C 
BRANCH  22  23
ATOM     23  C   UNL     1       0.700  -0.473  -1.206  0.00  0.00    -0.060 C 
BRANCH  23  25
ATOM     24  C   UNL     1      -0.007   1.470   0.010  0.00  0.00    -0.096 C 
ATOM     25  N   UNL     1       0.013   0.001   0.003  0.00  0.00    +0.381 N 
ATOM     26  H   UNL     1      -0.933  -0.349   0.011  0.00  0.00    -0.082 HD
BRANCH  25  27
ATOM     27  C   UNL     1       0.725  -0.485   1.192  0.00  0.00    -0.069 C 
ATOM     28  C   UNL     1       0.747  -2.015   1.185  0.00  0.00    -0.015 C 
ATOM     29  C   UNL     1       1.488  -2.521   2.424  0.00  0.00    -0.002 C 
ATOM     30  C   UNL     1       0.773  -2.027   3.683  0.00  0.00    -0.000 C 
ATOM     31  C   UNL     1       0.752  -0.497   3.691  0.00  0.00    -0.002 C 
ATOM     32  C   UNL     1       0.010   0.009   2.451  0.00  0.00    -0.015 C 
ENDBRANCH  25  27
ENDBRANCH  23  25
ENDBRANCH  22  23
ENDBRANCH  18  22
ENDBRANCH   1  19
TORSDOF 7
