REMARK  Name = ZINC15224320
REMARK  5 active torsions:
REMARK  status: ('A' for Active; 'I' for Inactive)
REMARK    1  A    between atoms: C_9  and  C_11
REMARK    2  A    between atoms: C_11  and  C_27
REMARK    3  A    between atoms: C_12  and  C_13
REMARK    4  A    between atoms: C_16  and  C_18
REMARK    5  A    between atoms: C_21  and  N_24
REMARK                            x       y       z     vdW  Elec       q    Type
REMARK                         _______ _______ _______ _____ _____    ______ ____
ROOT
ATOM      1  C   UNL     1       4.918   2.826   0.698  0.00  0.00    +0.097 C 
ATOM      2  C   UNL     1       5.234   3.896  -0.163  0.00  0.00    +0.068 C 
ENDROOT
BRANCH   1  11
ATOM      3  C   UNL     1       0.958   2.990   5.119  0.00  0.00    +0.002 A 
ATOM      4  C   UNL     1       0.947   4.349   4.811  0.00  0.00    +0.002 A 
ATOM      5  C   UNL     1       1.726   4.844   3.811  0.00  0.00    +0.030 A 
ATOM      6  C   UNL     1       2.562   3.975   3.079  0.00  0.00    +0.089 A 
ATOM      7  C   UNL     1       2.574   2.594   3.399  0.00  0.00    +0.066 A 
ATOM      8  C   UNL     1       1.768   2.118   4.423  0.00  0.00    +0.028 A 
ATOM      9  N   UNL     1       3.467   2.006   2.534  0.00  0.00    -0.337 N 
ATOM     10  H   UNL     1       3.709   1.036   2.495  0.00  0.00    +0.167 HD
ATOM     11  C   UNL     1       3.964   3.006   1.732  0.00  0.00    +0.150 A 
ATOM     12  N   UNL     1       3.416   4.159   2.071  0.00  0.00    -0.227 NA
ENDBRANCH   1  11
BRANCH   2  13
ATOM     13  C   UNL     1       4.482   5.060  -0.127  0.00  0.00    +0.130 A 
ATOM     14  C   UNL     1       4.987   6.426  -0.286  0.00  0.00    +0.050 A 
ATOM     15  C   UNL     1       3.906   7.247  -0.181  0.00  0.00    +0.050 A 
ATOM     16  C   UNL     1       2.775   6.436   0.035  0.00  0.00    +0.136 A 
ATOM     17  O   UNL     1       3.146   5.145   0.057  0.00  0.00    -0.455 OA
BRANCH  16  18
ATOM     18  C   UNL     1       1.405   6.924   0.203  0.00  0.00    +0.017 A 
ATOM     19  C   UNL     1       1.145   8.305   0.230  0.00  0.00    +0.014 A 
ATOM     20  C   UNL     1      -0.147   8.754   0.384  0.00  0.00    +0.033 A 
ATOM     21  C   UNL     1      -1.189   7.848   0.522  0.00  0.00    +0.126 A 
ATOM     22  C   UNL     1      -0.942   6.484   0.503  0.00  0.00    +0.033 A 
ATOM     23  C   UNL     1       0.343   6.015   0.345  0.00  0.00    +0.014 A 
BRANCH  21  24
ATOM     24  N   UNL     1      -2.574   8.342   0.693  0.00  0.00    +0.056 N 
ATOM     25  O   UNL     1      -3.566   7.486   0.825  0.00  0.00    -0.126 OA
ATOM     26  O   UNL     1      -2.814   9.637   0.712  0.00  0.00    -0.126 OA
ENDBRANCH  21  24
ENDBRANCH  16  18
ENDBRANCH   2  13
BRANCH   1  27
ATOM     27  C   UNL     1       5.561   1.558   0.529  0.00  0.00    +0.103 C 
ATOM     28  N   UNL     1       6.071   0.552   0.395  0.00  0.00    -0.191 NA
ENDBRANCH   1  27
TORSDOF 5
