REMARK  Name = ZINC09483477
REMARK  6 active torsions:
REMARK  status: ('A' for Active; 'I' for Inactive)
REMARK    1  A    between atoms: C_1  and  C_2
REMARK    2  A    between atoms: C_10  and  C_12
REMARK    3  A    between atoms: C_16  and  O_18
REMARK    4  A    between atoms: O_18  and  C_19
REMARK    5  A    between atoms: C_23  and  C_26
REMARK    6  A    between atoms: C_29  and  O_32
REMARK                            x       y       z     vdW  Elec       q    Type
REMARK                         _______ _______ _______ _____ _____    ______ ____
ROOT
ATOM      1  C   UNL     1       2.150  -5.311   0.043  0.00  0.00    +0.069 C 
ATOM      2  C   UNL     1       2.855  -4.109   0.618  0.00  0.00    +0.087 A 
ATOM      3  C   UNL     1       2.332  -2.829   0.777  0.00  0.00    +0.049 A 
ATOM      4  C   UNL     1       3.357  -2.107   1.334  0.00  0.00    +0.226 A 
ATOM      5  O   UNL     1       4.375  -2.949   1.471  0.00  0.00    -0.339 OA
ATOM      6  N   UNL     1       4.085  -4.059   1.068  0.00  0.00    -0.081 NA
ATOM      7  N   UNL     1       3.206  -0.768   1.633  0.00  0.00    -0.286 N 
ATOM      8  C   UNL     1       2.128  -0.094   1.110  0.00  0.00    +0.019 C 
ATOM      9  C   UNL     1       1.079  -0.729   0.544  0.00  0.00    +0.024 C 
ATOM     10  C   UNL     1       0.995  -2.240   0.462  0.00  0.00    +0.091 C 
ATOM     11  C   UNL     1       0.002  -0.004   0.002  0.00  0.00    +0.162 C 
ATOM     12  O   UNL     1      -0.934  -0.607  -0.485  0.00  0.00    -0.292 OA
ATOM     13  C   UNL     1      -0.018   1.499   0.010  0.00  0.00    +0.088 C 
ATOM     14  C   UNL     1       1.424   2.016  -0.001  0.00  0.00    +0.032 C 
ATOM     15  C   UNL     1       2.159   1.415   1.199  0.00  0.00    +0.059 C 
ATOM     16  H   UNL     1       3.847  -0.313   2.200  0.00  0.00    +0.155 HD
ENDROOT
BRANCH  10  17
ATOM     17  C   UNL     1      -0.021  -2.740   1.456  0.00  0.00    -0.032 A 
ATOM     18  C   UNL     1       0.151  -2.492   2.805  0.00  0.00    +0.005 A 
ATOM     19  C   UNL     1      -0.783  -2.946   3.719  0.00  0.00    +0.004 A 
ATOM     20  C   UNL     1      -1.885  -3.658   3.286  0.00  0.00    +0.045 A 
ATOM     21  C   UNL     1      -2.057  -3.913   1.933  0.00  0.00    +0.120 A 
ATOM     22  C   UNL     1      -1.122  -3.452   1.018  0.00  0.00    +0.050 A 
BRANCH  21  23
ATOM     23  O   UNL     1      -3.140  -4.614   1.506  0.00  0.00    -0.495 OA
ATOM     24  C   UNL     1      -4.062  -5.057   2.503  0.00  0.00    +0.277 C 
ENDBRANCH  21  23
ENDBRANCH  10  17
BRANCH  14  25
ATOM     25  C   UNL     1       1.426   3.519   0.103  0.00  0.00    -0.043 A 
ATOM     26  C   UNL     1       0.857   4.135   1.202  0.00  0.00    +0.007 A 
ATOM     27  C   UNL     1       0.862   5.513   1.303  0.00  0.00    +0.045 A 
ATOM     28  C   UNL     1       1.429   6.279   0.295  0.00  0.00    +0.117 A 
ATOM     29  C   UNL     1       1.995   5.658  -0.810  0.00  0.00    +0.045 A 
ATOM     30  C   UNL     1       1.992   4.280  -0.903  0.00  0.00    +0.007 A 
BRANCH  28  31
ATOM     31  O   UNL     1       1.432   7.635   0.389  0.00  0.00    -0.507 OA
ATOM     32  H   UNL     1       0.653   8.057   0.000  0.00  0.00    +0.292 HD
ENDBRANCH  28  31
ENDBRANCH  14  25
TORSDOF 4
