REMARK  Name = ZINC39362306
REMARK  6 active torsions:
REMARK  status: ('A' for Active; 'I' for Inactive)
REMARK    1  A    between atoms: C_1  and  C_2
REMARK    2  A    between atoms: C_2  and  C_3
REMARK    3  A    between atoms: C_2  and  C_4
REMARK    4  A    between atoms: N_13  and  C_14
REMARK    5  A    between atoms: C_20  and  C_22
REMARK    6  A    between atoms: C_22  and  C_23
REMARK                            x       y       z     vdW  Elec       q    Type
REMARK                         _______ _______ _______ _____ _____    ______ ____
ROOT
ATOM      1  C   UNL     1       1.536  -2.764   0.170  0.00  0.00    +0.080 C 
ATOM      2  C   UNL     1       2.574  -3.674   0.830  0.00  0.00    +0.041 C 
ATOM      3  C   UNL     1       3.306  -4.476  -0.251  0.00  0.00    +0.109 C 
ATOM      4  N   UNL     1       2.312  -5.187  -1.066  0.00  0.00    -0.301 N 
ATOM      5  C   UNL     1       1.216  -4.420  -1.674  0.00  0.00    +0.109 C 
ATOM      6  C   UNL     1       0.508  -3.618  -0.577  0.00  0.00    +0.041 C 
ATOM      7  C   UNL     1       2.403  -6.519  -1.253  0.00  0.00    +0.220 C 
ATOM      8  O   UNL     1       3.312  -7.142  -0.747  0.00  0.00    -0.275 OA
ENDROOT
BRANCH   1  17
ATOM      9  C   UNL     1       0.853  -0.508   1.304  0.00  0.00    +0.163 C 
ATOM     10  N   UNL     1       0.044  -0.194   2.488  0.00  0.00    -0.323 N 
ATOM     11  C   UNL     1      -0.390  -1.412   3.026  0.00  0.00    +0.067 A 
ATOM     12  C   UNL     1      -1.177  -1.686   4.138  0.00  0.00    +0.028 A 
ATOM     13  C   UNL     1      -1.453  -3.011   4.444  0.00  0.00    +0.019 A 
ATOM     14  C   UNL     1      -0.942  -4.009   3.640  0.00  0.00    +0.084 A 
ATOM     15  N   UNL     1      -0.197  -3.721   2.590  0.00  0.00    -0.348 N 
ATOM     16  C   UNL     1       0.094  -2.470   2.257  0.00  0.00    +0.122 A 
ATOM     17  N   UNL     1       0.857  -1.972   1.198  0.00  0.00    -0.293 N 
ATOM     18  H   UNL     1      -0.153   0.691   2.833  0.00  0.00    +0.148 HD
ATOM     19  H   UNL     1       0.148  -4.446   2.045  0.00  0.00    +0.167 HD
BRANCH   9  21
ATOM     20  C   UNL     1      -1.230  -0.357  -0.069  0.00  0.00    +0.011 C 
ATOM     21  C   UNL     1       0.222   0.110   0.054  0.00  0.00    +0.021 C 
ATOM     22  C   UNL     1       0.260   1.635   0.165  0.00  0.00    +0.011 C 
ENDBRANCH   9  21
ENDBRANCH   1  17
BRANCH   7  23
ATOM     23  C   UNL     1       1.376  -7.234  -2.092  0.00  0.00    +0.133 C 
BRANCH  23  24
ATOM     24  C   UNL     1       1.704  -8.704  -2.143  0.00  0.00    -0.014 A 
ATOM     25  C   UNL     1       1.320  -9.717  -1.158  0.00  0.00    +0.003 A 
ATOM     26  C   UNL     1       0.599  -9.684   0.037  0.00  0.00    +0.010 A 
ATOM     27  C   UNL     1       0.408 -10.837   0.746  0.00  0.00    +0.001 A 
ATOM     28  C   UNL     1       0.926 -12.040   0.288  0.00  0.00    +0.002 A 
ATOM     29  C   UNL     1       1.641 -12.096  -0.888  0.00  0.00    +0.026 A 
ATOM     30  C   UNL     1       1.847 -10.935  -1.626  0.00  0.00    +0.047 A 
ATOM     31  N   UNL     1       2.499 -10.667  -2.809  0.00  0.00    -0.360 N 
ATOM     32  C   UNL     1       2.398  -9.334  -3.104  0.00  0.00    +0.087 A 
ATOM     33  H   UNL     1       2.958 -11.325  -3.354  0.00  0.00    +0.165 HD
ENDBRANCH  23  24
ENDBRANCH   7  23
TORSDOF 4
