REMARK  Name = ZINC23523760
REMARK  9 active torsions:
REMARK  status: ('A' for Active; 'I' for Inactive)
REMARK    1  A    between atoms: C_1  and  C_2
REMARK    2  A    between atoms: C_2  and  O_3
REMARK    3  A    between atoms: O_3  and  C_4
REMARK    4  A    between atoms: C_9  and  N_10
REMARK    5  A    between atoms: C_11  and  S_15
REMARK    6  A    between atoms: S_15  and  C_16
REMARK    7  A    between atoms: C_16  and  C_17
REMARK    8  A    between atoms: C_26  and  O_29
REMARK    9  A    between atoms: C_27  and  C_28
REMARK                            x       y       z     vdW  Elec       q    Type
REMARK                         _______ _______ _______ _____ _____    ______ ____
ROOT
ATOM      1  S   UNL     1      -2.183  -1.115   1.712  0.00  0.00    -0.080 S 
ENDROOT
BRANCH   1   3
ATOM      2  N   UNL     1      -2.591  -3.800   2.351  0.00  0.00    -0.184 N 
ATOM      3  C   UNL     1      -2.441  -2.832   1.413  0.00  0.00    +0.214 A 
ATOM      4  N   UNL     1      -2.518  -3.418   0.238  0.00  0.00    -0.101 NA
ATOM      5  N   UNL     1      -2.710  -4.680   0.376  0.00  0.00    -0.022 NA
ATOM      6  N   UNL     1      -2.770  -4.991   1.625  0.00  0.00    -0.038 NA
BRANCH   2  12
ATOM      7  C   UNL     1      -1.815  -4.506   4.534  0.00  0.00    +0.146 A 
ATOM      8  C   UNL     1      -1.798  -4.346   5.911  0.00  0.00    +0.048 A 
ATOM      9  C   UNL     1      -2.543  -3.341   6.499  0.00  0.00    +0.004 A 
ATOM     10  C   UNL     1      -3.303  -2.490   5.717  0.00  0.00    +0.002 A 
ATOM     11  C   UNL     1      -3.320  -2.640   4.343  0.00  0.00    +0.031 A 
ATOM     12  C   UNL     1      -2.575  -3.646   3.746  0.00  0.00    +0.111 A 
BRANCH   7  13
ATOM     13  O   UNL     1      -1.086  -5.497   3.955  0.00  0.00    -0.490 OA
BRANCH  13  15
ATOM     14  C   UNL     1       0.417  -7.388   3.999  0.00  0.00    +0.048 C 
ATOM     15  C   UNL     1      -0.331  -6.341   4.826  0.00  0.00    +0.226 C 
ENDBRANCH  13  15
ENDBRANCH   7  13
ENDBRANCH   2  12
ENDBRANCH   1   3
BRANCH   1  16
ATOM     16  C   UNL     1      -2.074  -0.511   0.009  0.00  0.00    +0.113 C 
BRANCH  16  17
ATOM     17  C   UNL     1      -1.848   0.979   0.018  0.00  0.00    -0.020 A 
ATOM     18  C   UNL     1      -2.896   1.843   0.009  0.00  0.00    +0.097 A 
ATOM     19  C   UNL     1      -2.658   3.233   0.017  0.00  0.00    +0.338 A 
ATOM     20  O   UNL     1      -3.606   3.997   0.010  0.00  0.00    -0.245 OA
ATOM     21  O   UNL     1      -1.413   3.736   0.044  0.00  0.00    -0.422 OA
ATOM     22  C   UNL     1      -0.329   2.931   0.047  0.00  0.00    +0.146 A 
ATOM     23  C   UNL     1      -0.493   1.533   0.034  0.00  0.00    +0.022 A 
ATOM     24  C   UNL     1       0.628   0.696   0.042  0.00  0.00    +0.015 A 
ATOM     25  C   UNL     1       1.880   1.240   0.051  0.00  0.00    +0.046 A 
ATOM     26  C   UNL     1       2.049   2.623   0.057  0.00  0.00    +0.123 A 
ATOM     27  C   UNL     1       0.950   3.466   0.056  0.00  0.00    +0.034 A 
ATOM     28  C   UNL     1       1.144   4.961   0.063  0.00  0.00    +0.051 C 
BRANCH  26  29
ATOM     29  O   UNL     1       3.301   3.148   0.066  0.00  0.00    -0.506 OA
ATOM     30  H   UNL     1       3.440   4.239   0.071  0.00  0.00    +0.292 HD
ENDBRANCH  26  29
ENDBRANCH  16  17
ENDBRANCH   1  16
TORSDOF 7
