REMARK  Name = ZINC10751239
REMARK  8 active torsions:
REMARK  status: ('A' for Active; 'I' for Inactive)
REMARK    1  A    between atoms: C_1  and  C_2
REMARK    2  A    between atoms: C_2  and  C_3
REMARK    3  A    between atoms: C_3  and  N_60
REMARK    4  A    between atoms: C_9  and  N_14
REMARK    5  A    between atoms: C_10  and  C_11
REMARK    6  A    between atoms: C_15  and  C_17
REMARK    7  A    between atoms: N_22  and  S_24
REMARK    8  A    between atoms: S_24  and  C_27
REMARK                            x       y       z     vdW  Elec       q    Type
REMARK                         _______ _______ _______ _____ _____    ______ ____
ROOT
ATOM      1  C   UNL     1       1.653  -6.719  -1.899  0.00  0.00    -0.074 C 
ATOM      2  C   UNL     1       1.576  -5.404  -2.680  0.00  0.00    +0.018 C 
ATOM      3  C   UNL     1       1.035  -4.328  -1.745  0.00  0.00    -0.027 A 
ATOM      4  C   UNL     1       0.395  -4.678  -0.607  0.00  0.00    -0.021 A 
ATOM      5  S   UNL     1      -0.050  -3.143   0.151  0.00  0.00    -0.079 S 
ATOM      6  C   UNL     1       0.604  -2.051  -1.026  0.00  0.00    +0.084 A 
ATOM      7  C   UNL     1       1.146  -2.901  -1.981  0.00  0.00    +0.068 A 
ATOM      8  C   UNL     1       0.135  -6.071  -0.126  0.00  0.00    -0.035 C 
ATOM      9  N   UNL     1       0.345  -6.993  -1.269  0.00  0.00    +0.383 N 
ATOM     10  H   UNL     1      -0.398  -6.841  -1.962  0.00  0.00    -0.081 HD
ENDROOT
BRANCH   7  11
ATOM     11  C   UNL     1       1.808  -2.376  -3.179  0.00  0.00    +0.244 C 
ATOM     12  O   UNL     1       3.004  -2.149  -3.163  0.00  0.00    -0.270 OA
ATOM     13  N   UNL     1       1.093  -2.146  -4.298  0.00  0.00    -0.325 N 
ATOM     14  H   UNL     1       0.141  -2.327  -4.311  0.00  0.00    +0.145 HD
ATOM     15  H   UNL     1       1.532  -1.798  -5.090  0.00  0.00    +0.145 HD
ENDBRANCH   7  11
BRANCH   6  16
ATOM     16  N   UNL     1       0.585  -0.664  -1.018  0.00  0.00    -0.279 N 
ATOM     17  C   UNL     1       0.002  -0.004   0.002  0.00  0.00    +0.222 C 
ATOM     18  O   UNL     1      -0.506  -0.622   0.913  0.00  0.00    -0.275 OA
ATOM     19  H   UNL     1       0.992  -0.170  -1.747  0.00  0.00    +0.155 HD
BRANCH  17  20
ATOM     20  C   UNL     1      -0.018   1.503   0.010  0.00  0.00    +0.091 C 
ATOM     21  C   UNL     1      -0.760   2.010  -1.228  0.00  0.00    +0.015 C 
ATOM     22  C   UNL     1      -0.753   3.541  -1.238  0.00  0.00    +0.018 C 
ATOM     23  C   UNL     1      -1.480   4.059   0.008  0.00  0.00    +0.109 C 
ATOM     24  N   UNL     1      -0.863   3.460   1.199  0.00  0.00    -0.175 NA
ATOM     25  C   UNL     1      -0.737   1.998   1.270  0.00  0.00    +0.122 C 
BRANCH  24  26
ATOM     26  S   UNL     1      -0.319   4.414   2.438  0.00  0.00    +0.067 S 
ATOM     27  O   UNL     1      -1.046   5.633   2.361  0.00  0.00    -0.152 OA
ATOM     28  O   UNL     1      -0.313   3.603   3.604  0.00  0.00    -0.152 OA
BRANCH  26  29
ATOM     29  C   UNL     1       1.363   4.809   2.091  0.00  0.00    +0.143 A 
ATOM     30  C   UNL     1       1.868   5.859   1.398  0.00  0.00    +0.036 A 
ATOM     31  C   UNL     1       3.238   5.968   1.250  0.00  0.00    +0.010 A 
ATOM     32  C   UNL     1       4.037   5.022   1.804  0.00  0.00    +0.047 A 
ATOM     33  S   UNL     1       2.845   3.935   2.569  0.00  0.00    -0.077 S 
ENDBRANCH  26  29
ENDBRANCH  24  26
ENDBRANCH  17  20
ENDBRANCH   6  16
BRANCH   9  34
ATOM     34  C   UNL     1       0.290  -8.396  -0.805  0.00  0.00    -0.079 C 
BRANCH  34  36
ATOM     35  C   UNL     1       1.372 -10.144   0.614  0.00  0.00    +0.002 C 
ATOM     36  C   UNL     1       1.449  -8.688   0.150  0.00  0.00    -0.022 C 
ENDBRANCH  34  36
ENDBRANCH   9  34
TORSDOF 7
