REMARK  Name = ZINC43221486
REMARK  8 active torsions:
REMARK  status: ('A' for Active; 'I' for Inactive)
REMARK    1  A    between atoms: C_1  and  C_2
REMARK    2  A    between atoms: C_2  and  C_3
REMARK    3  A    between atoms: C_3  and  C_4
REMARK    4  A    between atoms: C_4  and  N_5
REMARK    5  A    between atoms: C_10  and  C_32
REMARK    6  A    between atoms: C_13  and  C_18
REMARK    7  A    between atoms: C_13  and  C_29
REMARK    8  A    between atoms: C_18  and  C_19
REMARK                            x       y       z     vdW  Elec       q    Type
REMARK                         _______ _______ _______ _____ _____    ______ ____
ROOT
ATOM      1  N   UNL     1       1.425  -2.500  -2.470  0.00  0.00    -0.242 N 
ATOM      2  C   UNL     1       0.786  -2.750  -3.660  0.00  0.00    +0.224 C 
ATOM      3  O   UNL     1      -0.339  -2.429  -3.978  0.00  0.00    -0.275 OA
ATOM      4  C   UNL     1       1.749  -3.479  -4.448  0.00  0.00    +0.077 C 
ATOM      5  C   UNL     1       2.049  -3.817  -5.850  0.00  0.00    -0.027 C 
ATOM      6  N   UNL     1       3.420  -4.423  -5.742  0.00  0.00    +0.396 N 
ATOM      7  C   UNL     1       4.048  -3.911  -4.488  0.00  0.00    +0.052 C 
ATOM      8  C   UNL     1       3.105  -2.803  -3.998  0.00  0.00    +0.086 C 
ATOM      9  C   UNL     1       2.769  -2.733  -2.534  0.00  0.00    +0.225 C 
ATOM     10  O   UNL     1       3.534  -2.861  -1.602  0.00  0.00    -0.275 OA
ATOM     11  H   UNL     1       3.346  -5.429  -5.701  0.00  0.00    -0.083 HD
ATOM     12  H   UNL     1       3.977  -4.153  -6.538  0.00  0.00    -0.083 HD
ENDROOT
BRANCH   5  13
ATOM     13  C   UNL     1       1.058  -4.818  -6.386  0.00  0.00    -0.057 A 
ATOM     14  C   UNL     1       1.198  -6.159  -6.082  0.00  0.00    +0.006 A 
ATOM     15  C   UNL     1       0.292  -7.080  -6.572  0.00  0.00    +0.049 A 
ATOM     16  C   UNL     1      -0.761  -6.661  -7.371  0.00  0.00    +0.162 A 
ATOM     17  C   UNL     1      -0.904  -5.312  -7.674  0.00  0.00    +0.162 A 
ATOM     18  C   UNL     1       0.006  -4.393  -7.176  0.00  0.00    +0.051 A 
ATOM     19  O   UNL     1      -1.936  -4.879  -8.450  0.00  0.00    -0.485 OA
ATOM     20  C   UNL     1      -2.614  -5.869  -9.231  0.00  0.00    +0.270 C 
ATOM     21  C   UNL     1      -2.895  -7.080  -8.332  0.00  0.00    +0.270 C 
ATOM     22  O   UNL     1      -1.643  -7.580  -7.849  0.00  0.00    -0.485 OA
ENDBRANCH   5  13
BRANCH   7  23
ATOM     23  C   UNL     1       5.407  -3.330  -4.785  0.00  0.00    +0.347 C 
ATOM     24  O   UNL     1       5.845  -3.354  -5.922  0.00  0.00    -0.248 OA
ATOM     25  O   UNL     1       6.067  -2.835  -3.888  0.00  0.00    -0.248 OA
ENDBRANCH   7  23
BRANCH   1  26
ATOM     26  C   UNL     1       0.739  -2.027  -1.265  0.00  0.00    +0.116 C 
BRANCH  26  27
ATOM     27  C   UNL     1       0.718  -0.497  -1.257  0.00  0.00    +0.019 C 
BRANCH  27  29
ATOM     28  C   UNL     1      -0.019   1.526   0.010  0.00  0.00    +0.004 C 
ATOM     29  C   UNL     1       0.002  -0.004   0.002  0.00  0.00    -0.002 C 
ENDBRANCH  27  29
ENDBRANCH  26  27
ENDBRANCH   1  26
BRANCH   7  30
ATOM     30  C   UNL     1       4.166  -5.035  -3.457  0.00  0.00    +0.037 C 
BRANCH  30  31
ATOM     31  C   UNL     1       5.048  -6.128  -4.003  0.00  0.00    -0.023 A 
ATOM     32  C   UNL     1       4.643  -7.235  -4.646  0.00  0.00    +0.087 A 
ATOM     33  N   UNL     1       5.725  -7.995  -4.994  0.00  0.00    -0.360 N 
ATOM     34  H   UNL     1       5.683  -8.842  -5.466  0.00  0.00    +0.165 HD
ATOM     35  C   UNL     1       6.884  -7.381  -4.574  0.00  0.00    +0.047 A 
ATOM     36  C   UNL     1       6.511  -6.181  -3.941  0.00  0.00    +0.003 A 
ATOM     37  C   UNL     1       7.490  -5.338  -3.414  0.00  0.00    +0.010 A 
ATOM     38  C   UNL     1       8.809  -5.681  -3.519  0.00  0.00    +0.001 A 
ATOM     39  C   UNL     1       9.182  -6.861  -4.147  0.00  0.00    +0.002 A 
ATOM     40  C   UNL     1       8.231  -7.713  -4.665  0.00  0.00    +0.026 A 
ENDBRANCH  30  31
ENDBRANCH   7  30
TORSDOF 7
