REMARK  Name = ZINC41026320
REMARK  5 active torsions:
REMARK  status: ('A' for Active; 'I' for Inactive)
REMARK    1  A    between atoms: C_1  and  C_2
REMARK    2  A    between atoms: C_5  and  C_37
REMARK    3  A    between atoms: N_16  and  C_19
REMARK    4  A    between atoms: N_25  and  C_26
REMARK    5  A    between atoms: C_27  and  C_34
REMARK                            x       y       z     vdW  Elec       q    Type
REMARK                         _______ _______ _______ _____ _____    ______ ____
ROOT
ATOM      1  C   UNL     1      -0.019   1.526   0.010  0.00  0.00    +0.009 C 
ATOM      2  C   UNL     1       0.002  -0.004   0.002  0.00  0.00    +0.004 C 
ATOM      3  C   UNL     1      -1.433  -0.534   0.015  0.00  0.00    +0.009 C 
ATOM      4  C   UNL     1      -1.414  -2.064  -0.027  0.00  0.00    +0.004 C 
ATOM      5  C   UNL     1      -0.692  -2.596   1.215  0.00  0.00    +0.111 C 
ATOM      6  N   UNL     1       0.639  -1.977   1.288  0.00  0.00    -0.299 N 
ATOM      7  C   UNL     1       0.742  -0.512   1.244  0.00  0.00    +0.111 C 
ATOM      8  C   UNL     1       1.775  -2.760   1.398  0.00  0.00    +0.221 A 
ATOM      9  N   UNL     1       1.641  -4.081   1.430  0.00  0.00    -0.198 NA
ATOM     10  C   UNL     1       2.699  -4.875   1.533  0.00  0.00    +0.139 A 
ATOM     11  C   UNL     1       3.977  -4.287   1.609  0.00  0.00    +0.079 A 
ATOM     12  C   UNL     1       5.293  -4.786   1.723  0.00  0.00    +0.148 A 
ATOM     13  N   UNL     1       6.117  -3.778   1.752  0.00  0.00    -0.172 NA
ATOM     14  N   UNL     1       5.400  -2.579   1.661  0.00  0.00    -0.214 N 
ATOM     15  C   UNL     1       4.071  -2.882   1.572  0.00  0.00    +0.170 A 
ATOM     16  N   UNL     1       2.954  -2.165   1.461  0.00  0.00    -0.194 NA
ATOM     17  N   UNL     1       2.551  -6.250   1.566  0.00  0.00    -0.293 N 
ATOM     18  C   UNL     1      -0.680  -2.532  -1.285  0.00  0.00    +0.009 C 
ATOM     19  H   UNL     1       3.331  -6.820   1.642  0.00  0.00    +0.154 HD
ENDROOT
BRANCH  17  20
ATOM     20  C   UNL     1       1.288  -6.811   1.491  0.00  0.00    +0.083 A 
ATOM     21  C   UNL     1       0.950  -8.153   1.514  0.00  0.00    +0.068 A 
ATOM     22  C   UNL     1      -0.470  -8.488   1.419  0.00  0.00    -0.023 A 
ATOM     23  C   UNL     1      -1.280  -7.419   1.317  0.00  0.00    -0.004 A 
ATOM     24  S   UNL     1      -0.186  -6.022   1.357  0.00  0.00    -0.077 S 
ATOM     25  C   UNL     1      -2.727  -7.819   1.218  0.00  0.00    +0.043 C 
ATOM     26  C   UNL     1      -2.693  -9.316   0.840  0.00  0.00    +0.010 C 
ATOM     27  C   UNL     1      -1.326  -9.753   1.404  0.00  0.00    +0.037 C 
BRANCH  21  28
ATOM     28  C   UNL     1       1.974  -9.195   1.629  0.00  0.00    +0.244 C 
ATOM     29  O   UNL     1       2.319  -9.590   2.728  0.00  0.00    -0.270 OA
ATOM     30  N   UNL     1       2.532  -9.717   0.519  0.00  0.00    -0.325 N 
ATOM     31  H   UNL     1       2.257  -9.402  -0.356  0.00  0.00    +0.145 HD
ATOM     32  H   UNL     1       3.210 -10.406   0.595  0.00  0.00    +0.145 HD
ENDBRANCH  21  28
ENDBRANCH  17  20
BRANCH  14  33
ATOM     33  C   UNL     1       5.950  -1.290   1.661  0.00  0.00    +0.068 A 
ATOM     34  C   UNL     1       5.368  -0.285   0.900  0.00  0.00    +0.028 A 
ATOM     35  C   UNL     1       5.912   0.984   0.903  0.00  0.00    +0.002 A 
ATOM     36  C   UNL     1       7.035   1.254   1.663  0.00  0.00    +0.000 A 
ATOM     37  C   UNL     1       7.617   0.256   2.422  0.00  0.00    +0.002 A 
ATOM     38  C   UNL     1       7.074  -1.014   2.428  0.00  0.00    +0.028 A 
ENDBRANCH  14  33
TORSDOF 3
