REMARK  Name = ZINC14162393
REMARK  7 active torsions:
REMARK  status: ('A' for Active; 'I' for Inactive)
REMARK    1  A    between atoms: C_1  and  C_2
REMARK    2  A    between atoms: C_2  and  O_3
REMARK    3  A    between atoms: O_3  and  C_4
REMARK    4  A    between atoms: C_4  and  C_6
REMARK    5  A    between atoms: C_7  and  N_36
REMARK    6  A    between atoms: C_28  and  C_29
REMARK    7  A    between atoms: C_28  and  C_30
REMARK                            x       y       z     vdW  Elec       q    Type
REMARK                         _______ _______ _______ _____ _____    ______ ____
ROOT
ATOM      1  C   UNL     1       1.259   4.097   1.212  0.00  0.00    +0.117 C 
ATOM      2  C   UNL     1       0.199   4.943   1.297  0.00  0.00    +0.195 C 
ATOM      3  O   UNL     1      -0.406   5.433   0.211  0.00  0.00    -0.446 OA
ATOM      4  C   UNL     1       0.081   5.217  -1.022  0.00  0.00    +0.115 C 
ATOM      5  C   UNL     1       1.123   4.398  -1.250  0.00  0.00    +0.057 C 
ATOM      6  C   UNL     1       1.785   3.654  -0.120  0.00  0.00    +0.141 C 
ATOM      7  C   UNL     1       1.624   2.178  -0.294  0.00  0.00    -0.001 A 
ATOM      8  C   UNL     1       0.531   1.339  -0.338  0.00  0.00    +0.007 A 
ATOM      9  C   UNL     1       0.786  -0.019  -0.504  0.00  0.00    +0.001 A 
ATOM     10  C   UNL     1       2.075  -0.520  -0.608  0.00  0.00    +0.006 A 
ATOM     11  C   UNL     1       3.169   0.316  -0.559  0.00  0.00    -0.020 A 
ATOM     12  C   UNL     1       2.914   1.678  -0.422  0.00  0.00    +0.045 A 
ATOM     13  N   UNL     1       3.875   2.689  -0.403  0.00  0.00    -0.263 N 
ATOM     14  C   UNL     1       3.290   3.876  -0.175  0.00  0.00    +0.240 C 
ATOM     15  O   UNL     1       3.833   4.951  -0.040  0.00  0.00    -0.274 OA
ATOM     16  C   UNL     1       5.294   2.370  -0.629  0.00  0.00    +0.043 C 
ATOM     17  C   UNL     1       5.611   2.470  -2.115  0.00  0.00    +0.026 C 
ATOM     18  C   UNL     1       5.718   3.927  -2.566  0.00  0.00    +0.002 C 
ATOM     19  C   UNL     1       6.885   4.571  -1.814  0.00  0.00    +0.000 C 
ATOM     20  C   UNL     1       6.527   4.622  -0.331  0.00  0.00    +0.002 C 
ATOM     21  C   UNL     1       6.186   3.259   0.228  0.00  0.00    +0.026 C 
ATOM     22  C   UNL     1       5.563   0.930  -0.161  0.00  0.00    +0.037 C 
ATOM     23  C   UNL     1       4.594  -0.139  -0.631  0.00  0.00    -0.006 C 
ATOM     24  C   UNL     1       4.750  -1.363   0.296  0.00  0.00    +0.016 C 
ATOM     25  C   UNL     1       4.923  -0.592  -2.055  0.00  0.00    +0.016 C 
ATOM     26  C   UNL     1       1.625   4.208  -2.554  0.00  0.00    +0.164 C 
ATOM     27  O   UNL     1       2.526   3.413  -2.739  0.00  0.00    -0.292 OA
ATOM     28  C   UNL     1       1.079   4.970  -3.730  0.00  0.00    +0.080 C 
ATOM     29  C   UNL     1       0.461   6.281  -3.234  0.00  0.00    +0.016 C 
ATOM     30  C   UNL     1      -0.585   5.945  -2.170  0.00  0.00    +0.075 C 
ENDROOT
BRANCH   2  31
ATOM     31  N   UNL     1      -0.272   5.293   2.537  0.00  0.00    -0.329 N 
ATOM     32  H   UNL     1      -0.254   4.649   3.262  0.00  0.00    +0.145 HD
ATOM     33  H   UNL     1      -0.622   6.185   2.689  0.00  0.00    +0.145 HD
ENDBRANCH   2  31
BRANCH   1  34
ATOM     34  C   UNL     1       1.867   3.635   2.393  0.00  0.00    +0.342 C 
ATOM     35  O   UNL     1       1.518   4.080   3.472  0.00  0.00    -0.245 OA
BRANCH  34  36
ATOM     36  O   UNL     1       2.837   2.698   2.332  0.00  0.00    -0.462 OA
BRANCH  36  38
ATOM     37  C   UNL     1       4.483   1.218   3.301  0.00  0.00    +0.048 C 
ATOM     38  C   UNL     1       3.410   2.275   3.570  0.00  0.00    +0.229 C 
ENDBRANCH  36  38
ENDBRANCH  34  36
ENDBRANCH   1  34
TORSDOF 4
