REMARK  Name = ZINC09087714
REMARK  9 active torsions:
REMARK  status: ('A' for Active; 'I' for Inactive)
REMARK    1  A    between atoms: C_1  and  C_2
REMARK    2  A    between atoms: C_2  and  N_3
REMARK    3  A    between atoms: N_3  and  C_4
REMARK    4  A    between atoms: N_3  and  C_6
REMARK    5  A    between atoms: C_4  and  C_5
REMARK    6  A    between atoms: C_9  and  C_13
REMARK    7  A    between atoms: C_10  and  O_12
REMARK    8  A    between atoms: N_14  and  N_15
REMARK    9  A    between atoms: C_16  and  C_22
REMARK                            x       y       z     vdW  Elec       q    Type
REMARK                         _______ _______ _______ _____ _____    ______ ____
ROOT
ATOM      1  C   UNL     1      -2.451   4.308  -0.022  0.00  0.00    +0.145 C 
ATOM      2  N   UNL     1      -3.488   3.526  -0.061  0.00  0.00    -0.170 NA
ENDROOT
BRANCH   2   3
ATOM      3  N   UNL     1      -4.775   4.073  -0.150  0.00  0.00    -0.188 N 
ATOM      4  C   UNL     1      -5.488   4.278  -1.315  0.00  0.00    +0.185 A 
ATOM      5  N   UNL     1      -6.644   4.799  -1.007  0.00  0.00    -0.151 NA
ATOM      6  N   UNL     1      -6.693   4.952   0.385  0.00  0.00    -0.253 N 
ATOM      7  H   UNL     1      -7.432   5.319   0.896  0.00  0.00    +0.191 HD
ATOM      8  C   UNL     1      -5.527   4.495   0.886  0.00  0.00    +0.197 A 
ATOM      9  S   UNL     1      -5.081   4.460   2.538  0.00  0.00    -0.010 S 
BRANCH   4  10
ATOM     10  C   UNL     1      -5.022   3.956  -2.682  0.00  0.00    +0.035 A 
ATOM     11  C   UNL     1      -4.447   2.713  -2.951  0.00  0.00    +0.013 A 
ATOM     12  C   UNL     1      -4.015   2.419  -4.228  0.00  0.00    +0.001 A 
ATOM     13  C   UNL     1      -4.150   3.353  -5.240  0.00  0.00    +0.001 A 
ATOM     14  C   UNL     1      -4.719   4.586  -4.980  0.00  0.00    +0.016 A 
ATOM     15  C   UNL     1      -5.161   4.891  -3.708  0.00  0.00    +0.029 A 
ATOM     16 BR   UNL     1      -5.946   6.575  -3.356  0.00  0.00    -0.050 Br
ENDBRANCH   4  10
ENDBRANCH   2   3
BRANCH   1  20
ATOM     17  C   UNL     1       1.460   2.652  -0.067  0.00  0.00    +0.033 A 
ATOM     18  C   UNL     1       1.287   4.032  -0.119  0.00  0.00    +0.024 A 
ATOM     19  C   UNL     1       0.021   4.572  -0.104  0.00  0.00    +0.015 A 
ATOM     20  C   UNL     1      -1.096   3.733  -0.037  0.00  0.00    +0.036 A 
ATOM     21  C   UNL     1      -0.920   2.342   0.008  0.00  0.00    +0.127 A 
ATOM     22  C   UNL     1       0.357   1.810  -0.001  0.00  0.00    +0.069 A 
BRANCH  21  23
ATOM     23  O   UNL     1      -1.999   1.521   0.066  0.00  0.00    -0.506 OA
ATOM     24  H   UNL     1      -2.336   1.377   0.961  0.00  0.00    +0.292 HD
ENDBRANCH  21  23
BRANCH  17  25
ATOM     25  N   UNL     1       2.746   2.112  -0.082  0.00  0.00    -0.330 N 
BRANCH  25  27
ATOM     26  C   UNL     1       4.358   3.364   1.266  0.00  0.00    +0.024 C 
ATOM     27  C   UNL     1       3.911   2.998  -0.151  0.00  0.00    +0.102 C 
ENDBRANCH  25  27
BRANCH  25  28
ATOM     28  C   UNL     1       2.931   0.660  -0.028  0.00  0.00    +0.102 C 
ATOM     29  C   UNL     1       2.955   0.096  -1.450  0.00  0.00    +0.024 C 
ENDBRANCH  25  28
ENDBRANCH  17  25
ENDBRANCH   1  20
TORSDOF 7
