REMARK  Name = ZINC13704637
REMARK  9 active torsions:
REMARK  status: ('A' for Active; 'I' for Inactive)
REMARK    1  A    between atoms: C_1  and  N_2
REMARK    2  A    between atoms: C_5  and  C_6
REMARK    3  A    between atoms: C_10  and  O_12
REMARK    4  A    between atoms: O_12  and  C_13
REMARK    5  A    between atoms: C_17  and  C_25
REMARK    6  A    between atoms: C_19  and  C_23
REMARK    7  A    between atoms: C_20  and  N_22
REMARK    8  A    between atoms: C_29  and  O_31
REMARK    9  A    between atoms: O_31  and  C_32
REMARK                            x       y       z     vdW  Elec       q    Type
REMARK                         _______ _______ _______ _____ _____    ______ ____
ROOT
ATOM      1  C   UNL     1       0.384   1.371  -0.614  0.00  0.00    +0.105 C 
ATOM      2  N   UNL     1       0.277  -0.082  -0.431  0.00  0.00    -0.297 NA
ATOM      3  C   UNL     1      -1.135  -0.507  -0.388  0.00  0.00    +0.123 C 
ATOM      4  C   UNL     1      -1.140  -2.021  -0.384  0.00  0.00    +0.010 C 
ATOM      5  C   UNL     1      -2.033  -2.718  -1.109  0.00  0.00    +0.016 C 
ATOM      6  C   UNL     1      -0.126  -2.705   0.446  0.00  0.00    +0.136 C 
ATOM      7  C   UNL     1       0.871  -2.001   0.985  0.00  0.00    -0.001 C 
ATOM      8  C   UNL     1       0.984  -0.513   0.776  0.00  0.00    +0.120 C 
ATOM      9  C   UNL     1       1.919  -2.686   1.827  0.00  0.00    +0.095 C 
ATOM     10  C   UNL     1       1.425  -4.027   2.292  0.00  0.00    +0.098 C 
ATOM     11  C   UNL     1       0.378  -4.630   1.676  0.00  0.00    +0.199 C 
ATOM     12  O   UNL     1      -0.241  -4.042   0.637  0.00  0.00    -0.441 OA
ENDROOT
BRANCH   5  13
ATOM     13  C   UNL     1      -3.134  -2.017  -1.792  0.00  0.00    -0.021 A 
ATOM     14  C   UNL     1      -3.629  -2.503  -3.006  0.00  0.00    +0.008 A 
ATOM     15  C   UNL     1      -4.660  -1.844  -3.642  0.00  0.00    +0.004 A 
ATOM     16  C   UNL     1      -5.206  -0.702  -3.084  0.00  0.00    +0.045 A 
ATOM     17  C   UNL     1      -4.721  -0.211  -1.879  0.00  0.00    +0.121 A 
ATOM     18  C   UNL     1      -3.691  -0.867  -1.228  0.00  0.00    +0.053 A 
BRANCH  17  19
ATOM     19  O   UNL     1      -5.261   0.912  -1.337  0.00  0.00    -0.495 OA
ATOM     20  C   UNL     1      -6.324   1.535  -2.060  0.00  0.00    +0.277 C 
ENDBRANCH  17  19
ENDBRANCH   5  13
BRANCH   9  21
ATOM     21  C   UNL     1       3.170  -2.877   1.009  0.00  0.00    -0.031 A 
ATOM     22  C   UNL     1       3.127  -3.622  -0.155  0.00  0.00    +0.005 A 
ATOM     23  C   UNL     1       4.273  -3.798  -0.909  0.00  0.00    +0.004 A 
ATOM     24  C   UNL     1       5.464  -3.231  -0.500  0.00  0.00    +0.045 A 
ATOM     25  C   UNL     1       5.510  -2.483   0.668  0.00  0.00    +0.120 A 
ATOM     26  C   UNL     1       4.357  -2.302   1.419  0.00  0.00    +0.050 A 
BRANCH  25  27
ATOM     27  O   UNL     1       6.681  -1.923   1.072  0.00  0.00    -0.495 OA
ATOM     28  C   UNL     1       7.826  -2.146   0.246  0.00  0.00    +0.277 C 
ENDBRANCH  25  27
ENDBRANCH   9  21
BRANCH  11  29
ATOM     29  N   UNL     1      -0.056  -5.854   2.118  0.00  0.00    -0.328 N 
ATOM     30  H   UNL     1       0.387  -6.284   2.867  0.00  0.00    +0.145 HD
ATOM     31  H   UNL     1      -0.804  -6.291   1.682  0.00  0.00    +0.145 HD
ENDBRANCH  11  29
BRANCH  10  32
ATOM     32  C   UNL     1       2.067  -4.675   3.395  0.00  0.00    +0.101 C 
ATOM     33  N   UNL     1       2.576  -5.190   4.271  0.00  0.00    -0.191 NA
ENDBRANCH  10  32
TORSDOF 6
