REMARK  Name = ZINC35574550
REMARK  5 active torsions:
REMARK  status: ('A' for Active; 'I' for Inactive)
REMARK    1  A    between atoms: C_6  and  S_7
REMARK    2  A    between atoms: S_7  and  N_10
REMARK    3  A    between atoms: C_22  and  C_24
REMARK    4  A    between atoms: C_24  and  N_25
REMARK    5  A    between atoms: N_28  and  C_31
REMARK                            x       y       z     vdW  Elec       q    Type
REMARK                         _______ _______ _______ _____ _____    ______ ____
ROOT
ATOM      1  N   UNL     1      -0.117   0.194  -2.279  0.00  0.00    -0.174 NA
ATOM      2  C   UNL     1       0.508  -0.874  -3.072  0.00  0.00    +0.128 C 
ATOM      3  C   UNL     1      -0.597  -1.774  -3.638  0.00  0.00    +0.125 C 
ATOM      4  N   UNL     1      -1.616  -0.926  -4.271  0.00  0.00    -0.299 N 
ATOM      5  C   UNL     1      -2.241   0.142  -3.477  0.00  0.00    +0.125 C 
ATOM      6  C   UNL     1      -1.140   1.039  -2.910  0.00  0.00    +0.128 C 
ATOM      7  C   UNL     1      -1.977  -1.126  -5.576  0.00  0.00    +0.199 A 
ATOM      8  N   UNL     1      -1.473  -2.193  -6.253  0.00  0.00    -0.295 N 
ATOM      9  H   UNL     1      -0.864  -2.806  -5.812  0.00  0.00    +0.172 HD
ATOM     10  C   UNL     1      -1.825  -2.397  -7.540  0.00  0.00    +0.253 A 
ATOM     11  O   UNL     1      -1.383  -3.350  -8.162  0.00  0.00    -0.268 OA
ATOM     12  C   UNL     1      -2.710  -1.492  -8.151  0.00  0.00    +0.094 A 
ATOM     13  C   UNL     1      -3.183  -0.439  -7.423  0.00  0.00    +0.064 A 
ATOM     14  N   UNL     1      -2.810  -0.284  -6.154  0.00  0.00    -0.219 NA
ENDROOT
BRANCH   1  15
ATOM     15  S   UNL     1       0.320   0.436  -0.699  0.00  0.00    +0.061 S 
ATOM     16  O   UNL     1       0.004   1.787  -0.393  0.00  0.00    -0.153 OA
ATOM     17  O   UNL     1       1.631  -0.092  -0.555  0.00  0.00    -0.153 OA
BRANCH  15  23
ATOM     18  C   UNL     1      -0.370  -1.861   0.604  0.00  0.00    +0.030 A 
ATOM     19  C   UNL     1      -1.199  -2.647   1.382  0.00  0.00    +0.022 A 
ATOM     20  C   UNL     1      -2.397  -2.136   1.850  0.00  0.00    +0.041 A 
ATOM     21  C   UNL     1      -2.764  -0.839   1.538  0.00  0.00    +0.022 A 
ATOM     22  C   UNL     1      -1.935  -0.055   0.760  0.00  0.00    +0.030 A 
ATOM     23  C   UNL     1      -0.738  -0.566   0.292  0.00  0.00    +0.106 A 
ATOM     24 CL   UNL     1      -3.439  -3.123   2.827  0.00  0.00    -0.084 Cl
ENDBRANCH  15  23
ENDBRANCH   1  15
BRANCH  13  25
ATOM     25  C   UNL     1      -4.133   0.546  -8.053  0.00  0.00    +0.140 C 
BRANCH  25  26
ATOM     26  N   UNL     1      -5.437   0.469  -7.380  0.00  0.00    -0.300 NA
ATOM     27  C   UNL     1      -6.078  -0.831  -7.622  0.00  0.00    +0.066 C 
ATOM     28  C   UNL     1      -7.402  -0.893  -6.857  0.00  0.00    -0.063 C 
ATOM     29  N   UNL     1      -8.279   0.196  -7.307  0.00  0.00    +0.383 N 
ATOM     30  C   UNL     1      -7.636   1.488  -7.037  0.00  0.00    -0.063 C 
ATOM     31  C   UNL     1      -6.314   1.570  -7.803  0.00  0.00    +0.066 C 
ATOM     32  H   UNL     1      -8.447   0.105  -8.297  0.00  0.00    -0.081 HD
BRANCH  29  33
ATOM     33  C   UNL     1      -9.557   0.125  -6.585  0.00  0.00    -0.068 C 
ATOM     34  C   UNL     1     -10.228  -1.220  -6.868  0.00  0.00    -0.015 C 
ATOM     35  C   UNL     1     -11.559  -1.294  -6.117  0.00  0.00    -0.002 C 
ATOM     36  C   UNL     1     -12.473  -0.160  -6.585  0.00  0.00    -0.000 C 
ATOM     37  C   UNL     1     -11.801   1.186  -6.302  0.00  0.00    -0.002 C 
ATOM     38  C   UNL     1     -10.470   1.260  -7.054  0.00  0.00    -0.015 C 
ENDBRANCH  29  33
ENDBRANCH  25  26
ENDBRANCH  13  25
TORSDOF 5
