REMARK  Name = ZINC66632573
REMARK  7 active torsions:
REMARK  status: ('A' for Active; 'I' for Inactive)
REMARK    1  A    between atoms: C_1  and  C_2
REMARK    2  A    between atoms: C_2  and  C_3
REMARK    3  A    between atoms: C_2  and  C_4
REMARK    4  A    between atoms: C_4  and  C_5
REMARK    5  A    between atoms: C_5  and  N_6
REMARK    6  A    between atoms: N_9  and  N_10
REMARK    7  A    between atoms: C_11  and  C_13
REMARK                            x       y       z     vdW  Elec       q    Type
REMARK                         _______ _______ _______ _____ _____    ______ ____
ROOT
ATOM      1  N   UNL     1       2.017  -1.528   5.862  0.00  0.00    -0.229 N 
ATOM      2  C   UNL     1       2.668  -1.975   6.954  0.00  0.00    +0.262 C 
ATOM      3  O   UNL     1       2.210  -1.770   8.063  0.00  0.00    -0.269 OA
ATOM      4  H   UNL     1       2.382  -1.692   4.979  0.00  0.00    +0.173 HD
ENDROOT
BRANCH   2   5
ATOM      5  C   UNL     1       3.932  -2.709   6.806  0.00  0.00    +0.063 A 
ATOM      6  C   UNL     1       4.570  -3.009   5.639  0.00  0.00    +0.096 A 
ATOM      7  N   UNL     1       5.709  -3.695   5.902  0.00  0.00    -0.360 N 
ATOM      8  H   UNL     1       6.329  -4.016   5.229  0.00  0.00    +0.165 HD
ATOM      9  C   UNL     1       5.861  -3.872   7.262  0.00  0.00    +0.049 A 
ATOM     10  C   UNL     1       4.765  -3.261   7.891  0.00  0.00    +0.012 A 
ATOM     11  C   UNL     1       4.657  -3.279   9.279  0.00  0.00    +0.012 A 
ATOM     12  C   UNL     1       5.633  -3.896  10.032  0.00  0.00    +0.021 A 
ATOM     13  C   UNL     1       6.719  -4.497   9.412  0.00  0.00    +0.043 A 
ATOM     14  C   UNL     1       6.834  -4.494   8.037  0.00  0.00    +0.046 A 
ATOM     15 CL   UNL     1       7.940  -5.269  10.374  0.00  0.00    -0.083 Cl
ENDBRANCH   2   5
BRANCH   1  19
ATOM     16  N   UNL     1       0.667  -0.609   3.684  0.00  0.00    -0.298 N 
ATOM     17  C   UNL     1       0.159  -0.382   4.912  0.00  0.00    +0.316 C 
ATOM     18  O   UNL     1      -0.887   0.225   5.034  0.00  0.00    -0.251 OA
ATOM     19  N   UNL     1       0.811  -0.829   6.004  0.00  0.00    -0.218 N 
ATOM     20  H   UNL     1       1.502  -1.093   3.586  0.00  0.00    +0.150 HD
ATOM     21  H   UNL     1       0.446  -0.665   6.887  0.00  0.00    +0.174 HD
BRANCH  16  22
ATOM     22  C   UNL     1      -0.042  -0.124   2.497  0.00  0.00    +0.106 C 
BRANCH  22  23
ATOM     23  C   UNL     1       0.742  -0.511   1.242  0.00  0.00    +0.022 C 
BRANCH  23  25
ATOM     24  C   UNL     1      -0.019   1.526   0.010  0.00  0.00    +0.007 C 
ATOM     25  C   UNL     1       0.002  -0.004   0.002  0.00  0.00    -0.016 C 
ATOM     26  C   UNL     1       0.718  -0.497  -1.257  0.00  0.00    +0.007 C 
ENDBRANCH  23  25
ENDBRANCH  22  23
ENDBRANCH  16  22
ENDBRANCH   1  19
TORSDOF 5
