REMARK  Name = ZINC21537221
REMARK  6 active torsions:
REMARK  status: ('A' for Active; 'I' for Inactive)
REMARK    1  A    between atoms: C_1  and  N_2
REMARK    2  A    between atoms: N_2  and  C_3
REMARK    3  A    between atoms: C_9  and  C_11
REMARK    4  A    between atoms: C_11  and  S_12
REMARK    5  A    between atoms: S_12  and  C_13
REMARK    6  A    between atoms: C_15  and  C_24
REMARK                            x       y       z     vdW  Elec       q    Type
REMARK                         _______ _______ _______ _____ _____    ______ ____
ROOT
ATOM      1  C   UNL     1      -0.047  -0.052  -5.284  0.00  0.00    +0.192 A 
ATOM      2  N   UNL     1      -0.059   1.265  -5.157  0.00  0.00    -0.202 NA
ATOM      3  C   UNL     1      -0.079   2.056  -6.233  0.00  0.00    +0.168 A 
ATOM      4  N   UNL     1      -0.089   1.547  -7.458  0.00  0.00    -0.208 NA
ATOM      5  C   UNL     1      -0.078   0.223  -7.634  0.00  0.00    +0.162 A 
ATOM      6  N   UNL     1      -0.052  -0.607  -6.532  0.00  0.00    -0.210 N 
ATOM      7  N   UNL     1      -0.039  -1.928  -6.989  0.00  0.00    -0.256 N 
ATOM      8  H   UNL     1      -0.024  -2.721  -6.430  0.00  0.00    +0.191 HD
ATOM      9  C   UNL     1      -0.052  -1.914  -8.336  0.00  0.00    +0.267 A 
ATOM     10  O   UNL     1      -0.046  -2.896  -9.060  0.00  0.00    -0.266 OA
ATOM     11  C   UNL     1      -0.085  -0.586  -8.764  0.00  0.00    +0.119 A 
ENDROOT
BRANCH   3  12
ATOM     12  C   UNL     1      -0.091   3.525  -6.055  0.00  0.00    +0.054 A 
ATOM     13  C   UNL     1      -0.075   4.077  -4.773  0.00  0.00    +0.014 A 
ATOM     14  C   UNL     1      -0.086   5.446  -4.614  0.00  0.00    +0.001 A 
ATOM     15  C   UNL     1      -0.113   6.276  -5.722  0.00  0.00    +0.003 A 
ATOM     16  C   UNL     1      -0.129   5.739  -6.996  0.00  0.00    +0.039 A 
ATOM     17  C   UNL     1      -0.112   4.367  -7.170  0.00  0.00    +0.134 A 
ATOM     18  F   UNL     1      -0.122   3.842  -8.415  0.00  0.00    -0.205 F 
ENDBRANCH   3  12
BRANCH   1  19
ATOM     19  S   UNL     1      -0.020  -1.082  -3.855  0.00  0.00    -0.077 S 
BRANCH  19  20
ATOM     20  C   UNL     1      -0.023   0.089  -2.470  0.00  0.00    +0.173 C 
BRANCH  20  23
ATOM     21  C   UNL     1      -0.018   1.461   0.010  0.00  0.00    +0.132 C 
ATOM     22  N   UNL     1       0.002  -0.004   0.002  0.00  0.00    -0.301 N 
ATOM     23  C   UNL     1       0.000  -0.672  -1.169  0.00  0.00    +0.226 C 
ATOM     24  O   UNL     1       0.017  -1.884  -1.175  0.00  0.00    -0.275 OA
BRANCH  22  25
ATOM     25  C   UNL     1       0.024  -0.743   1.267  0.00  0.00    +0.076 C 
ATOM     26  C   UNL     1      -1.222  -0.395   2.083  0.00  0.00    +0.022 C 
ATOM     27  C   UNL     1      -1.199  -1.167   3.404  0.00  0.00    +0.002 C 
ATOM     28  C   UNL     1       0.052  -0.785   4.196  0.00  0.00    +0.000 C 
ATOM     29  C   UNL     1       1.299  -1.133   3.380  0.00  0.00    +0.002 C 
ATOM     30  C   UNL     1       1.276  -0.361   2.059  0.00  0.00    +0.022 C 
ENDBRANCH  22  25
ENDBRANCH  20  23
ENDBRANCH  19  20
ENDBRANCH   1  19
TORSDOF 5
