REMARK  Name = ZINC38893887
REMARK  9 active torsions:
REMARK  status: ('A' for Active; 'I' for Inactive)
REMARK    1  A    between atoms: C_1  and  C_2
REMARK    2  A    between atoms: C_5  and  S_8
REMARK    3  A    between atoms: S_8  and  C_9
REMARK    4  A    between atoms: C_9  and  C_10
REMARK    5  A    between atoms: C_10  and  N_11
REMARK    6  A    between atoms: C_12  and  C_14
REMARK    7  A    between atoms: N_19  and  C_21
REMARK    8  A    between atoms: C_21  and  C_22
REMARK    9  A    between atoms: C_24  and  C_27
REMARK                            x       y       z     vdW  Elec       q    Type
REMARK                         _______ _______ _______ _____ _____    ______ ____
ROOT
ATOM      1  C   UNL     1       0.140  -8.537   5.116  0.00  0.00    +0.058 C 
ATOM      2  C   UNL     1      -1.115  -7.982   5.796  0.00  0.00    +0.009 C 
ATOM      3  C   UNL     1      -1.132  -8.432   7.260  0.00  0.00    -0.018 C 
ATOM      4  C   UNL     1      -1.068  -9.960   7.319  0.00  0.00    -0.078 C 
ATOM      5  N   UNL     1       0.167 -10.426   6.676  0.00  0.00    +0.386 N 
ATOM      6  C   UNL     1       0.158 -10.061   5.255  0.00  0.00    -0.065 C 
ATOM      7  H   UNL     1       0.962  -9.999   7.127  0.00  0.00    -0.081 HD
ENDROOT
BRANCH   1   9
ATOM      8  N   UNL     1       0.109  -6.867   3.292  0.00  0.00    -0.314 N 
ATOM      9  C   UNL     1       0.128  -8.164   3.656  0.00  0.00    +0.214 C 
ATOM     10  O   UNL     1       0.135  -9.032   2.809  0.00  0.00    -0.276 OA
ATOM     11  H   UNL     1       0.103  -6.173   3.969  0.00  0.00    +0.149 HD
BRANCH   8  12
ATOM     12  C   UNL     1       0.097  -6.505   1.872  0.00  0.00    +0.115 C 
BRANCH  12  13
ATOM     13  C   UNL     1       0.077  -4.981   1.735  0.00  0.00    +0.093 C 
BRANCH  13  14
ATOM     14  S   UNL     1       0.062  -4.533  -0.023  0.00  0.00    -0.124 S 
BRANCH  14  19
ATOM     15  C   UNL     1      -0.018   1.503   0.010  0.00  0.00    +0.044 C 
ATOM     16  C   UNL     1       0.002  -0.004   0.002  0.00  0.00    -0.050 A 
ATOM     17  C   UNL     1       0.006  -0.687  -1.200  0.00  0.00    +0.004 A 
ATOM     18  C   UNL     1       0.024  -2.068  -1.212  0.00  0.00    +0.015 A 
ATOM     19  C   UNL     1       0.039  -2.771  -0.013  0.00  0.00    +0.008 A 
ATOM     20  C   UNL     1       0.036  -2.081   1.193  0.00  0.00    +0.015 A 
ATOM     21  C   UNL     1       0.023  -0.700   1.197  0.00  0.00    +0.004 A 
ENDBRANCH  14  19
ENDBRANCH  13  14
ENDBRANCH  12  13
ENDBRANCH   8  12
ENDBRANCH   1   9
BRANCH   5  22
ATOM     22  C   UNL     1       0.261 -11.887   6.804  0.00  0.00    +0.022 C 
BRANCH  22  23
ATOM     23  C   UNL     1       0.404 -12.255   8.258  0.00  0.00    +0.211 A 
ATOM     24  N   UNL     1      -0.575 -12.507   9.079  0.00  0.00    -0.193 NA
ATOM     25  C   UNL     1      -0.090 -12.802  10.299  0.00  0.00    +0.202 A 
ATOM     26  N   UNL     1       1.218 -12.736  10.256  0.00  0.00    -0.056 NA
ATOM     27  O   UNL     1       1.560 -12.385   8.923  0.00  0.00    -0.340 OA
BRANCH  25  28
ATOM     28  C   UNL     1      -0.900 -13.143  11.494  0.00  0.00    +0.023 A 
ATOM     29  C   UNL     1      -2.291 -13.184  11.407  0.00  0.00    +0.014 A 
ATOM     30  C   UNL     1      -3.041 -13.502  12.520  0.00  0.00    +0.039 A 
ATOM     31  C   UNL     1      -2.413 -13.781  13.724  0.00  0.00    +0.123 A 
ATOM     32  C   UNL     1      -1.031 -13.741  13.815  0.00  0.00    +0.039 A 
ATOM     33  C   UNL     1      -0.273 -13.429  12.705  0.00  0.00    +0.014 A 
ATOM     34  F   UNL     1      -3.151 -14.092  14.812  0.00  0.00    -0.205 F 
ENDBRANCH  25  28
ENDBRANCH  22  23
ENDBRANCH   5  22
TORSDOF 8
