REMARK  Name = ZINC14653441
REMARK  11 active torsions:
REMARK  status: ('A' for Active; 'I' for Inactive)
REMARK    1  A    between atoms: C_1  and  C_2
REMARK    2  A    between atoms: C_2  and  C_3
REMARK    3  A    between atoms: C_3  and  C_4
REMARK    4  A    between atoms: C_4  and  N_5
REMARK    5  A    between atoms: C_6  and  N_34
REMARK    6  A    between atoms: C_7  and  N_14
REMARK    7  A    between atoms: N_14  and  C_15
REMARK    8  A    between atoms: C_15  and  C_16
REMARK    9  A    between atoms: C_21  and  C_23
REMARK   10  A    between atoms: C_26  and  O_29
REMARK   11  A    between atoms: O_29  and  C_30
REMARK                            x       y       z     vdW  Elec       q    Type
REMARK                         _______ _______ _______ _____ _____    ______ ____
ROOT
ATOM      1  N   UNL     1      -0.875  -4.792   2.513  0.00  0.00    -0.253 N 
ATOM      2  C   UNL     1      -1.441  -4.138   3.547  0.00  0.00    +0.251 C 
ATOM      3  O   UNL     1      -1.938  -4.764   4.463  0.00  0.00    -0.270 OA
ENDROOT
BRANCH   1   6
ATOM      4  N   UNL     1      -0.430  -3.511  -0.902  0.00  0.00    -0.280 N 
ATOM      5  C   UNL     1      -0.937  -4.230   0.156  0.00  0.00    +0.127 A 
ATOM      6  C   UNL     1      -0.379  -4.069   1.408  0.00  0.00    +0.140 A 
ATOM      7  C   UNL     1       0.695  -3.173   1.563  0.00  0.00    +0.277 A 
ATOM      8  O   UNL     1       1.207  -3.011   2.658  0.00  0.00    -0.266 OA
ATOM      9  N   UNL     1       1.154  -2.493   0.494  0.00  0.00    -0.273 N 
ATOM     10  H   UNL     1       1.914  -1.853   0.604  0.00  0.00    +0.173 HD
ATOM     11  C   UNL     1       0.601  -2.667  -0.720  0.00  0.00    +0.331 A 
ATOM     12  O   UNL     1       1.038  -2.045  -1.669  0.00  0.00    -0.246 OA
BRANCH   5  13
ATOM     13  N   UNL     1      -1.987  -5.097  -0.031  0.00  0.00    -0.343 N 
ATOM     14  H   UNL     1      -2.424  -5.149  -0.895  0.00  0.00    +0.144 HD
ATOM     15  H   UNL     1      -2.290  -5.656   0.701  0.00  0.00    +0.144 HD
ENDBRANCH   5  13
BRANCH   4  16
ATOM     16  C   UNL     1      -1.013  -3.672  -2.236  0.00  0.00    +0.128 C 
BRANCH  16  17
ATOM     17  C   UNL     1      -2.147  -2.661  -2.422  0.00  0.00    +0.021 C 
BRANCH  17  19
ATOM     18  C   UNL     1      -3.889  -1.818  -4.002  0.00  0.00    +0.004 C 
ATOM     19  C   UNL     1      -2.756  -2.829  -3.816  0.00  0.00    -0.002 C 
ENDBRANCH  17  19
ENDBRANCH  16  17
ENDBRANCH   4  16
ENDBRANCH   1   6
BRANCH   2  20
ATOM     20  C   UNL     1      -1.457  -2.662   3.566  0.00  0.00    +0.037 A 
ATOM     21  C   UNL     1      -1.473  -1.946   2.367  0.00  0.00    +0.016 A 
ATOM     22  C   UNL     1      -1.493  -0.569   2.390  0.00  0.00    +0.047 A 
ATOM     23  C   UNL     1      -1.486   0.108   3.603  0.00  0.00    +0.130 A 
ATOM     24  C   UNL     1      -1.464  -0.601   4.799  0.00  0.00    +0.047 A 
ATOM     25  C   UNL     1      -1.450  -1.978   4.785  0.00  0.00    +0.016 A 
BRANCH  23  26
ATOM     26  O   UNL     1      -1.500   1.465   3.622  0.00  0.00    -0.406 OA
BRANCH  26  27
ATOM     27  C   UNL     1      -1.522   2.131   2.357  0.00  0.00    +0.575 C 
ATOM     28  F   UNL     1      -2.668   1.752   1.651  0.00  0.00    -0.133 F 
ATOM     29  F   UNL     1      -1.534   3.515   2.559  0.00  0.00    -0.133 F 
ATOM     30  F   UNL     1      -0.384   1.776   1.624  0.00  0.00    -0.133 F 
ENDBRANCH  26  27
ENDBRANCH  23  26
ENDBRANCH   2  20
BRANCH   1  31
ATOM     31  C   UNL     1      -0.776  -6.253   2.537  0.00  0.00    +0.188 C 
BRANCH  31  32
ATOM     32  C   UNL     1       0.467  -6.660   3.285  0.00  0.00    +0.122 A 
ATOM     33  C   UNL     1       0.527  -7.001   4.585  0.00  0.00    +0.046 A 
ATOM     34  C   UNL     1       1.878  -7.308   4.867  0.00  0.00    +0.041 A 
ATOM     35  C   UNL     1       2.563  -7.137   3.722  0.00  0.00    +0.195 A 
ATOM     36  O   UNL     1       1.703  -6.750   2.766  0.00  0.00    -0.466 OA
ENDBRANCH  31  32
ENDBRANCH   1  31
TORSDOF 10
