REMARK  Name = ZINC60220474
REMARK  8 active torsions:
REMARK  status: ('A' for Active; 'I' for Inactive)
REMARK    1  A    between atoms: C_1  and  C_2
REMARK    2  A    between atoms: C_7  and  C_9
REMARK    3  A    between atoms: C_7  and  C_10
REMARK    4  A    between atoms: N_13  and  C_17
REMARK    5  A    between atoms: C_17  and  C_18
REMARK    6  A    between atoms: N_20  and  C_21
REMARK    7  A    between atoms: C_26  and  C_27
REMARK    8  A    between atoms: C_27  and  N_28
REMARK                            x       y       z     vdW  Elec       q    Type
REMARK                         _______ _______ _______ _____ _____    ______ ____
ROOT
ATOM      1  C   UNL     1       0.302  -5.545  -4.933  0.00  0.00    +0.235 C 
ATOM      2  O   UNL     1       0.549  -6.124  -3.896  0.00  0.00    -0.274 OA
ATOM      3  N   UNL     1       0.297  -6.222  -6.098  0.00  0.00    -0.284 N 
ATOM      4  H   UNL     1       0.167  -5.748  -6.934  0.00  0.00    +0.155 HD
ENDROOT
BRANCH   3   5
ATOM      5  C   UNL     1       0.479  -7.610  -6.102  0.00  0.00    +0.035 A 
ATOM      6  C   UNL     1      -0.001  -8.378  -5.049  0.00  0.00    +0.023 A 
ATOM      7  C   UNL     1       0.181  -9.746  -5.056  0.00  0.00    +0.002 A 
ATOM      8  C   UNL     1       0.840 -10.353  -6.110  0.00  0.00    +0.000 A 
ATOM      9  C   UNL     1       1.319  -9.591  -7.159  0.00  0.00    +0.003 A 
ATOM     10  C   UNL     1       1.135  -8.222  -7.162  0.00  0.00    -0.043 A 
BRANCH  10  11
ATOM     11  C   UNL     1       1.651  -7.394  -8.310  0.00  0.00    -0.041 C 
BRANCH  11  12
ATOM     12  N   UNL     1       2.859  -6.672  -7.889  0.00  0.00    +0.383 N 
ATOM     13  C   UNL     1       3.281  -5.774  -8.965  0.00  0.00    -0.068 C 
ATOM     14  C   UNL     1       4.293  -4.755  -8.426  0.00  0.00    +0.050 C 
ATOM     15  S   UNL     1       5.758  -5.662  -7.840  0.00  0.00    -0.164 S 
ATOM     16  C   UNL     1       5.031  -6.952  -6.781  0.00  0.00    +0.050 C 
ATOM     17  C   UNL     1       3.909  -7.641  -7.565  0.00  0.00    -0.068 C 
ATOM     18  H   UNL     1       2.649  -6.127  -7.066  0.00  0.00    -0.081 HD
ENDBRANCH  11  12
ENDBRANCH  10  11
ENDBRANCH   3   5
BRANCH   1  19
ATOM     19  C   UNL     1       0.002  -4.069  -4.918  0.00  0.00    +0.214 C 
BRANCH  19  31
ATOM     20  C   UNL     1       0.780   0.669   0.296  0.00  0.00    +0.007 C 
ATOM     21  C   UNL     1       0.548  -0.826   0.071  0.00  0.00    -0.011 C 
ATOM     22  C   UNL     1       0.997  -1.205  -1.343  0.00  0.00    +0.038 C 
ATOM     23  C   UNL     1       0.785  -2.699  -1.562  0.00  0.00    +0.113 C 
ATOM     24  C   UNL     1       1.569  -3.511  -0.535  0.00  0.00    +0.041 C 
ATOM     25  C   UNL     1       1.117  -3.124   0.875  0.00  0.00    -0.032 C 
ATOM     26  C   UNL     1       1.355  -1.628   1.093  0.00  0.00    +0.009 C 
ATOM     27  C   UNL     1      -0.373  -3.432   1.037  0.00  0.00    +0.011 C 
ATOM     28  C   UNL     1       1.918  -3.923   1.905  0.00  0.00    +0.011 C 
ATOM     29  C   UNL     1       1.190  -3.090  -2.964  0.00  0.00    +0.247 C 
ATOM     30  O   UNL     1       2.290  -2.993  -3.464  0.00  0.00    -0.273 OA
ATOM     31  N   UNL     1       0.070  -3.570  -3.542  0.00  0.00    -0.215 N 
ATOM     32  C   UNL     1      -0.972  -3.535  -2.702  0.00  0.00    +0.310 C 
ATOM     33  O   UNL     1      -2.089  -3.915  -2.994  0.00  0.00    -0.252 OA
ATOM     34  N   UNL     1      -0.644  -3.031  -1.497  0.00  0.00    -0.285 N 
ATOM     35  H   UNL     1      -1.234  -2.911  -0.737  0.00  0.00    +0.151 HD
ENDBRANCH  19  31
ENDBRANCH   1  19
TORSDOF 5
