REMARK  Name = ZINC12288092
REMARK  7 active torsions:
REMARK  status: ('A' for Active; 'I' for Inactive)
REMARK    1  A    between atoms: C_1  and  C_2
REMARK    2  A    between atoms: C_2  and  N_3
REMARK    3  A    between atoms: C_6  and  N_31
REMARK    4  A    between atoms: N_12  and  C_13
REMARK    5  A    between atoms: C_13  and  C_15
REMARK    6  A    between atoms: N_20  and  S_22
REMARK    7  A    between atoms: S_22  and  C_25
REMARK                            x       y       z     vdW  Elec       q    Type
REMARK                         _______ _______ _______ _____ _____    ______ ____
ROOT
ATOM      1  C   UNL     1       4.601   0.785  -0.037  0.00  0.00    +0.243 C 
ATOM      2  O   UNL     1       4.305   1.965  -0.027  0.00  0.00    -0.273 OA
ENDROOT
BRANCH   1  12
ATOM      3  N   UNL     1       1.264  -0.569  -0.013  0.00  0.00    -0.321 N 
ATOM      4  C   UNL     1       0.002  -0.004   0.002  0.00  0.00    +0.060 A 
ATOM      5  C   UNL     1      -1.243  -0.653   0.011  0.00  0.00    +0.059 A 
ATOM      6  C   UNL     1      -2.412   0.070   0.026  0.00  0.00    +0.128 A 
ATOM      7  C   UNL     1      -2.400   1.455   0.034  0.00  0.00    +0.034 A 
ATOM      8  C   UNL     1      -1.187   2.120   0.030  0.00  0.00    +0.019 A 
ATOM      9  C   UNL     1      -0.017   1.398   0.010  0.00  0.00    +0.039 A 
ATOM     10  S   UNL     1       1.705   1.829  -0.004  0.00  0.00    -0.052 S 
ATOM     11  C   UNL     1       2.366   0.225  -0.019  0.00  0.00    +0.166 A 
ATOM     12  N   UNL     1       3.647  -0.139  -0.033  0.00  0.00    -0.156 NA
BRANCH   6  13
ATOM     13  N   UNL     1      -3.708  -0.645   0.036  0.00  0.00    +0.056 N 
ATOM     14  O   UNL     1      -3.732  -1.863   0.030  0.00  0.00    -0.126 OA
ATOM     15  O   UNL     1      -4.751  -0.016   0.050  0.00  0.00    -0.126 OA
ENDBRANCH   6  13
BRANCH   3  17
ATOM     16  C   UNL     1       1.450  -2.526  -1.468  0.00  0.00    +0.027 C 
ATOM     17  C   UNL     1       1.412  -2.026  -0.022  0.00  0.00    +0.121 C 
ENDBRANCH   3  17
ENDBRANCH   1  12
BRANCH   1  18
ATOM     18  C   UNL     1       6.050   0.372  -0.053  0.00  0.00    +0.093 C 
ATOM     19  C   UNL     1       6.356  -0.469   1.189  0.00  0.00    +0.015 C 
ATOM     20  C   UNL     1       7.819  -0.916   1.157  0.00  0.00    +0.018 C 
ATOM     21  C   UNL     1       8.726   0.318   1.174  0.00  0.00    +0.109 C 
ATOM     22  N   UNL     1       8.342   1.203   0.066  0.00  0.00    -0.175 NA
ATOM     23  C   UNL     1       6.938   1.621  -0.050  0.00  0.00    +0.122 C 
BRANCH  22  24
ATOM     24  S   UNL     1       9.469   1.720  -1.031  0.00  0.00    +0.067 S 
ATOM     25  O   UNL     1       8.969   2.928  -1.589  0.00  0.00    -0.152 OA
ATOM     26  O   UNL     1      10.731   1.645  -0.383  0.00  0.00    -0.152 OA
BRANCH  24  27
ATOM     27  C   UNL     1       9.503   0.539  -2.338  0.00  0.00    +0.144 A 
ATOM     28  C   UNL     1       8.771   0.506  -3.478  0.00  0.00    +0.038 A 
ATOM     29  C   UNL     1       8.972  -0.527  -4.375  0.00  0.00    +0.030 A 
ATOM     30  C   UNL     1       9.888  -1.484  -4.081  0.00  0.00    +0.080 A 
ATOM     31  S   UNL     1      10.506  -0.929  -2.501  0.00  0.00    -0.057 S 
ATOM     32 CL   UNL     1      10.341  -2.884  -5.002  0.00  0.00    -0.076 Cl
ENDBRANCH  24  27
ENDBRANCH  22  24
ENDBRANCH   1  18
TORSDOF 6
