REMARK  Name = ZINC55104100
REMARK  8 active torsions:
REMARK  status: ('A' for Active; 'I' for Inactive)
REMARK    1  A    between atoms: C_1  and  C_2
REMARK    2  A    between atoms: C_2  and  C_3
REMARK    3  A    between atoms: C_3  and  C_4
REMARK    4  A    between atoms: C_4  and  O_5
REMARK    5  A    between atoms: O_5  and  C_6
REMARK    6  A    between atoms: C_9  and  C_12
REMARK    7  A    between atoms: C_14  and  C_27
REMARK    8  A    between atoms: C_15  and  N_26
REMARK                            x       y       z     vdW  Elec       q    Type
REMARK                         _______ _______ _______ _____ _____    ______ ____
ROOT
ATOM      1  C   UNL     1       1.846  -8.063  -3.114  0.00  0.00    +0.164 C 
ATOM      2  C   UNL     1       1.163  -8.468  -4.392  0.00  0.00    +0.092 C 
ATOM      3  C   UNL     1       1.839  -8.850  -5.503  0.00  0.00    +0.104 C 
ATOM      4  N   UNL     1       3.217  -8.907  -5.537  0.00  0.00    -0.273 N 
ATOM      5  C   UNL     1       3.892  -8.830  -4.327  0.00  0.00    +0.203 A 
ATOM      6  N   UNL     1       3.260  -8.437  -3.171  0.00  0.00    -0.299 N 
ATOM      7  C   UNL     1       4.191  -8.473  -2.172  0.00  0.00    +0.071 A 
ATOM      8  C   UNL     1       4.130  -8.188  -0.813  0.00  0.00    +0.028 A 
ATOM      9  C   UNL     1       5.299  -8.338  -0.084  0.00  0.00    +0.002 A 
ATOM     10  C   UNL     1       6.482  -8.753  -0.671  0.00  0.00    +0.002 A 
ATOM     11  C   UNL     1       6.569  -9.042  -2.021  0.00  0.00    +0.030 A 
ATOM     12  C   UNL     1       5.400  -8.898  -2.777  0.00  0.00    +0.091 A 
ATOM     13  N   UNL     1       5.147  -9.095  -4.083  0.00  0.00    -0.214 NA
ATOM     14  H   UNL     1       3.696  -8.997  -6.375  0.00  0.00    +0.156 HD
ENDROOT
BRANCH   1  18
ATOM     15  C   UNL     1       1.514  -3.833  -2.603  0.00  0.00    +0.121 A 
ATOM     16  C   UNL     1       0.980  -4.692  -1.654  0.00  0.00    +0.046 A 
ATOM     17  C   UNL     1       1.088  -6.059  -1.821  0.00  0.00    +0.009 A 
ATOM     18  C   UNL     1       1.729  -6.571  -2.934  0.00  0.00    -0.019 A 
ATOM     19  C   UNL     1       2.262  -5.718  -3.882  0.00  0.00    +0.009 A 
ATOM     20  C   UNL     1       2.151  -4.350  -3.722  0.00  0.00    +0.046 A 
BRANCH  15  21
ATOM     21  O   UNL     1       1.408  -2.488  -2.441  0.00  0.00    -0.492 OA
BRANCH  21  22
ATOM     22  C   UNL     1       0.739  -2.027  -1.265  0.00  0.00    +0.229 C 
BRANCH  22  23
ATOM     23  C   UNL     1       0.718  -0.497  -1.257  0.00  0.00    +0.041 C 
BRANCH  23  25
ATOM     24  C   UNL     1      -0.019   1.526   0.010  0.00  0.00    +0.004 C 
ATOM     25  C   UNL     1       0.002  -0.004   0.002  0.00  0.00    -0.000 C 
ENDBRANCH  23  25
ENDBRANCH  22  23
ENDBRANCH  21  22
ENDBRANCH  15  21
ENDBRANCH   1  18
BRANCH   3  26
ATOM     26  N   UNL     1       1.130  -9.192  -6.629  0.00  0.00    -0.345 N 
ATOM     27  H   UNL     1       0.161  -9.157  -6.621  0.00  0.00    +0.144 HD
ATOM     28  H   UNL     1       1.599  -9.467  -7.432  0.00  0.00    +0.144 HD
ENDBRANCH   3  26
BRANCH   2  29
ATOM     29  C   UNL     1      -0.268  -8.449  -4.436  0.00  0.00    +0.100 C 
ATOM     30  N   UNL     1      -1.403  -8.434  -4.472  0.00  0.00    -0.191 NA
ENDBRANCH   2  29
TORSDOF 7
