REMARK  Name = ZINC04017524
REMARK  6 active torsions:
REMARK  status: ('A' for Active; 'I' for Inactive)
REMARK    1  A    between atoms: C_4  and  O_28
REMARK    2  A    between atoms: C_5  and  C_7
REMARK    3  A    between atoms: N_8  and  N_9
REMARK    4  A    between atoms: C_10  and  S_12
REMARK    5  A    between atoms: S_12  and  C_13
REMARK    6  A    between atoms: N_18  and  C_21
REMARK                            x       y       z     vdW  Elec       q    Type
REMARK                         _______ _______ _______ _____ _____    ______ ____
ROOT
ATOM      1  N   UNL     1       3.140  -3.678  -0.444  0.00  0.00    -0.217 N 
ATOM      2  C   UNL     1       4.199  -4.556  -0.378  0.00  0.00    +0.146 C 
ATOM      3  N   UNL     1       5.423  -4.107  -0.437  0.00  0.00    -0.380 N 
ATOM      4  H   UNL     1       2.231  -4.012  -0.400  0.00  0.00    +0.176 HD
ATOM      5  H   UNL     1       6.169  -4.726  -0.390  0.00  0.00    +0.158 HD
ATOM      6  H   UNL     1       5.587  -3.156  -0.529  0.00  0.00    +0.158 HD
ENDROOT
BRANCH   1   8
ATOM      7  C   UNL     1       2.379  -1.476  -0.639  0.00  0.00    +0.141 C 
ATOM      8  N   UNL     1       3.377  -2.304  -0.576  0.00  0.00    -0.188 NA
BRANCH   7  13
ATOM      9  C   UNL     1       1.797   2.215  -0.976  0.00  0.00    +0.001 A 
ATOM     10  C   UNL     1       3.095   2.691  -1.040  0.00  0.00    +0.004 A 
ATOM     11  C   UNL     1       4.164   1.817  -0.973  0.00  0.00    +0.046 A 
ATOM     12  C   UNL     1       3.941   0.456  -0.842  0.00  0.00    +0.125 A 
ATOM     13  C   UNL     1       2.628  -0.030  -0.778  0.00  0.00    +0.036 A 
ATOM     14  C   UNL     1       1.557   0.863  -0.846  0.00  0.00    +0.013 A 
BRANCH  12  15
ATOM     15  O   UNL     1       4.990  -0.404  -0.777  0.00  0.00    -0.506 OA
ATOM     16  H   UNL     1       5.307  -0.571   0.121  0.00  0.00    +0.292 HD
ENDBRANCH  12  15
ENDBRANCH   7  13
ENDBRANCH   1   8
BRANCH   2  17
ATOM     17  S   UNL     1       3.901  -6.284  -0.211  0.00  0.00    -0.078 S 
BRANCH  17  18
ATOM     18  C   UNL     1       5.562  -7.013  -0.168  0.00  0.00    +0.149 C 
ATOM     19  C   UNL     1       5.478  -8.552  -0.095  0.00  0.00    +0.120 C 
ATOM     20  C   UNL     1       6.152  -8.882   1.219  0.00  0.00    +0.228 C 
ATOM     21  O   UNL     1       6.304  -9.997   1.669  0.00  0.00    -0.275 OA
ATOM     22  N   UNL     1       6.556  -7.748   1.804  0.00  0.00    -0.209 N 
ATOM     23  C   UNL     1       6.277  -6.633   1.111  0.00  0.00    +0.240 C 
ATOM     24  O   UNL     1       6.552  -5.503   1.451  0.00  0.00    -0.274 OA
BRANCH  22  25
ATOM     25  C   UNL     1       7.218  -7.725   3.040  0.00  0.00    +0.044 A 
ATOM     26  C   UNL     1       8.498  -8.251   3.153  0.00  0.00    +0.025 A 
ATOM     27  C   UNL     1       9.147  -8.227   4.372  0.00  0.00    +0.017 A 
ATOM     28  C   UNL     1       8.524  -7.681   5.479  0.00  0.00    +0.018 A 
ATOM     29  C   UNL     1       7.248  -7.157   5.370  0.00  0.00    +0.017 A 
ATOM     30  C   UNL     1       6.596  -7.173   4.152  0.00  0.00    +0.025 A 
ATOM     31 BR   UNL     1       9.416  -7.652   7.146  0.00  0.00    -0.050 Br
ENDBRANCH  22  25
ENDBRANCH  17  18
ENDBRANCH   2  17
TORSDOF 6
