REMARK  Name = ZINC41586611
REMARK  11 active torsions:
REMARK  status: ('A' for Active; 'I' for Inactive)
REMARK    1  A    between atoms: C_1  and  C_2
REMARK    2  A    between atoms: C_2  and  O_3
REMARK    3  A    between atoms: O_3  and  C_4
REMARK    4  A    between atoms: C_4  and  C_6
REMARK    5  A    between atoms: N_11  and  C_13
REMARK    6  A    between atoms: C_13  and  C_14
REMARK    7  A    between atoms: C_15  and  O_37
REMARK    8  A    between atoms: C_21  and  C_33
REMARK    9  A    between atoms: C_22  and  C_25
REMARK   10  A    between atoms: C_30  and  O_31
REMARK   11  A    between atoms: O_31  and  C_32
REMARK                            x       y       z     vdW  Elec       q    Type
REMARK                         _______ _______ _______ _____ _____    ______ ____
ROOT
ATOM      1  C   UNL     1      -5.410  -6.590  -0.182  0.00  0.00    +0.020 A 
ATOM      2  C   UNL     1      -6.121  -6.931   0.956  0.00  0.00    +0.122 A 
ATOM      3  C   UNL     1      -7.398  -7.479   0.859  0.00  0.00    +0.046 A 
ATOM      4  C   UNL     1      -7.968  -7.683  -0.366  0.00  0.00    +0.019 A 
ATOM      5  C   UNL     1      -7.266  -7.342  -1.520  0.00  0.00    +0.065 A 
ATOM      6  C   UNL     1      -5.975  -6.790  -1.435  0.00  0.00    +0.144 A 
ATOM      7  O   UNL     1      -5.295  -6.471  -2.553  0.00  0.00    -0.450 OA
ATOM      8  C   UNL     1      -5.900  -6.370  -3.738  0.00  0.00    +0.220 A 
ATOM      9  C   UNL     1      -7.143  -6.866  -3.974  0.00  0.00    +0.080 A 
ATOM     10  C   UNL     1      -7.847  -7.538  -2.862  0.00  0.00    +0.201 A 
ATOM     11  O   UNL     1      -8.853  -8.203  -3.040  0.00  0.00    -0.286 OA
ENDROOT
BRANCH   9  12
ATOM     12  C   UNL     1      -7.770  -6.746  -5.312  0.00  0.00    +0.031 A 
ATOM     13  C   UNL     1      -7.351  -7.565  -6.358  0.00  0.00    +0.012 A 
ATOM     14  C   UNL     1      -7.938  -7.449  -7.602  0.00  0.00    +0.001 A 
ATOM     15  C   UNL     1      -8.942  -6.521  -7.815  0.00  0.00    +0.004 A 
ATOM     16  C   UNL     1      -9.366  -5.704  -6.784  0.00  0.00    +0.046 A 
ATOM     17  C   UNL     1      -8.790  -5.814  -5.529  0.00  0.00    +0.128 A 
BRANCH  17  18
ATOM     18  O   UNL     1      -9.210  -5.014  -4.514  0.00  0.00    -0.494 OA
ATOM     19  C   UNL     1     -10.255  -4.086  -4.809  0.00  0.00    +0.277 C 
ENDBRANCH  17  18
ENDBRANCH   9  12
BRANCH   8  20
ATOM     20  C   UNL     1      -5.175  -5.676  -4.863  0.00  0.00    +0.451 C 
ATOM     21  F   UNL     1      -5.978  -5.680  -6.008  0.00  0.00    -0.163 F 
ATOM     22  F   UNL     1      -4.895  -4.356  -4.493  0.00  0.00    -0.163 F 
ATOM     23  F   UNL     1      -3.978  -6.349  -5.130  0.00  0.00    -0.163 F 
ENDBRANCH   8  20
BRANCH   2  24
ATOM     24  O   UNL     1      -5.568  -6.730   2.180  0.00  0.00    -0.506 OA
ATOM     25  H   UNL     1      -5.757  -5.861   2.559  0.00  0.00    +0.292 HD
ENDBRANCH   2  24
BRANCH   1  26
ATOM     26  C   UNL     1      -4.029  -5.999  -0.061  0.00  0.00    -0.036 C 
BRANCH  26  31
ATOM     27  C   UNL     1      -2.881  -2.427   0.017  0.00  0.00    +0.081 C 
ATOM     28  C   UNL     1      -3.623  -1.974   1.277  0.00  0.00    +0.011 C 
ATOM     29  C   UNL     1      -4.999  -2.646   1.317  0.00  0.00    -0.018 C 
ATOM     30  C   UNL     1      -4.820  -4.164   1.263  0.00  0.00    -0.078 C 
ATOM     31  N   UNL     1      -4.128  -4.536   0.023  0.00  0.00    +0.383 N 
ATOM     32  C   UNL     1      -2.781  -3.954   0.010  0.00  0.00    -0.064 C 
ATOM     33  H   UNL     1      -4.650  -4.190  -0.768  0.00  0.00    -0.081 HD
BRANCH  27  34
ATOM     34  C   UNL     1      -1.496  -1.832   0.006  0.00  0.00    +0.308 C 
ATOM     35  O   UNL     1      -0.528  -2.555  -0.007  0.00  0.00    -0.251 OA
BRANCH  34  36
ATOM     36  O   UNL     1      -1.339  -0.499   0.012  0.00  0.00    -0.465 OA
BRANCH  36  38
ATOM     37  C   UNL     1      -0.019   1.526   0.010  0.00  0.00    +0.048 C 
ATOM     38  C   UNL     1       0.002  -0.004   0.002  0.00  0.00    +0.229 C 
ENDBRANCH  36  38
ENDBRANCH  34  36
ENDBRANCH  27  34
ENDBRANCH  26  31
ENDBRANCH   1  26
TORSDOF 9
