REMARK  Name = ZINC36039377
REMARK  11 active torsions:
REMARK  status: ('A' for Active; 'I' for Inactive)
REMARK    1  A    between atoms: C_1  and  O_2
REMARK    2  A    between atoms: O_2  and  C_3
REMARK    3  A    between atoms: C_6  and  C_9
REMARK    4  A    between atoms: N_11  and  C_25
REMARK    5  A    between atoms: N_14  and  C_15
REMARK    6  A    between atoms: C_15  and  C_17
REMARK    7  A    between atoms: C_17  and  N_18
REMARK    8  A    between atoms: N_18  and  C_19
REMARK    9  A    between atoms: C_19  and  C_20
REMARK   10  A    between atoms: C_28  and  O_31
REMARK   11  A    between atoms: O_31  and  C_32
REMARK                            x       y       z     vdW  Elec       q    Type
REMARK                         _______ _______ _______ _____ _____    ______ ____
ROOT
ATOM      1  C   UNL     1       2.577  -2.540   4.292  0.00  0.00    +0.066 A 
ATOM      2  C   UNL     1       2.711  -3.867   4.462  0.00  0.00    +0.120 A 
ATOM      3  N   UNL     1       3.404  -4.080   5.637  0.00  0.00    -0.287 N 
ATOM      4  C   UNL     1       3.692  -2.869   6.185  0.00  0.00    +0.205 A 
ATOM      5  N   UNL     1       3.194  -1.908   5.365  0.00  0.00    -0.326 N 
ATOM      6  N   UNL     1       4.352  -2.662   7.324  0.00  0.00    -0.148 NA
ATOM      7  H   UNL     1       3.256  -0.950   5.504  0.00  0.00    +0.169 HD
ENDROOT
BRANCH   1  11
ATOM      8  C   UNL     1       0.626  -0.618   1.042  0.00  0.00    +0.120 A 
ATOM      9  C   UNL     1       1.202   0.142   2.050  0.00  0.00    +0.046 A 
ATOM     10  C   UNL     1       1.835  -0.478   3.107  0.00  0.00    +0.013 A 
ATOM     11  C   UNL     1       1.897  -1.871   3.161  0.00  0.00    +0.000 A 
ATOM     12  C   UNL     1       1.317  -2.631   2.145  0.00  0.00    +0.013 A 
ATOM     13  C   UNL     1       0.680  -2.005   1.095  0.00  0.00    +0.046 A 
BRANCH   8  15
ATOM     14  C   UNL     1      -0.017   1.425   0.010  0.00  0.00    +0.277 C 
ATOM     15  O   UNL     1       0.002  -0.004   0.002  0.00  0.00    -0.495 OA
ENDBRANCH   8  15
ENDBRANCH   1  11
BRANCH   3  16
ATOM     16  C   UNL     1       3.750  -5.328   6.173  0.00  0.00    +0.049 A 
ATOM     17  C   UNL     1       4.446  -5.400   7.373  0.00  0.00    +0.030 A 
ATOM     18  C   UNL     1       4.786  -6.630   7.900  0.00  0.00    +0.047 A 
ATOM     19  C   UNL     1       4.433  -7.793   7.232  0.00  0.00    +0.120 A 
ATOM     20  C   UNL     1       3.738  -7.722   6.034  0.00  0.00    +0.047 A 
ATOM     21  C   UNL     1       3.392  -6.493   5.508  0.00  0.00    +0.030 A 
BRANCH  19  22
ATOM     22  O   UNL     1       4.769  -9.004   7.752  0.00  0.00    -0.495 OA
ATOM     23  C   UNL     1       4.373 -10.160   7.011  0.00  0.00    +0.277 C 
ENDBRANCH  19  22
ENDBRANCH   3  16
BRANCH   6  24
ATOM     24  C   UNL     1       4.569  -1.423   7.750  0.00  0.00    +0.222 C 
ATOM     25  O   UNL     1       4.165  -0.477   7.101  0.00  0.00    -0.276 OA
BRANCH  24  26
ATOM     26  C   UNL     1       5.315  -1.189   9.038  0.00  0.00    +0.018 C 
BRANCH  26  27
ATOM     27  N   UNL     1       5.422   0.255   9.286  0.00  0.00    +0.389 N 
ATOM     28  H   UNL     1       5.921   0.691   8.525  0.00  0.00    -0.085 HD
ATOM     29  H   UNL     1       4.498   0.654   9.356  0.00  0.00    -0.085 HD
BRANCH  27  30
ATOM     30  C   UNL     1       6.150   0.483  10.542  0.00  0.00    -0.006 C 
BRANCH  30  31
ATOM     31  C   UNL     1       6.260   1.965  10.797  0.00  0.00    +0.088 A 
ATOM     32  C   UNL     1       5.378   2.712  11.484  0.00  0.00    +0.042 A 
ATOM     33  C   UNL     1       5.871   4.037  11.477  0.00  0.00    +0.041 A 
ATOM     34  C   UNL     1       7.024   4.020  10.785  0.00  0.00    +0.195 A 
ATOM     35  O   UNL     1       7.258   2.761  10.380  0.00  0.00    -0.470 OA
ENDBRANCH  30  31
ENDBRANCH  27  30
ENDBRANCH  26  27
ENDBRANCH  24  26
ENDBRANCH   6  24
TORSDOF 9
