REMARK  Name = ZINC08994176
REMARK  4 active torsions:
REMARK  status: ('A' for Active; 'I' for Inactive)
REMARK    1  A    between atoms: C_1  and  C_2
REMARK    2  A    between atoms: C_5  and  C_8
REMARK    3  A    between atoms: C_8  and  C_10
REMARK    4  A    between atoms: C_30  and  C_37
REMARK                            x       y       z     vdW  Elec       q    Type
REMARK                         _______ _______ _______ _____ _____    ______ ____
ROOT
ATOM      1  C   UNL     1      -3.813   3.112  -0.062  0.00  0.00    +0.066 C 
ATOM      2  C   UNL     1      -4.127   2.767  -1.538  0.00  0.00    -0.055 C 
ATOM      3  C   UNL     1      -2.807   2.603  -2.311  0.00  0.00    -0.016 C 
ATOM      4  C   UNL     1      -2.473   4.004  -2.859  0.00  0.00    -0.020 C 
ATOM      5  C   UNL     1      -3.600   4.920  -2.342  0.00  0.00    -0.076 C 
ATOM      6  C   UNL     1      -5.570   4.552  -0.960  0.00  0.00    +0.060 C 
ATOM      7  C   UNL     1      -4.999   4.005   0.343  0.00  0.00    +0.085 C 
ATOM      8  C   UNL     1      -6.021   3.224   1.121  0.00  0.00    -0.011 A 
ATOM      9  C   UNL     1      -6.784   2.114   0.835  0.00  0.00    +0.006 A 
ATOM     10  C   UNL     1      -7.659   1.613   1.782  0.00  0.00    +0.000 A 
ATOM     11  C   UNL     1      -7.764   2.229   3.016  0.00  0.00    +0.002 A 
ATOM     12  C   UNL     1      -7.001   3.341   3.307  0.00  0.00    +0.023 A 
ATOM     13  C   UNL     1      -6.118   3.852   2.359  0.00  0.00    +0.038 A 
ATOM     14  N   UNL     1      -5.252   4.946   2.414  0.00  0.00    -0.285 N 
ATOM     15  C   UNL     1      -4.558   5.104   1.270  0.00  0.00    +0.228 C 
ATOM     16  O   UNL     1      -3.738   5.965   1.034  0.00  0.00    -0.275 OA
ATOM     17  C   UNL     1      -5.560   6.058  -0.975  0.00  0.00    -0.026 A 
ATOM     18  C   UNL     1      -4.558   6.996  -0.868  0.00  0.00    +0.008 A 
ATOM     19  C   UNL     1      -4.864   8.344  -0.921  0.00  0.00    -0.050 A 
ATOM     20  C   UNL     1      -6.178   8.745  -1.081  0.00  0.00    +0.005 A 
ATOM     21  C   UNL     1      -7.185   7.809  -1.188  0.00  0.00    +0.024 A 
ATOM     22  C   UNL     1      -6.885   6.449  -1.136  0.00  0.00    +0.036 A 
ATOM     23  N   UNL     1      -7.712   5.328  -1.220  0.00  0.00    -0.286 N 
ATOM     24  C   UNL     1      -7.020   4.177  -1.125  0.00  0.00    +0.212 C 
ATOM     25  O   UNL     1      -7.476   3.054  -1.166  0.00  0.00    -0.277 OA
ATOM     26  C   UNL     1      -3.769   9.373  -0.804  0.00  0.00    +0.044 C 
ATOM     27  H   UNL     1      -5.161   5.526   3.187  0.00  0.00    +0.155 HD
ATOM     28  H   UNL     1      -8.675   5.373  -1.333  0.00  0.00    +0.155 HD
ATOM     29  N   UNL     1      -4.715   3.994  -2.032  0.00  0.00    +0.395 N 
ATOM     30  H   UNL     1      -5.276   3.817  -2.874  0.00  0.00    -0.079 HD
ENDROOT
BRANCH   1  31
ATOM     31  C   UNL     1      -2.515   3.870   0.044  0.00  0.00    +0.166 C 
ATOM     32  O   UNL     1      -2.500   5.072  -0.112  0.00  0.00    -0.292 OA
BRANCH  31  37
ATOM     33  C   UNL     1       2.369   1.060   1.184  0.00  0.00    +0.044 C 
ATOM     34  C   UNL     1       1.089   1.797   0.886  0.00  0.00    -0.050 A 
ATOM     35  C   UNL     1      -0.117   1.117   0.907  0.00  0.00    +0.004 A 
ATOM     36  C   UNL     1      -1.292   1.783   0.629  0.00  0.00    +0.011 A 
ATOM     37  C   UNL     1      -1.264   3.151   0.337  0.00  0.00    +0.018 A 
ATOM     38  C   UNL     1      -0.042   3.830   0.318  0.00  0.00    +0.011 A 
ATOM     39  C   UNL     1       1.125   3.149   0.592  0.00  0.00    +0.004 A 
ENDBRANCH  31  37
ENDBRANCH   1  31
TORSDOF 2
