REMARK  Name = ZINC21238158
REMARK  10 active torsions:
REMARK  status: ('A' for Active; 'I' for Inactive)
REMARK    1  A    between atoms: C_1  and  C_2
REMARK    2  A    between atoms: C_2  and  C_4
REMARK    3  A    between atoms: C_2  and  N_12
REMARK    4  A    between atoms: C_13  and  C_15
REMARK    5  A    between atoms: C_15  and  S_16
REMARK    6  A    between atoms: S_16  and  C_17
REMARK    7  A    between atoms: C_20  and  C_23
REMARK    8  A    between atoms: N_21  and  N_22
REMARK    9  A    between atoms: C_26  and  O_29
REMARK   10  A    between atoms: O_29  and  C_30
REMARK                            x       y       z     vdW  Elec       q    Type
REMARK                         _______ _______ _______ _____ _____    ______ ____
ROOT
ATOM      1  C   UNL     1       6.322   1.181  -1.328  0.00  0.00    +0.209 A 
ATOM      2  N   UNL     1       6.689   2.282  -0.712  0.00  0.00    -0.121 NA
ATOM      3  N   UNL     1       7.883   2.605  -1.060  0.00  0.00    -0.127 NA
ATOM      4  C   UNL     1       8.349   1.735  -1.925  0.00  0.00    +0.182 A 
ATOM      5  N   UNL     1       7.364   0.796  -2.124  0.00  0.00    -0.224 N 
ENDROOT
BRANCH   4   6
ATOM      6  C   UNL     1       9.681   1.760  -2.566  0.00  0.00    +0.021 A 
ATOM      7  C   UNL     1      10.702   2.547  -2.029  0.00  0.00    +0.015 A 
ATOM      8  C   UNL     1      11.944   2.564  -2.626  0.00  0.00    +0.046 A 
ATOM      9  C   UNL     1      12.178   1.807  -3.767  0.00  0.00    +0.127 A 
ATOM     10  C   UNL     1      11.164   1.027  -4.307  0.00  0.00    +0.046 A 
ATOM     11  C   UNL     1       9.921   1.001  -3.713  0.00  0.00    +0.015 A 
BRANCH   9  12
ATOM     12  O   UNL     1      13.402   1.831  -4.356  0.00  0.00    -0.434 OA
BRANCH  12  13
ATOM     13  C   UNL     1      14.399   2.655  -3.748  0.00  0.00    +0.541 C 
ATOM     14  F   UNL     1      13.962   3.983  -3.736  0.00  0.00    -0.166 F 
ATOM     15  F   UNL     1      14.622   2.225  -2.435  0.00  0.00    -0.166 F 
ENDBRANCH  12  13
ENDBRANCH   9  12
ENDBRANCH   4   6
BRANCH   5  16
ATOM     16  N   UNL     1       7.415  -0.293  -2.946  0.00  0.00    -0.295 N 
ATOM     17  H   UNL     1       8.320  -0.493  -3.539  0.00  0.00    +0.163 HD
ATOM     18  H   UNL     1       6.552  -0.972  -3.015  0.00  0.00    +0.163 HD
ENDBRANCH   5  16
BRANCH   1  19
ATOM     19  S   UNL     1       4.772   0.359  -1.165  0.00  0.00    -0.075 S 
BRANCH  19  20
ATOM     20  C   UNL     1       3.963   1.449   0.032  0.00  0.00    +0.173 C 
BRANCH  20  22
ATOM     21  N   UNL     1       1.788   1.583   1.204  0.00  0.00    -0.308 N 
ATOM     22  C   UNL     1       2.581   0.928   0.333  0.00  0.00    +0.224 C 
ATOM     23  O   UNL     1       2.183  -0.082  -0.209  0.00  0.00    -0.275 OA
ATOM     24  H   UNL     1       2.150   2.498   1.695  0.00  0.00    +0.149 HD
BRANCH  21  26
ATOM     25  C   UNL     1      -0.535   1.592   0.441  0.00  0.00    +0.033 C 
ATOM     26  C   UNL     1       0.445   1.076   1.496  0.00  0.00    +0.102 C 
BRANCH  26  27
ATOM     27  C   UNL     1       0.014   1.553   2.859  0.00  0.00    -0.009 A 
ATOM     28  C   UNL     1       0.559   2.706   3.392  0.00  0.00    +0.008 A 
ATOM     29  C   UNL     1       0.164   3.144   4.642  0.00  0.00    +0.020 A 
ATOM     30  C   UNL     1      -0.778   2.428   5.360  0.00  0.00    +0.042 A 
ATOM     31  C   UNL     1      -1.324   1.275   4.827  0.00  0.00    +0.040 A 
ATOM     32  C   UNL     1      -0.932   0.840   3.573  0.00  0.00    +0.047 A 
ATOM     33 CL   UNL     1      -1.623  -0.603   2.900  0.00  0.00    -0.083 Cl
ATOM     34 CL   UNL     1      -1.274   2.979   6.930  0.00  0.00    -0.083 Cl
ENDBRANCH  26  27
ENDBRANCH  21  26
ENDBRANCH  20  22
ENDBRANCH  19  20
ENDBRANCH   1  19
TORSDOF 9
