REMARK  Name = ZINC39995181
REMARK  8 active torsions:
REMARK  status: ('A' for Active; 'I' for Inactive)
REMARK    1  A    between atoms: C_1  and  C_2
REMARK    2  A    between atoms: C_2  and  C_4
REMARK    3  A    between atoms: C_2  and  N_9
REMARK    4  A    between atoms: C_10  and  C_12
REMARK    5  A    between atoms: C_12  and  S_13
REMARK    6  A    between atoms: S_13  and  C_14
REMARK    7  A    between atoms: C_18  and  C_23
REMARK    8  A    between atoms: N_19  and  C_20
REMARK                            x       y       z     vdW  Elec       q    Type
REMARK                         _______ _______ _______ _____ _____    ______ ____
ROOT
ATOM      1  C   UNL     1      -5.855  -1.860  -2.676  0.00  0.00    +0.237 C 
ATOM      2  N   UNL     1      -5.982  -3.200  -2.080  0.00  0.00    -0.237 N 
ATOM      3  N   UNL     1      -6.556  -3.020  -0.816  0.00  0.00    -0.169 NA
ATOM      4  C   UNL     1      -6.788  -1.757  -0.576  0.00  0.00    +0.147 C 
ATOM      5  N   UNL     1      -6.397  -0.952  -1.652  0.00  0.00    -0.282 N 
ATOM      6  H   UNL     1      -5.721  -4.042  -2.484  0.00  0.00    +0.171 HD
ENDROOT
BRANCH   4   7
ATOM      7  C   UNL     1      -7.358  -1.269   0.610  0.00  0.00    +0.022 C 
ATOM      8  C   UNL     1      -7.678  -2.000   1.755  0.00  0.00    +0.006 A 
ATOM      9  C   UNL     1      -7.547  -3.366   2.082  0.00  0.00    +0.010 A 
ATOM     10  C   UNL     1      -7.951  -3.809   3.300  0.00  0.00    +0.001 A 
ATOM     11  C   UNL     1      -8.499  -2.943   4.248  0.00  0.00    +0.002 A 
ATOM     12  C   UNL     1      -8.655  -1.619   4.002  0.00  0.00    +0.026 A 
ATOM     13  C   UNL     1      -8.255  -1.082   2.751  0.00  0.00    +0.043 A 
ATOM     14  N   UNL     1      -8.300   0.147   2.275  0.00  0.00    -0.380 N 
ATOM     15  C   UNL     1      -7.748   0.160   0.917  0.00  0.00    +0.152 C 
ATOM     16  H   UNL     1      -8.639   0.921   2.751  0.00  0.00    +0.160 HD
ENDBRANCH   4   7
BRANCH   5  17
ATOM     17  C   UNL     1      -6.505   0.506  -1.744  0.00  0.00    +0.078 C 
ATOM     18  C   UNL     1      -6.096   1.163  -3.064  0.00  0.00    +0.024 C 
ATOM     19  C   UNL     1      -5.204   1.307  -1.829  0.00  0.00    +0.024 C 
ENDBRANCH   5  17
BRANCH   1  20
ATOM     20  S   UNL     1      -4.113  -1.476  -3.007  0.00  0.00    -0.109 S 
BRANCH  20  21
ATOM     21  C   UNL     1      -3.309  -1.657  -1.391  0.00  0.00    +0.168 C 
BRANCH  21  23
ATOM     22  N   UNL     1      -1.034  -1.435  -0.446  0.00  0.00    -0.305 N 
ATOM     23  C   UNL     1      -1.837  -1.362  -1.526  0.00  0.00    +0.224 C 
ATOM     24  O   UNL     1      -1.376  -1.059  -2.606  0.00  0.00    -0.275 OA
ATOM     25  H   UNL     1      -1.403  -1.677   0.418  0.00  0.00    +0.149 HD
BRANCH  22  27
ATOM     26  C   UNL     1       0.627   0.361  -0.464  0.00  0.00    +0.036 C 
ATOM     27  C   UNL     1       0.397  -1.148  -0.577  0.00  0.00    +0.136 C 
BRANCH  27  28
ATOM     28  C   UNL     1       1.153  -1.854   0.518  0.00  0.00    +0.125 A 
ATOM     29  C   UNL     1       2.343  -2.468   0.383  0.00  0.00    +0.046 A 
ATOM     30  C   UNL     1       2.680  -2.992   1.652  0.00  0.00    +0.041 A 
ATOM     31  C   UNL     1       1.676  -2.668   2.486  0.00  0.00    +0.195 A 
ATOM     32  O   UNL     1       0.757  -1.974   1.796  0.00  0.00    -0.466 OA
ENDBRANCH  27  28
ENDBRANCH  22  27
ENDBRANCH  21  23
ENDBRANCH  20  21
ENDBRANCH   1  20
TORSDOF 7
