REMARK  Name = ZINC39227533
REMARK  8 active torsions:
REMARK  status: ('A' for Active; 'I' for Inactive)
REMARK    1  A    between atoms: C_1  and  C_2
REMARK    2  A    between atoms: C_2  and  C_3
REMARK    3  A    between atoms: C_2  and  N_4
REMARK    4  A    between atoms: C_15  and  C_20
REMARK    5  A    between atoms: C_23  and  C_26
REMARK    6  A    between atoms: N_28  and  C_29
REMARK    7  A    between atoms: C_29  and  C_30
REMARK    8  A    between atoms: C_30  and  C_31
REMARK                            x       y       z     vdW  Elec       q    Type
REMARK                         _______ _______ _______ _____ _____    ______ ____
ROOT
ATOM      1  N   UNL     1       0.713  -0.491   1.192  0.00  0.00    +0.381 N 
ATOM      2  C   UNL     1       0.740  -1.958   1.178  0.00  0.00    -0.075 C 
ATOM      3  C   UNL     1       1.549  -2.469   2.372  0.00  0.00    +0.030 C 
ATOM      4  C   UNL     1       0.901  -1.978   3.668  0.00  0.00    +0.114 C 
ATOM      5  C   UNL     1       0.807  -0.451   3.640  0.00  0.00    +0.030 C 
ATOM      6  C   UNL     1       0.024  -0.017   2.399  0.00  0.00    -0.075 C 
ATOM      7  C   UNL     1       1.761  -2.412   4.863  0.00  0.00    +0.127 C 
ATOM      8  C   UNL     1       1.062  -1.920   6.119  0.00  0.00    +0.170 C 
ATOM      9  O   UNL     1       1.680  -1.458   7.054  0.00  0.00    -0.292 OA
ATOM     10  C   UNL     1      -0.408  -2.035   6.141  0.00  0.00    +0.060 A 
ATOM     11  C   UNL     1      -1.117  -1.842   7.325  0.00  0.00    +0.023 A 
ATOM     12  C   UNL     1      -2.504  -1.950   7.319  0.00  0.00    -0.017 A 
ATOM     13  C   UNL     1      -3.174  -2.250   6.129  0.00  0.00    +0.012 A 
ATOM     14  C   UNL     1      -2.473  -2.441   4.959  0.00  0.00    +0.047 A 
ATOM     15  C   UNL     1      -1.087  -2.339   4.948  0.00  0.00    +0.132 A 
ATOM     16  O   UNL     1      -0.405  -2.538   3.796  0.00  0.00    -0.485 OA
ATOM     17  H   UNL     1       1.658  -0.139   1.185  0.00  0.00    -0.081 HD
ENDROOT
BRANCH  12  18
ATOM     18  C   UNL     1      -3.269  -1.749   8.572  0.00  0.00    -0.018 A 
ATOM     19  C   UNL     1      -2.599  -1.445   9.757  0.00  0.00    +0.009 A 
ATOM     20  C   UNL     1      -3.310  -1.258  10.921  0.00  0.00    +0.013 A 
ATOM     21  C   UNL     1      -4.702  -1.373  10.916  0.00  0.00    +0.037 A 
ATOM     22  C   UNL     1      -5.372  -1.677   9.728  0.00  0.00    +0.013 A 
ATOM     23  C   UNL     1      -4.661  -1.858   8.564  0.00  0.00    +0.009 A 
BRANCH  21  24
ATOM     24  C   UNL     1      -5.465  -1.173  12.164  0.00  0.00    +0.244 C 
ATOM     25  O   UNL     1      -4.882  -0.909  13.198  0.00  0.00    -0.270 OA
ATOM     26  N   UNL     1      -6.808  -1.284  12.158  0.00  0.00    -0.311 N 
ATOM     27  H   UNL     1      -7.274  -1.494  11.334  0.00  0.00    +0.149 HD
BRANCH  26  28
ATOM     28  C   UNL     1      -7.565  -1.085  13.397  0.00  0.00    +0.109 C 
BRANCH  28  29
ATOM     29  C   UNL     1      -9.059  -1.266  13.116  0.00  0.00    +0.061 C 
BRANCH  29  30
ATOM     30  C   UNL     1      -9.837  -1.062  14.390  0.00  0.00    -0.009 A 
ATOM     31  C   UNL     1     -10.366   0.080  14.894  0.00  0.00    +0.011 A 
ATOM     32  C   UNL     1     -11.050   0.029  16.094  0.00  0.00    +0.008 A 
ATOM     33  C   UNL     1     -11.171  -1.161  16.732  0.00  0.00    +0.045 A 
ATOM     34  S   UNL     1     -10.309  -2.263  15.624  0.00  0.00    -0.102 S 
ENDBRANCH  29  30
ENDBRANCH  28  29
ENDBRANCH  26  28
ENDBRANCH  21  24
ENDBRANCH  12  18
BRANCH   1  36
ATOM     35  C   UNL     1      -0.019   1.526   0.010  0.00  0.00    -0.014 C 
ATOM     36  C   UNL     1       0.002  -0.004   0.002  0.00  0.00    -0.075 C 
ATOM     37  C   UNL     1       0.718  -0.497  -1.257  0.00  0.00    -0.014 C 
ENDBRANCH   1  36
TORSDOF 6
