REMARK  Name = ZINC21078346
REMARK  7 active torsions:
REMARK  status: ('A' for Active; 'I' for Inactive)
REMARK    1  A    between atoms: C_6  and  C_7
REMARK    2  A    between atoms: N_8  and  N_9
REMARK    3  A    between atoms: C_12  and  S_15
REMARK    4  A    between atoms: S_15  and  C_16
REMARK    5  A    between atoms: C_16  and  C_17
REMARK    6  A    between atoms: C_17  and  C_18
REMARK    7  A    between atoms: N_20  and  C_21
REMARK                            x       y       z     vdW  Elec       q    Type
REMARK                         _______ _______ _______ _____ _____    ______ ____
ROOT
ATOM      1  N   UNL     1       1.693   3.125   0.065  0.00  0.00    -0.205 N 
ATOM      2  C   UNL     1       1.282   1.800   0.053  0.00  0.00    +0.232 A 
ATOM      3  N   UNL     1      -0.013   1.360   0.062  0.00  0.00    -0.186 NA
ATOM      4  C   UNL     1       0.005  -0.005   0.045  0.00  0.00    +0.210 A 
ATOM      5  N   UNL     1       1.258  -0.394   0.025  0.00  0.00    -0.144 NA
ATOM      6  N   UNL     1       2.066   0.750   0.030  0.00  0.00    -0.245 N 
ATOM      7  H   UNL     1       0.946   3.933   0.083  0.00  0.00    +0.177 HD
ATOM      8  H   UNL     1       3.158   0.880   0.019  0.00  0.00    +0.192 HD
ENDROOT
BRANCH   1  10
ATOM      9  C   UNL     1       3.444   4.675   0.063  0.00  0.00    +0.138 C 
ATOM     10  N   UNL     1       3.059   3.435   0.053  0.00  0.00    -0.188 NA
BRANCH   9  16
ATOM     11  C   UNL     1       5.833   3.977   0.033  0.00  0.00    +0.010 A 
ATOM     12  C   UNL     1       7.176   4.289   0.016  0.00  0.00    +0.016 A 
ATOM     13  C   UNL     1       7.583   5.613   0.027  0.00  0.00    +0.018 A 
ATOM     14  C   UNL     1       6.646   6.632   0.051  0.00  0.00    +0.016 A 
ATOM     15  C   UNL     1       5.300   6.334   0.062  0.00  0.00    +0.010 A 
ATOM     16  C   UNL     1       4.882   5.001   0.051  0.00  0.00    -0.005 A 
ATOM     17 BR   UNL     1       9.428   6.030   0.011  0.00  0.00    -0.050 Br
ENDBRANCH   9  16
ENDBRANCH   1  10
BRANCH   4  18
ATOM     18  S   UNL     1      -1.407  -1.060   0.047  0.00  0.00    -0.084 S 
BRANCH  18  19
ATOM     19  C   UNL     1      -0.705  -2.732   0.017  0.00  0.00    +0.086 C 
BRANCH  19  20
ATOM     20  C   UNL     1      -1.838  -3.760   0.017  0.00  0.00    +0.107 C 
BRANCH  20  21
ATOM     21  C   UNL     1      -1.256  -5.150  -0.008  0.00  0.00    +0.218 C 
ATOM     22  O   UNL     1      -0.053  -5.303  -0.023  0.00  0.00    -0.275 OA
ATOM     23  N   UNL     1      -2.071  -6.223  -0.012  0.00  0.00    -0.284 N 
ATOM     24  H   UNL     1      -3.159  -6.087   0.076  0.00  0.00    +0.155 HD
BRANCH  23  25
ATOM     25  C   UNL     1      -1.534  -7.510  -0.130  0.00  0.00    +0.053 A 
ATOM     26  C   UNL     1      -0.308  -7.807   0.448  0.00  0.00    +0.044 A 
ATOM     27  C   UNL     1       0.218  -9.081   0.335  0.00  0.00    +0.043 A 
ATOM     28  C   UNL     1      -0.473 -10.056  -0.363  0.00  0.00    +0.021 A 
ATOM     29  C   UNL     1      -1.692  -9.762  -0.945  0.00  0.00    +0.023 A 
ATOM     30  C   UNL     1      -2.225  -8.491  -0.830  0.00  0.00    +0.062 A 
ATOM     31 CL   UNL     1      -3.756  -8.123  -1.561  0.00  0.00    -0.082 Cl
ATOM     32 CL   UNL     1       1.748  -9.456   1.064  0.00  0.00    -0.083 Cl
ENDBRANCH  23  25
ENDBRANCH  20  21
ENDBRANCH  19  20
ENDBRANCH  18  19
ENDBRANCH   4  18
TORSDOF 7
