REMARK  Name = ZINC03878775
REMARK  6 active torsions:
REMARK  status: ('A' for Active; 'I' for Inactive)
REMARK    1  A    between atoms: C_1  and  N_2
REMARK    2  A    between atoms: C_6  and  N_28
REMARK    3  A    between atoms: C_9  and  C_22
REMARK    4  A    between atoms: C_10  and  C_11
REMARK    5  A    between atoms: C_11  and  N_59
REMARK    6  A    between atoms: C_12  and  N_59
REMARK                            x       y       z     vdW  Elec       q    Type
REMARK                         _______ _______ _______ _____ _____    ______ ____
ROOT
ATOM      1  C   UNL     1      -0.067   7.436  -2.352  0.00  0.00    +0.149 C 
ATOM      2  N   UNL     1      -1.252   7.916  -1.637  0.00  0.00    -0.348 N 
ATOM      3  C   UNL     1      -1.559   9.241  -1.419  0.00  0.00    +0.050 A 
ATOM      4  C   UNL     1      -0.930  10.435  -1.758  0.00  0.00    +0.028 A 
ATOM      5  C   UNL     1      -1.496  11.636  -1.390  0.00  0.00    +0.035 A 
ATOM      6  C   UNL     1      -2.691  11.668  -0.684  0.00  0.00    +0.127 A 
ATOM      7  C   UNL     1      -3.325  10.506  -0.341  0.00  0.00    +0.043 A 
ATOM      8  C   UNL     1      -2.768   9.280  -0.704  0.00  0.00    +0.010 A 
ATOM      9  C   UNL     1      -3.171   7.878  -0.511  0.00  0.00    +0.009 A 
ATOM     10  C   UNL     1      -2.214   7.115  -1.091  0.00  0.00    +0.010 A 
ENDROOT
BRANCH   9  11
ATOM     11  C   UNL     1      -4.386   7.394   0.186  0.00  0.00    -0.016 A 
ATOM     12  C   UNL     1      -5.377   6.716  -0.523  0.00  0.00    +0.008 A 
ATOM     13  C   UNL     1      -6.504   6.264   0.132  0.00  0.00    +0.001 A 
ATOM     14  C   UNL     1      -6.658   6.492   1.488  0.00  0.00    +0.000 A 
ATOM     15  C   UNL     1      -5.681   7.169   2.196  0.00  0.00    +0.001 A 
ATOM     16  C   UNL     1      -4.547   7.621   1.552  0.00  0.00    +0.008 A 
ENDBRANCH   9  11
BRANCH   6  17
ATOM     17  N   UNL     1      -3.282  12.969  -0.299  0.00  0.00    +0.056 N 
ATOM     18  O   UNL     1      -2.721  14.006  -0.602  0.00  0.00    -0.126 OA
ATOM     19  O   UNL     1      -4.330  13.002   0.321  0.00  0.00    -0.126 OA
ENDBRANCH   6  17
BRANCH  10  20
ATOM     20  C   UNL     1      -2.214   5.608  -1.135  0.00  0.00    -0.027 C 
BRANCH  20  21
ATOM     21  N   UNL     1      -1.505   5.091   0.051  0.00  0.00    +0.386 N 
ATOM     22  H   UNL     1      -1.983   5.415   0.900  0.00  0.00    -0.085 HD
ATOM     23  H   UNL     1      -0.539   5.440   0.048  0.00  0.00    -0.085 HD
BRANCH  21  24
ATOM     24  C   UNL     1      -1.490   3.616   0.036  0.00  0.00    -0.067 C 
ATOM     25  C   UNL     1      -0.773   3.123  -1.223  0.00  0.00    -0.009 C 
ATOM     26  C   UNL     1      -0.753   1.593  -1.232  0.00  0.00    -0.012 C 
ATOM     27  C   UNL     1      -0.013   1.086   0.008  0.00  0.00    +0.007 C 
ATOM     28  C   UNL     1      -0.729   1.579   1.267  0.00  0.00    -0.012 C 
ATOM     29  C   UNL     1      -0.750   3.109   1.275  0.00  0.00    -0.009 C 
ATOM     30  C   UNL     1      -2.164   1.050   1.278  0.00  0.00    +0.007 C 
ATOM     31  C   UNL     1      -2.904   1.556   0.038  0.00  0.00    -0.012 C 
ATOM     32  C   UNL     1      -2.188   1.063  -1.221  0.00  0.00    +0.007 C 
ATOM     33  C   UNL     1      -2.925   3.086   0.047  0.00  0.00    -0.009 C 
ENDBRANCH  21  24
ENDBRANCH  20  21
ENDBRANCH  10  20
TORSDOF 5
