REMARK  Name = ZINC45145850
REMARK  7 active torsions:
REMARK  status: ('A' for Active; 'I' for Inactive)
REMARK    1  A    between atoms: C_1  and  C_2
REMARK    2  A    between atoms: C_2  and  C_4
REMARK    3  A    between atoms: C_2  and  N_8
REMARK    4  A    between atoms: N_5  and  O_6
REMARK    5  A    between atoms: N_8  and  C_9
REMARK    6  A    between atoms: N_8  and  S_10
REMARK    7  A    between atoms: S_10  and  C_13
REMARK                            x       y       z     vdW  Elec       q    Type
REMARK                         _______ _______ _______ _____ _____    ______ ____
ROOT
ATOM      1  S   UNL     1      -0.188  -1.591  -2.141  0.00  0.00    +0.064 S 
ATOM      2  O   UNL     1       0.723  -2.563  -2.635  0.00  0.00    -0.153 OA
ATOM      3  O   UNL     1      -1.354  -1.942  -1.408  0.00  0.00    -0.153 OA
ENDROOT
BRANCH   1   4
ATOM      4  C   UNL     1      -0.731  -0.657  -3.533  0.00  0.00    +0.142 A 
ATOM      5  C   UNL     1      -1.940   0.014  -3.487  0.00  0.00    +0.070 A 
ATOM      6  C   UNL     1      -2.366   0.747  -4.580  0.00  0.00    +0.037 A 
ATOM      7  C   UNL     1      -1.583   0.811  -5.718  0.00  0.00    +0.021 A 
ATOM      8  C   UNL     1      -0.373   0.141  -5.764  0.00  0.00    +0.037 A 
ATOM      9  C   UNL     1       0.055  -0.589  -4.670  0.00  0.00    +0.070 A 
ATOM     10 CL   UNL     1       1.576  -1.424  -4.724  0.00  0.00    -0.081 Cl
ATOM     11 BR   UNL     1      -2.165   1.813  -7.212  0.00  0.00    -0.050 Br
ATOM     12 CL   UNL     1      -2.924  -0.067  -2.059  0.00  0.00    -0.081 Cl
ENDBRANCH   1   4
BRANCH   1  13
ATOM     13  N   UNL     1       0.687  -0.569  -1.177  0.00  0.00    -0.170 NA
ATOM     14  C   UNL     1       2.132  -0.433  -1.375  0.00  0.00    +0.132 C 
BRANCH  13  16
ATOM     15  C   UNL     1       0.281   1.692  -0.337  0.00  0.00    +0.034 C 
ATOM     16  C   UNL     1       0.017   0.200  -0.125  0.00  0.00    +0.143 C 
BRANCH  16  17
ATOM     17  C   UNL     1       0.550  -0.218   1.221  0.00  0.00    +0.150 C 
ATOM     18  N   UNL     1       1.384  -1.201   1.308  0.00  0.00    -0.075 NA
ATOM     19  N   UNL     1       0.150   0.448   2.358  0.00  0.00    -0.343 N 
ATOM     20  H   UNL     1      -0.551   1.116   2.307  0.00  0.00    +0.144 HD
ATOM     21  H   UNL     1       0.569   0.249   3.210  0.00  0.00    +0.144 HD
BRANCH  18  22
ATOM     22  O   UNL     1       1.885  -1.594   2.573  0.00  0.00    -0.408 OA
ATOM     23  H   UNL     1       2.502  -2.338   2.538  0.00  0.00    +0.328 HD
ENDBRANCH  18  22
ENDBRANCH  16  17
ENDBRANCH  13  16
ENDBRANCH   1  13
TORSDOF 5
