REMARK  Name = ZINC15442084
REMARK  4 active torsions:
REMARK  status: ('A' for Active; 'I' for Inactive)
REMARK    1  A    between atoms: C_4  and  C_7
REMARK    2  A    between atoms: C_8  and  C_18
REMARK    3  A    between atoms: C_9  and  O_17
REMARK    4  A    between atoms: C_14  and  C_15
REMARK                            x       y       z     vdW  Elec       q    Type
REMARK                         _______ _______ _______ _____ _____    ______ ____
ROOT
ATOM      1  C   UNL     1      -0.055   3.750   0.023  0.00  0.00    +0.027 A 
ATOM      2  C   UNL     1      -1.260   3.006   0.030  0.00  0.00    +0.120 A 
ATOM      3  C   UNL     1      -1.204   1.613   0.017  0.00  0.00    +0.211 A 
ATOM      4  N   UNL     1      -0.011   0.966   0.007  0.00  0.00    -0.292 N 
ATOM      5  H   UNL     1       0.002  -0.004   0.002  0.00  0.00    +0.172 HD
ATOM      6  C   UNL     1       1.153   1.639  -0.000  0.00  0.00    +0.269 A 
ATOM      7  O   UNL     1       2.206   1.025  -0.013  0.00  0.00    -0.266 OA
ATOM      8  C   UNL     1       1.166   3.055   0.008  0.00  0.00    +0.125 A 
ENDROOT
BRANCH   1  12
ATOM      9  C   UNL     1      -0.130   7.997   0.049  0.00  0.00    +0.000 A 
ATOM     10  C   UNL     1       0.380   7.324  -1.047  0.00  0.00    +0.001 A 
ATOM     11  C   UNL     1       0.407   5.945  -1.062  0.00  0.00    +0.008 A 
ATOM     12  C   UNL     1      -0.081   5.228   0.032  0.00  0.00    -0.015 A 
ATOM     13  C   UNL     1      -0.598   5.913   1.133  0.00  0.00    +0.008 A 
ATOM     14  C   UNL     1      -0.615   7.293   1.137  0.00  0.00    +0.001 A 
ENDBRANCH   1  12
BRANCH   8  15
ATOM     15  C   UNL     1       2.407   3.769   0.001  0.00  0.00    +0.105 C 
ATOM     16  N   UNL     1       3.392   4.335  -0.005  0.00  0.00    -0.191 NA
ENDBRANCH   8  15
BRANCH   3  17
ATOM     17  O   UNL     1      -2.347   0.900   0.018  0.00  0.00    -0.493 OA
ATOM     18  H   UNL     1      -2.265  -0.063   0.013  0.00  0.00    +0.294 HD
ENDBRANCH   3  17
BRANCH   2  19
ATOM     19  C   UNL     1      -2.524   3.678   0.046  0.00  0.00    +0.105 C 
ATOM     20  N   UNL     1      -3.527   4.211   0.058  0.00  0.00    -0.191 NA
ENDBRANCH   2  19
TORSDOF 4
