REMARK  Name = ZINC10048320
REMARK  11 active torsions:
REMARK  status: ('A' for Active; 'I' for Inactive)
REMARK    1  A    between atoms: C_1  and  C_2
REMARK    2  A    between atoms: C_5  and  N_9
REMARK    3  A    between atoms: C_6  and  C_8
REMARK    4  A    between atoms: N_9  and  C_10
REMARK    5  A    between atoms: C_10  and  C_11
REMARK    6  A    between atoms: C_11  and  C_13
REMARK    7  A    between atoms: C_11  and  C_14
REMARK    8  A    between atoms: C_14  and  N_15
REMARK    9  A    between atoms: C_24  and  C_32
REMARK   10  A    between atoms: N_25  and  C_26
REMARK   11  A    between atoms: N_33  and  C_36
REMARK                            x       y       z     vdW  Elec       q    Type
REMARK                         _______ _______ _______ _____ _____    ______ ____
ROOT
ATOM      1  N   UNL     1      -0.008  -0.140   2.444  0.00  0.00    -0.259 N 
ATOM      2  C   UNL     1       0.250   1.037   3.050  0.00  0.00    +0.283 A 
ATOM      3  O   UNL     1       1.100   1.786   2.603  0.00  0.00    -0.265 OA
ATOM      4  C   UNL     1      -0.475   1.392   4.200  0.00  0.00    +0.157 A 
ATOM      5  C   UNL     1      -1.438   0.513   4.695  0.00  0.00    +0.170 A 
ATOM      6  N   UNL     1      -1.970   1.073   5.779  0.00  0.00    -0.193 NA
ATOM      7  C   UNL     1      -1.405   2.250   6.003  0.00  0.00    +0.223 A 
ATOM      8  N   UNL     1      -0.474   2.488   5.049  0.00  0.00    -0.277 N 
ATOM      9  C   UNL     1       0.101   3.721   5.304  0.00  0.00    +0.116 A 
ATOM     10  C   UNL     1      -0.467   4.231   6.393  0.00  0.00    +0.040 A 
ATOM     11  N   UNL     1      -1.413   3.330   6.849  0.00  0.00    -0.283 N 
ATOM     12  C   UNL     1      -0.137   5.560   7.022  0.00  0.00    +0.065 C 
ATOM     13  N   UNL     1      -1.654  -0.684   4.030  0.00  0.00    -0.279 N 
ATOM     14  C   UNL     1      -0.939  -0.981   2.928  0.00  0.00    +0.333 A 
ATOM     15  O   UNL     1      -1.140  -2.035   2.357  0.00  0.00    -0.246 OA
ATOM     16  C   UNL     1      -2.659  -1.627   4.526  0.00  0.00    +0.155 C 
ENDROOT
BRANCH  11  17
ATOM     17  C   UNL     1      -2.231   3.492   7.974  0.00  0.00    +0.050 A 
ATOM     18  C   UNL     1      -3.607   3.606   7.822  0.00  0.00    +0.026 A 
ATOM     19  C   UNL     1      -4.412   3.761   8.934  0.00  0.00    +0.002 A 
ATOM     20  C   UNL     1      -3.849   3.812  10.195  0.00  0.00    +0.000 A 
ATOM     21  C   UNL     1      -2.479   3.703  10.349  0.00  0.00    +0.002 A 
ATOM     22  C   UNL     1      -1.669   3.543   9.242  0.00  0.00    +0.026 A 
ENDBRANCH  11  17
BRANCH   1  23
ATOM     23  C   UNL     1       0.742  -0.511   1.242  0.00  0.00    +0.134 C 
BRANCH  23  24
ATOM     24  C   UNL     1       0.002  -0.004   0.002  0.00  0.00    +0.023 C 
ATOM     25  C   UNL     1      -0.019   1.526   0.010  0.00  0.00    +0.011 C 
BRANCH  24  26
ATOM     26  C   UNL     1       0.718  -0.497  -1.257  0.00  0.00    +0.106 C 
BRANCH  26  27
ATOM     27  N   UNL     1      -0.055  -0.114  -2.441  0.00  0.00    -0.343 N 
ATOM     28  H   UNL     1      -0.885   0.378  -2.339  0.00  0.00    +0.146 HD
BRANCH  27  33
ATOM     29  C   UNL     1       1.802  -1.508  -7.614  0.00  0.00    +0.044 C 
ATOM     30  C   UNL     1       1.309  -1.137  -6.239  0.00  0.00    -0.050 A 
ATOM     31  C   UNL     1       2.040  -1.499  -5.123  0.00  0.00    +0.005 A 
ATOM     32  C   UNL     1       1.591  -1.162  -3.862  0.00  0.00    +0.023 A 
ATOM     33  C   UNL     1       0.403  -0.457  -3.715  0.00  0.00    +0.030 A 
ATOM     34  C   UNL     1      -0.332  -0.099  -4.838  0.00  0.00    -0.029 A 
ATOM     35  C   UNL     1       0.126  -0.436  -6.097  0.00  0.00    +0.008 A 
ATOM     36  C   UNL     1      -1.625   0.660  -4.683  0.00  0.00    +0.045 C 
ENDBRANCH  27  33
ENDBRANCH  26  27
ENDBRANCH  24  26
ENDBRANCH  23  24
ENDBRANCH   1  23
TORSDOF 6
