REMARK  Name = ZINC24023310
REMARK  8 active torsions:
REMARK  status: ('A' for Active; 'I' for Inactive)
REMARK    1  A    between atoms: C_1  and  C_2
REMARK    2  A    between atoms: C_3  and  N_11
REMARK    3  A    between atoms: C_7  and  N_8
REMARK    4  A    between atoms: C_12  and  C_14
REMARK    5  A    between atoms: C_14  and  C_16
REMARK    6  A    between atoms: C_14  and  S_17
REMARK    7  A    between atoms: S_17  and  C_18
REMARK    8  A    between atoms: N_22  and  C_23
REMARK                            x       y       z     vdW  Elec       q    Type
REMARK                         _______ _______ _______ _____ _____    ______ ____
ROOT
ATOM      1  C   UNL     1       3.477  -3.844  -2.892  0.00  0.00    +0.137 C 
ATOM      2  C   UNL     1       2.273  -4.573  -3.490  0.00  0.00    +0.029 C 
ENDROOT
BRANCH   1   4
ATOM      3  N   UNL     1       5.357  -4.712  -4.244  0.00  0.00    -0.284 N 
ATOM      4  C   UNL     1       4.541  -3.682  -3.946  0.00  0.00    +0.230 C 
ATOM      5  O   UNL     1       4.664  -2.624  -4.526  0.00  0.00    -0.274 OA
ATOM      6  H   UNL     1       5.308  -5.640  -3.655  0.00  0.00    +0.155 HD
BRANCH   3   9
ATOM      7  C   UNL     1       7.697  -6.331  -4.181  0.00  0.00    +0.048 C 
ATOM      8  C   UNL     1       7.420  -5.374  -5.312  0.00  0.00    +0.001 A 
ATOM      9  C   UNL     1       6.265  -4.603  -5.303  0.00  0.00    +0.039 A 
ATOM     10  C   UNL     1       6.017  -3.718  -6.343  0.00  0.00    +0.024 A 
ATOM     11  C   UNL     1       6.915  -3.611  -7.387  0.00  0.00    +0.004 A 
ATOM     12  C   UNL     1       8.061  -4.385  -7.396  0.00  0.00    +0.033 A 
ATOM     13  C   UNL     1       8.312  -5.267  -6.361  0.00  0.00    +0.131 A 
BRANCH  13  14
ATOM     14  N   UNL     1       9.540  -6.093  -6.374  0.00  0.00    +0.057 N 
ATOM     15  O   UNL     1      10.576  -5.637  -6.824  0.00  0.00    -0.126 OA
ATOM     16  O   UNL     1       9.515  -7.229  -5.935  0.00  0.00    -0.126 OA
ENDBRANCH  13  14
ENDBRANCH   3   9
ENDBRANCH   1   4
BRANCH   1  17
ATOM     17  S   UNL     1       2.961  -2.213  -2.300  0.00  0.00    -0.073 S 
BRANCH  17  18
ATOM     18  C   UNL     1       1.859  -2.690  -1.010  0.00  0.00    +0.197 A 
ATOM     19  N   UNL     1       1.562  -3.917  -0.651  0.00  0.00    -0.122 NA
ATOM     20  N   UNL     1       0.722  -3.897   0.321  0.00  0.00    -0.137 NA
ATOM     21  C   UNL     1       0.436  -2.667   0.643  0.00  0.00    +0.230 A 
ATOM     22  N   UNL     1       1.153  -1.851  -0.191  0.00  0.00    -0.277 N 
BRANCH  22  23
ATOM     23  C   UNL     1       1.159  -0.449  -0.206  0.00  0.00    +0.051 A 
ATOM     24  C   UNL     1       2.362   0.242  -0.197  0.00  0.00    +0.026 A 
ATOM     25  C   UNL     1       2.365   1.623  -0.212  0.00  0.00    +0.003 A 
ATOM     26  C   UNL     1       1.170   2.318  -0.238  0.00  0.00    +0.020 A 
ATOM     27  C   UNL     1      -0.032   1.633  -0.248  0.00  0.00    +0.043 A 
ATOM     28  C   UNL     1      -0.040   0.250  -0.232  0.00  0.00    +0.046 A 
ATOM     29 CL   UNL     1      -1.530   2.509  -0.287  0.00  0.00    -0.083 Cl
ENDBRANCH  22  23
ENDBRANCH  17  18
ENDBRANCH   1  17
TORSDOF 6
