REMARK  Name = ZINC38653251
REMARK  9 active torsions:
REMARK  status: ('A' for Active; 'I' for Inactive)
REMARK    1  A    between atoms: C_1  and  C_2
REMARK    2  A    between atoms: C_5  and  N_8
REMARK    3  A    between atoms: C_9  and  C_33
REMARK    4  A    between atoms: C_11  and  N_15
REMARK    5  A    between atoms: C_12  and  C_14
REMARK    6  A    between atoms: C_16  and  C_18
REMARK    7  A    between atoms: C_18  and  S_19
REMARK    8  A    between atoms: S_19  and  C_20
REMARK    9  A    between atoms: C_24  and  C_26
REMARK                            x       y       z     vdW  Elec       q    Type
REMARK                         _______ _______ _______ _____ _____    ______ ____
ROOT
ATOM      1  N   UNL     1       0.102  -7.642   1.303  0.00  0.00    -0.285 N 
ATOM      2  C   UNL     1      -0.789  -7.834   2.295  0.00  0.00    +0.227 C 
ATOM      3  O   UNL     1      -1.660  -7.013   2.495  0.00  0.00    -0.275 OA
ATOM      4  H   UNL     1       0.752  -8.331   1.095  0.00  0.00    +0.155 HD
ENDROOT
BRANCH   1   7
ATOM      5  N   UNL     1       0.143  -4.165  -0.036  0.00  0.00    -0.245 N 
ATOM      6  C   UNL     1       0.215  -5.051   1.137  0.00  0.00    +0.137 C 
ATOM      7  C   UNL     1       0.089  -6.448   0.571  0.00  0.00    +0.050 C 
ATOM      8  C   UNL     1      -0.035  -6.337  -0.740  0.00  0.00    +0.038 C 
ATOM      9  N   UNL     1      -0.015  -5.007  -1.146  0.00  0.00    -0.266 N 
ATOM     10  C   UNL     1      -0.186  -7.506  -1.679  0.00  0.00    +0.063 C 
ATOM     11  C   UNL     1       1.557  -4.882   1.851  0.00  0.00    +0.036 C 
ATOM     12  H   UNL     1      -0.097  -4.706  -2.064  0.00  0.00    +0.170 HD
BRANCH   5  17
ATOM     13  C   UNL     1       0.421   1.499  -0.060  0.00  0.00    +0.044 C 
ATOM     14  C   UNL     1       0.347  -0.006  -0.054  0.00  0.00    -0.050 A 
ATOM     15  C   UNL     1       0.190  -0.694  -1.243  0.00  0.00    +0.005 A 
ATOM     16  C   UNL     1       0.122  -2.073  -1.241  0.00  0.00    +0.025 A 
ATOM     17  C   UNL     1       0.212  -2.770  -0.042  0.00  0.00    +0.048 A 
ATOM     18  C   UNL     1       0.370  -2.075   1.151  0.00  0.00    +0.025 A 
ATOM     19  C   UNL     1       0.443  -0.696   1.141  0.00  0.00    +0.005 A 
ENDBRANCH   5  17
ENDBRANCH   1   7
BRANCH   2  20
ATOM     20  C   UNL     1      -0.704  -9.068   3.157  0.00  0.00    +0.173 C 
BRANCH  20  21
ATOM     21  S   UNL     1      -2.032  -9.035   4.392  0.00  0.00    -0.077 S 
BRANCH  21  22
ATOM     22  C   UNL     1      -1.799 -10.523   5.307  0.00  0.00    +0.185 A 
ATOM     23  N   UNL     1      -2.558 -10.945   6.343  0.00  0.00    -0.253 N 
ATOM     24  H   UNL     1      -3.329 -10.493   6.720  0.00  0.00    +0.191 HD
ATOM     25  N   UNL     1      -2.013 -12.169   6.764  0.00  0.00    -0.152 NA
ATOM     26  C   UNL     1      -0.984 -12.417   5.986  0.00  0.00    +0.183 A 
ATOM     27  N   UNL     1      -0.859 -11.419   5.099  0.00  0.00    -0.201 NA
BRANCH  26  28
ATOM     28  C   UNL     1      -0.106 -13.610   6.071  0.00  0.00    +0.035 A 
ATOM     29  C   UNL     1       0.963 -13.756   5.189  0.00  0.00    +0.013 A 
ATOM     30  C   UNL     1       1.777 -14.868   5.273  0.00  0.00    +0.001 A 
ATOM     31  C   UNL     1       1.534 -15.836   6.230  0.00  0.00    +0.001 A 
ATOM     32  C   UNL     1       0.474 -15.697   7.108  0.00  0.00    +0.016 A 
ATOM     33  C   UNL     1      -0.343 -14.586   7.037  0.00  0.00    +0.029 A 
ATOM     34 BR   UNL     1      -1.787 -14.394   8.244  0.00  0.00    -0.050 Br
ENDBRANCH  26  28
ENDBRANCH  21  22
ENDBRANCH  20  21
ENDBRANCH   2  20
TORSDOF 6
