REMARK  Name = ZINC14923824
REMARK  8 active torsions:
REMARK  status: ('A' for Active; 'I' for Inactive)
REMARK    1  A    between atoms: C_4  and  C_7
REMARK    2  A    between atoms: N_9  and  C_10
REMARK    3  A    between atoms: C_10  and  C_21
REMARK    4  A    between atoms: C_11  and  C_12
REMARK    5  A    between atoms: C_15  and  N_18
REMARK    6  A    between atoms: N_23  and  N_24
REMARK    7  A    between atoms: C_25  and  C_26
REMARK    8  A    between atoms: C_29  and  C_31
REMARK                            x       y       z     vdW  Elec       q    Type
REMARK                         _______ _______ _______ _____ _____    ______ ____
ROOT
ATOM      1  C   UNL     1      -5.924   6.446   0.268  0.00  0.00    +0.098 C 
ATOM      2  C   UNL     1      -7.243   6.144   0.386  0.00  0.00    +0.036 C 
ENDROOT
BRANCH   2   3
ATOM      3  C   UNL     1      -8.219   7.208   0.655  0.00  0.00    -0.023 A 
ATOM      4  C   UNL     1      -7.810   8.402   1.261  0.00  0.00    +0.010 A 
ATOM      5  C   UNL     1      -8.731   9.397   1.505  0.00  0.00    +0.033 A 
ATOM      6  C   UNL     1     -10.060   9.215   1.162  0.00  0.00    +0.126 A 
ATOM      7  C   UNL     1     -10.475   8.036   0.567  0.00  0.00    +0.033 A 
ATOM      8  C   UNL     1      -9.565   7.032   0.311  0.00  0.00    +0.010 A 
BRANCH   6   9
ATOM      9  N   UNL     1     -11.044  10.287   1.434  0.00  0.00    +0.056 N 
ATOM     10  O   UNL     1     -12.309  10.118   1.110  0.00  0.00    -0.126 OA
ATOM     11  O   UNL     1     -10.654  11.411   2.001  0.00  0.00    -0.126 OA
ENDBRANCH   6   9
ENDBRANCH   2   3
BRANCH   1  14
ATOM     12  C   UNL     1      -4.633   8.218   1.183  0.00  0.00    +0.248 C 
ATOM     13  O   UNL     1      -4.128   7.434   1.963  0.00  0.00    -0.270 OA
ATOM     14  N   UNL     1      -5.511   7.779   0.259  0.00  0.00    -0.277 N 
ATOM     15  H   UNL     1      -5.856   8.389  -0.411  0.00  0.00    +0.155 HD
BRANCH  12  19
ATOM     16  C   UNL     1      -3.631  12.342   1.367  0.00  0.00    +0.000 A 
ATOM     17  C   UNL     1      -3.055  11.452   2.257  0.00  0.00    +0.001 A 
ATOM     18  C   UNL     1      -3.376  10.112   2.202  0.00  0.00    +0.013 A 
ATOM     19  C   UNL     1      -4.285   9.653   1.247  0.00  0.00    +0.037 A 
ATOM     20  C   UNL     1      -4.859  10.555   0.349  0.00  0.00    +0.013 A 
ATOM     21  C   UNL     1      -4.533  11.894   0.418  0.00  0.00    +0.001 A 
ENDBRANCH  12  19
ENDBRANCH   1  14
BRANCH   1  22
ATOM     22  C   UNL     1      -4.933   5.370   0.148  0.00  0.00    +0.277 C 
ATOM     23  O   UNL     1      -5.293   4.208   0.158  0.00  0.00    -0.267 OA
ATOM     24  N   UNL     1      -3.625   5.670   0.028  0.00  0.00    -0.202 N 
ATOM     25  H   UNL     1      -3.344   6.596  -0.047  0.00  0.00    +0.178 HD
BRANCH  24  26
ATOM     26  N   UNL     1      -2.746   4.726   0.013  0.00  0.00    -0.184 NA
ATOM     27  C   UNL     1      -1.456   5.022  -0.106  0.00  0.00    +0.176 C 
BRANCH  27  28
ATOM     28  C   UNL     1      -0.510   4.006  -0.123  0.00  0.00    +0.148 A 
ATOM     29  C   UNL     1       0.945   4.173  -0.247  0.00  0.00    +0.051 A 
ATOM     30  C   UNL     1       1.476   2.923  -0.218  0.00  0.00    +0.050 A 
ATOM     31  C   UNL     1       0.406   2.007  -0.082  0.00  0.00    +0.136 A 
ATOM     32  O   UNL     1      -0.757   2.681  -0.033  0.00  0.00    -0.454 OA
BRANCH  31  33
ATOM     33  C   UNL     1       0.538   0.598  -0.013  0.00  0.00    +0.017 A 
ATOM     34  C   UNL     1       1.812   0.002  -0.086  0.00  0.00    +0.013 A 
ATOM     35  C   UNL     1       1.929  -1.356  -0.015  0.00  0.00    +0.021 A 
ATOM     36  C   UNL     1       0.797  -2.150   0.120  0.00  0.00    +0.041 A 
ATOM     37  C   UNL     1      -0.465  -1.572   0.189  0.00  0.00    +0.021 A 
ATOM     38  C   UNL     1      -0.603  -0.215   0.124  0.00  0.00    +0.013 A 
ATOM     39 CL   UNL     1       0.959  -3.877   0.203  0.00  0.00    -0.084 Cl
ENDBRANCH  31  33
ENDBRANCH  27  28
ENDBRANCH  24  26
ENDBRANCH   1  22
TORSDOF 8
