REMARK  Name = ZINC59719688
REMARK  13 active torsions:
REMARK  status: ('A' for Active; 'I' for Inactive)
REMARK    1  A    between atoms: C_1  and  C_2
REMARK    2  A    between atoms: C_2  and  O_3
REMARK    3  A    between atoms: O_3  and  C_4
REMARK    4  A    between atoms: C_8  and  C_19
REMARK    5  A    between atoms: C_9  and  O_10
REMARK    6  A    between atoms: O_10  and  C_11
REMARK    7  A    between atoms: C_11  and  C_12
REMARK    8  A    between atoms: N_22  and  C_37
REMARK    9  A    between atoms: C_23  and  C_32
REMARK   10  A    between atoms: N_25  and  C_26
REMARK   11  A    between atoms: C_32  and  O_34
REMARK   12  A    between atoms: O_34  and  C_35
REMARK   13  A    between atoms: C_35  and  C_36
REMARK                            x       y       z     vdW  Elec       q    Type
REMARK                         _______ _______ _______ _____ _____    ______ ____
ROOT
ATOM      1  C   UNL     1       2.274  -4.308   3.755  0.00  0.00    +0.215 C 
ATOM      2  N   UNL     1       3.415  -3.449   4.124  0.00  0.00    -0.213 NA
ATOM      3  N   UNL     1       4.334  -3.438   3.108  0.00  0.00    -0.245 N 
ATOM      4  C   UNL     1       4.714  -4.644   2.505  0.00  0.00    +0.238 C 
ATOM      5  N   UNL     1       3.977  -5.714   2.650  0.00  0.00    -0.154 NA
ATOM      6  N   UNL     1       2.804  -5.641   3.425  0.00  0.00    -0.199 N 
ATOM      7  C   UNL     1       4.915  -2.172   2.654  0.00  0.00    +0.152 C 
ATOM      8  H   UNL     1       3.835  -3.757   4.988  0.00  0.00    +0.147 HD
ENDROOT
BRANCH   1  13
ATOM      9  C   UNL     1       0.802  -1.825   1.306  0.00  0.00    +0.162 A 
ATOM     10  C   UNL     1       0.261  -2.673   0.353  0.00  0.00    +0.049 A 
ATOM     11  C   UNL     1       0.372  -4.043   0.502  0.00  0.00    +0.004 A 
ATOM     12  C   UNL     1       1.024  -4.570   1.602  0.00  0.00    +0.011 A 
ATOM     13  C   UNL     1       1.566  -3.730   2.557  0.00  0.00    +0.036 A 
ATOM     14  C   UNL     1       1.462  -2.356   2.410  0.00  0.00    +0.169 A 
BRANCH   9  15
ATOM     15  O   UNL     1       0.693  -0.477   1.160  0.00  0.00    -0.489 OA
BRANCH  15  17
ATOM     16  C   UNL     1      -0.019   1.526   0.010  0.00  0.00    +0.048 C 
ATOM     17  C   UNL     1       0.002  -0.004   0.002  0.00  0.00    +0.226 C 
ENDBRANCH  15  17
ENDBRANCH   9  15
BRANCH  14  18
ATOM     18  O   UNL     1       2.000  -1.528   3.345  0.00  0.00    -0.483 OA
BRANCH  18  19
ATOM     19  C   UNL     1       1.161  -1.151   4.438  0.00  0.00    +0.264 C 
BRANCH  19  20
ATOM     20  C   UNL     1       1.921  -0.239   5.365  0.00  0.00    -0.010 A 
ATOM     21  C   UNL     1       2.657  -0.771   6.408  0.00  0.00    +0.008 A 
ATOM     22  C   UNL     1       3.355   0.065   7.258  0.00  0.00    +0.020 A 
ATOM     23  C   UNL     1       3.318   1.435   7.066  0.00  0.00    +0.041 A 
ATOM     24  C   UNL     1       2.581   1.967   6.023  0.00  0.00    +0.020 A 
ATOM     25  C   UNL     1       1.888   1.129   5.169  0.00  0.00    +0.008 A 
ATOM     26 CL   UNL     1       4.194   2.486   8.135  0.00  0.00    -0.084 Cl
ENDBRANCH  19  20
ENDBRANCH  18  19
ENDBRANCH  14  18
ENDBRANCH   1  13
BRANCH   6  27
ATOM     27  C   UNL     1       2.162  -6.798   3.868  0.00  0.00    +0.054 A 
ATOM     28  C   UNL     1       1.002  -6.703   4.628  0.00  0.00    +0.025 A 
ATOM     29  C   UNL     1       0.370  -7.851   5.066  0.00  0.00    +0.002 A 
ATOM     30  C   UNL     1       0.890  -9.092   4.748  0.00  0.00    +0.000 A 
ATOM     31  C   UNL     1       2.044  -9.190   3.992  0.00  0.00    +0.002 A 
ATOM     32  C   UNL     1       2.678  -8.048   3.546  0.00  0.00    +0.025 A 
ENDBRANCH   6  27
BRANCH   4  33
ATOM     33  C   UNL     1       5.944  -4.707   1.707  0.00  0.00    +0.375 C 
ATOM     34  O   UNL     1       6.631  -3.713   1.570  0.00  0.00    -0.242 OA
BRANCH  33  35
ATOM     35  O   UNL     1       6.313  -5.867   1.125  0.00  0.00    -0.459 OA
BRANCH  35  36
ATOM     36  C   UNL     1       7.521  -5.855   0.363  0.00  0.00    +0.229 C 
ATOM     37  C   UNL     1       7.773  -7.249  -0.215  0.00  0.00    +0.048 C 
ENDBRANCH  35  36
ENDBRANCH  33  35
ENDBRANCH   4  33
TORSDOF 10
