REMARK  Name = ZINC08734371
REMARK  8 active torsions:
REMARK  status: ('A' for Active; 'I' for Inactive)
REMARK    1  A    between atoms: C_1  and  C_2
REMARK    2  A    between atoms: C_2  and  C_4
REMARK    3  A    between atoms: C_2  and  N_58
REMARK    4  A    between atoms: C_7  and  S_10
REMARK    5  A    between atoms: S_10  and  C_13
REMARK    6  A    between atoms: C_14  and  C_15
REMARK    7  A    between atoms: C_14  and  N_58
REMARK    8  A    between atoms: N_17  and  C_18
REMARK                            x       y       z     vdW  Elec       q    Type
REMARK                         _______ _______ _______ _____ _____    ______ ____
ROOT
ATOM      1  C   UNL     1      -1.078   4.122   8.365  0.00  0.00    +0.200 C 
ATOM      2  O   UNL     1      -0.134   4.686   7.853  0.00  0.00    -0.278 OA
ATOM      3  N   UNL     1      -1.217   4.121   9.705  0.00  0.00    -0.287 N 
ATOM      4  H   UNL     1      -2.006   3.729  10.111  0.00  0.00    +0.155 HD
ENDROOT
BRANCH   3   5
ATOM      5  C   UNL     1      -0.221   4.685  10.513  0.00  0.00    +0.037 A 
ATOM      6  C   UNL     1       0.068   4.126  11.751  0.00  0.00    +0.027 A 
ATOM      7  C   UNL     1       1.053   4.678  12.547  0.00  0.00    +0.051 A 
ATOM      8  C   UNL     1       1.747   5.798  12.118  0.00  0.00    +0.167 A 
ATOM      9  C   UNL     1       1.455   6.365  10.879  0.00  0.00    +0.169 A 
ATOM     10  C   UNL     1       0.472   5.806  10.078  0.00  0.00    +0.072 A 
ATOM     11  O   UNL     1       2.267   7.447  10.692  0.00  0.00    -0.447 OA
ATOM     12  C   UNL     1       3.325   7.300  11.650  0.00  0.00    +0.254 C 
ATOM     13  O   UNL     1       2.744   6.525  12.707  0.00  0.00    -0.448 OA
ATOM     14  C   UNL     1       3.763   8.665  12.170  0.00  0.00    +0.093 C 
ATOM     15  C   UNL     1       4.350   9.488  11.020  0.00  0.00    +0.008 C 
ATOM     16  C   UNL     1       5.545   8.744  10.419  0.00  0.00    +0.000 C 
ATOM     17  C   UNL     1       5.085   7.388   9.883  0.00  0.00    +0.008 C 
ATOM     18  C   UNL     1       4.503   6.557  11.029  0.00  0.00    +0.093 C 
ENDBRANCH   3   5
BRANCH   1  19
ATOM     19  C   UNL     1      -2.097   3.424   7.501  0.00  0.00    +0.016 C 
BRANCH  19  20
ATOM     20  N   UNL     1      -1.714   3.575   6.084  0.00  0.00    +0.389 N 
ATOM     21  H   UNL     1      -1.681   4.574   5.847  0.00  0.00    -0.084 HD
ATOM     22  H   UNL     1      -0.788   3.158   5.938  0.00  0.00    -0.084 HD
BRANCH  20  24
ATOM     23  C   UNL     1      -3.866   3.846   4.934  0.00  0.00    -0.009 C 
ATOM     24  C   UNL     1      -2.696   2.900   5.214  0.00  0.00    -0.043 C 
BRANCH  24  25
ATOM     25  C   UNL     1      -2.030   2.526   3.915  0.00  0.00    -0.062 A 
ATOM     26  C   UNL     1      -2.312   1.311   3.319  0.00  0.00    +0.004 A 
ATOM     27  C   UNL     1      -1.702   0.968   2.127  0.00  0.00    +0.027 A 
ATOM     28  C   UNL     1      -0.810   1.840   1.531  0.00  0.00    +0.088 A 
ATOM     29  C   UNL     1      -0.524   3.053   2.130  0.00  0.00    +0.027 A 
ATOM     30  C   UNL     1      -1.138   3.398   3.319  0.00  0.00    +0.004 A 
BRANCH  28  31
ATOM     31  S   UNL     1      -0.031   1.403   0.012  0.00  0.00    -0.006 S 
ATOM     32  O   UNL     1      -0.023  -0.018   0.005  0.00  0.00    -0.170 OA
ATOM     33  O   UNL     1       1.187   2.135   0.005  0.00  0.00    -0.170 OA
ATOM     34  C   UNL     1      -1.143   2.027  -1.278  0.00  0.00    +0.200 C 
ENDBRANCH  28  31
ENDBRANCH  24  25
ENDBRANCH  20  24
ENDBRANCH  19  20
ENDBRANCH   1  19
TORSDOF 6
