REMARK  Name = ZINC19755735
REMARK  8 active torsions:
REMARK  status: ('A' for Active; 'I' for Inactive)
REMARK    1  A    between atoms: C_1  and  C_2
REMARK    2  A    between atoms: C_2  and  C_3
REMARK    3  A    between atoms: C_6  and  N_9
REMARK    4  A    between atoms: C_10  and  C_12
REMARK    5  A    between atoms: C_12  and  N_13
REMARK    6  A    between atoms: C_15  and  C_25
REMARK    7  A    between atoms: C_21  and  N_24
REMARK    8  A    between atoms: C_25  and  C_26
REMARK                            x       y       z     vdW  Elec       q    Type
REMARK                         _______ _______ _______ _____ _____    ______ ____
ROOT
ATOM      1  N   UNL     1      -2.131   5.556   0.019  0.00  0.00    -0.315 N 
ATOM      2  C   UNL     1      -3.382   6.290  -0.206  0.00  0.00    +0.150 C 
ATOM      3  C   UNL     1      -3.061   7.788  -0.296  0.00  0.00    +0.190 C 
ATOM      4  O   UNL     1      -2.221   7.989  -1.438  0.00  0.00    -0.485 OA
ATOM      5  C   UNL     1      -1.188   7.115  -1.599  0.00  0.00    +0.142 A 
ATOM      6  C   UNL     1      -1.135   5.919  -0.893  0.00  0.00    +0.074 A 
ATOM      7  C   UNL     1      -0.067   5.051  -1.089  0.00  0.00    +0.049 A 
ATOM      8  C   UNL     1       0.942   5.379  -1.982  0.00  0.00    +0.027 A 
ATOM      9  C   UNL     1       0.887   6.577  -2.683  0.00  0.00    +0.026 A 
ATOM     10  C   UNL     1      -0.175   7.439  -2.490  0.00  0.00    +0.049 A 
ENDROOT
BRANCH   8  11
ATOM     11  N   UNL     1       2.016   4.503  -2.178  0.00  0.00    -0.358 N 
ATOM     12  H   UNL     1       2.816   4.763  -2.886  0.00  0.00    +0.142 HD
ATOM     13  H   UNL     1       2.059   3.554  -1.623  0.00  0.00    +0.142 HD
ENDBRANCH   8  11
BRANCH   3  14
ATOM     14  C   UNL     1      -4.356   8.586  -0.458  0.00  0.00    +0.043 C 
ATOM     15  C   UNL     1      -4.040  10.083  -0.422  0.00  0.00    +0.007 C 
ENDBRANCH   3  14
BRANCH   1  16
ATOM     16  C   UNL     1      -2.361   4.106  -0.002  0.00  0.00    +0.201 C 
BRANCH  16  18
ATOM     17  N   UNL     1      -3.135   2.406  -1.624  0.00  0.00    -0.284 N 
ATOM     18  C   UNL     1      -2.772   3.683  -1.389  0.00  0.00    +0.235 C 
ATOM     19  O   UNL     1      -2.777   4.491  -2.293  0.00  0.00    -0.274 OA
ATOM     20  H   UNL     1      -3.212   1.693  -0.790  0.00  0.00    +0.155 HD
BRANCH  17  24
ATOM     21  C   UNL     1      -3.956   1.151  -5.511  0.00  0.00    -0.048 A 
ATOM     22  C   UNL     1      -2.995   2.120  -5.287  0.00  0.00    +0.005 A 
ATOM     23  C   UNL     1      -2.722   2.540  -4.000  0.00  0.00    +0.023 A 
ATOM     24  C   UNL     1      -3.413   1.987  -2.930  0.00  0.00    +0.033 A 
ATOM     25  C   UNL     1      -4.377   1.014  -3.158  0.00  0.00    +0.023 A 
ATOM     26  C   UNL     1      -4.645   0.598  -4.447  0.00  0.00    +0.005 A 
BRANCH  21  28
ATOM     27  C   UNL     1      -3.345  -0.484  -7.272  0.00  0.00    +0.009 C 
ATOM     28  C   UNL     1      -4.252   0.696  -6.917  0.00  0.00    +0.032 C 
ENDBRANCH  21  28
ENDBRANCH  17  24
ENDBRANCH  16  18
ENDBRANCH   1  16
TORSDOF 6
