REMARK  Name = ZINC43746690
REMARK  10 active torsions:
REMARK  status: ('A' for Active; 'I' for Inactive)
REMARK    1  A    between atoms: C_1  and  C_2
REMARK    2  A    between atoms: C_2  and  C_3
REMARK    3  A    between atoms: C_3  and  C_5
REMARK    4  A    between atoms: C_3  and  N_6
REMARK    5  A    between atoms: C_7  and  C_9
REMARK    6  A    between atoms: C_9  and  C_11
REMARK    7  A    between atoms: C_9  and  N_14
REMARK    8  A    between atoms: C_11  and  C_12
REMARK    9  A    between atoms: C_11  and  C_13
REMARK   10  A    between atoms: C_15  and  C_17
REMARK                            x       y       z     vdW  Elec       q    Type
REMARK                         _______ _______ _______ _____ _____    ______ ____
ROOT
ATOM      1  C   UNL     1       6.665   0.944  -5.226  0.00  0.00    +0.167 C 
ATOM      2  C   UNL     1       6.226   2.312  -5.768  0.00  0.00    +0.069 C 
ATOM      3  C   UNL     1       7.108   3.401  -5.212  0.00  0.00    -0.015 A 
ATOM      4  C   UNL     1       6.846   4.829  -5.211  0.00  0.00    +0.003 A 
ATOM      5  C   UNL     1       5.770   5.591  -5.676  0.00  0.00    +0.010 A 
ATOM      6  C   UNL     1       5.855   6.951  -5.508  0.00  0.00    +0.001 A 
ATOM      7  C   UNL     1       6.951   7.551  -4.910  0.00  0.00    +0.002 A 
ATOM      8  C   UNL     1       8.030   6.821  -4.441  0.00  0.00    +0.026 A 
ATOM      9  C   UNL     1       7.969   5.438  -4.596  0.00  0.00    +0.047 A 
ATOM     10  N   UNL     1       8.834   4.439  -4.252  0.00  0.00    -0.356 N 
ATOM     11  H   UNL     1       9.691   4.569  -3.817  0.00  0.00    +0.166 HD
ATOM     12  C   UNL     1       8.308   3.228  -4.613  0.00  0.00    +0.046 A 
ATOM     13  C   UNL     1       8.922   1.870  -4.380  0.00  0.00    +0.155 C 
ATOM     14  N   UNL     1       8.131   0.919  -5.198  0.00  0.00    -0.273 N 
ATOM     15  C   UNL     1       8.978   0.132  -5.874  0.00  0.00    +0.248 C 
ATOM     16  O   UNL     1       8.671  -0.889  -6.458  0.00  0.00    -0.270 OA
ATOM     17  C   UNL     1      10.332   0.690  -5.802  0.00  0.00    +0.042 A 
ATOM     18  C   UNL     1      10.326   1.782  -4.874  0.00  0.00    -0.009 A 
ATOM     19  C   UNL     1      11.453   2.519  -4.589  0.00  0.00    +0.006 A 
ATOM     20  C   UNL     1      12.631   2.147  -5.231  0.00  0.00    +0.000 A 
ATOM     21  C   UNL     1      12.676   1.086  -6.112  0.00  0.00    +0.001 A 
ATOM     22  C   UNL     1      11.511   0.311  -6.446  0.00  0.00    +0.013 A 
ENDROOT
BRANCH   1  24
ATOM     23  N   UNL     1       4.794   0.756  -3.618  0.00  0.00    -0.302 N 
ATOM     24  C   UNL     1       6.125   0.751  -3.832  0.00  0.00    +0.235 C 
ATOM     25  O   UNL     1       6.888   0.593  -2.903  0.00  0.00    -0.274 OA
ATOM     26  H   UNL     1       4.184   0.883  -4.361  0.00  0.00    +0.150 HD
BRANCH  23  27
ATOM     27  C   UNL     1       4.270   0.568  -2.263  0.00  0.00    +0.161 C 
BRANCH  27  29
ATOM     28  N   UNL     1       2.409  -0.782  -1.352  0.00  0.00    -0.311 N 
ATOM     29  C   UNL     1       2.872   0.010  -2.339  0.00  0.00    +0.234 C 
ATOM     30  O   UNL     1       2.164   0.274  -3.287  0.00  0.00    -0.274 OA
ATOM     31  H   UNL     1       2.998  -1.054  -0.631  0.00  0.00    +0.149 HD
BRANCH  28  32
ATOM     32  C   UNL     1       1.015  -1.234  -1.369  0.00  0.00    +0.070 C 
ATOM     33  C   UNL     1       0.896  -2.490  -2.234  0.00  0.00    +0.028 C 
BRANCH  32  35
ATOM     34  C   UNL     1       0.565  -0.271   0.892  0.00  0.00    +0.005 C 
ATOM     35  C   UNL     1       0.565  -1.554   0.058  0.00  0.00    +0.018 C 
ENDBRANCH  32  35
ENDBRANCH  28  32
ENDBRANCH  27  29
BRANCH  27  36
ATOM     36  C   UNL     1       4.243   1.914  -1.536  0.00  0.00    +0.012 C 
ATOM     37  C   UNL     1       3.807   1.701  -0.085  0.00  0.00    +0.009 C 
ATOM     38  C   UNL     1       5.640   2.536  -1.563  0.00  0.00    +0.009 C 
ENDBRANCH  27  36
ENDBRANCH  23  27
ENDBRANCH   1  24
TORSDOF 6
