REMARK  Name = ZINC00036314
REMARK  8 active torsions:
REMARK  status: ('A' for Active; 'I' for Inactive)
REMARK    1  A    between atoms: C_1  and  C_2
REMARK    2  A    between atoms: C_2  and  O_3
REMARK    3  A    between atoms: O_3  and  C_4
REMARK    4  A    between atoms: C_9  and  O_10
REMARK    5  A    between atoms: O_10  and  C_11
REMARK    6  A    between atoms: C_11  and  C_12
REMARK    7  A    between atoms: C_13  and  C_17
REMARK    8  A    between atoms: C_22  and  O_23
REMARK                            x       y       z     vdW  Elec       q    Type
REMARK                         _______ _______ _______ _____ _____    ______ ____
ROOT
ATOM      1  C   UNL     1       5.239   3.384   3.305  0.00  0.00    +0.162 A 
ATOM      2  C   UNL     1       6.093   2.853   2.355  0.00  0.00    +0.053 A 
ATOM      3  C   UNL     1       5.603   2.430   1.129  0.00  0.00    -0.044 A 
ATOM      4  C   UNL     1       4.257   2.541   0.850  0.00  0.00    -0.050 A 
ATOM      5  C   UNL     1       3.396   3.071   1.800  0.00  0.00    +0.052 A 
ATOM      6  C   UNL     1       3.880   3.493   3.025  0.00  0.00    +0.162 A 
ATOM      7  C   UNL     1       3.680   2.100  -0.471  0.00  0.00    -0.006 C 
ATOM      8  C   UNL     1       5.941   1.836  -1.262  0.00  0.00    -0.077 C 
ATOM      9  C   UNL     1       6.572   1.850   0.131  0.00  0.00    +0.016 C 
ATOM     10  N   UNL     1       4.612   1.204  -1.169  0.00  0.00    +0.387 N 
ATOM     11  H   UNL     1       4.258   1.015  -2.114  0.00  0.00    -0.085 HD
ATOM     12  H   UNL     1       4.690   0.322  -0.650  0.00  0.00    -0.085 HD
ENDROOT
BRANCH   7  13
ATOM     13  C   UNL     1       2.384   1.371  -0.229  0.00  0.00    -0.016 A 
ATOM     14  C   UNL     1       2.386   0.004  -0.027  0.00  0.00    +0.006 A 
ATOM     15  C   UNL     1       1.197  -0.666   0.195  0.00  0.00    +0.000 A 
ATOM     16  C   UNL     1       0.003   0.030   0.217  0.00  0.00    +0.004 A 
ATOM     17  C   UNL     1      -0.005   1.397   0.016  0.00  0.00    +0.045 A 
ATOM     18  C   UNL     1       1.187   2.071  -0.207  0.00  0.00    +0.119 A 
BRANCH  18  19
ATOM     19  O   UNL     1       1.181   3.416  -0.405  0.00  0.00    -0.507 OA
ATOM     20  H   UNL     1       1.183   3.934   0.411  0.00  0.00    +0.292 HD
ENDBRANCH  18  19
ENDBRANCH   7  13
BRANCH   1  21
ATOM     21  O   UNL     1       5.725   3.798   4.506  0.00  0.00    -0.489 OA
BRANCH  21  23
ATOM     22  C   UNL     1       7.487   4.171   6.117  0.00  0.00    +0.048 C 
ATOM     23  C   UNL     1       7.130   3.655   4.721  0.00  0.00    +0.226 C 
ENDBRANCH  21  23
ENDBRANCH   1  21
BRANCH   6  24
ATOM     24  O   UNL     1       3.031   4.012   3.953  0.00  0.00    -0.489 OA
BRANCH  24  25
ATOM     25  C   UNL     1       1.650   4.092   3.595  0.00  0.00    +0.226 C 
ATOM     26  C   UNL     1       0.857   4.697   4.755  0.00  0.00    +0.048 C 
ENDBRANCH  24  25
ENDBRANCH   6  24
TORSDOF 6
