REMARK  Name = ZINC03260352
REMARK  4 active torsions:
REMARK  status: ('A' for Active; 'I' for Inactive)
REMARK    1  A    between atoms: C_1  and  C_2
REMARK    2  A    between atoms: C_5  and  N_8
REMARK    3  A    between atoms: C_9  and  C_11
REMARK    4  A    between atoms: C_11  and  N_12
REMARK                            x       y       z     vdW  Elec       q    Type
REMARK                         _______ _______ _______ _____ _____    ______ ____
ROOT
ATOM      1  N   UNL     1       3.668   6.178   0.312  0.00  0.00    -0.215 N 
ATOM      2  C   UNL     1       4.415   6.529  -0.755  0.00  0.00    +0.247 C 
ATOM      3  O   UNL     1       4.092   6.489  -1.923  0.00  0.00    -0.273 OA
ATOM      4  C   UNL     1       5.741   6.982  -0.187  0.00  0.00    +0.113 C 
ATOM      5  C   UNL     1       5.998   8.443  -0.540  0.00  0.00    +0.035 C 
ATOM      6  C   UNL     1       7.330   8.891   0.068  0.00  0.00    +0.003 C 
ATOM      7  C   UNL     1       8.458   8.011  -0.476  0.00  0.00    +0.000 C 
ATOM      8  C   UNL     1       8.198   6.553  -0.094  0.00  0.00    +0.003 C 
ATOM      9  C   UNL     1       6.870   6.096  -0.701  0.00  0.00    +0.035 C 
ATOM     10  N   UNL     1       5.580   6.823   1.264  0.00  0.00    -0.285 N 
ATOM     11  C   UNL     1       4.334   6.352   1.460  0.00  0.00    +0.310 C 
ATOM     12  O   UNL     1       3.867   6.110   2.555  0.00  0.00    -0.252 OA
ATOM     13  H   UNL     1       6.409   7.079   1.940  0.00  0.00    +0.151 HD
ENDROOT
BRANCH   1  14
ATOM     14  C   UNL     1       2.295   5.673   0.225  0.00  0.00    +0.214 C 
BRANCH  14  16
ATOM     15  N   UNL     1       1.162   3.485   0.009  0.00  0.00    -0.284 N 
ATOM     16  C   UNL     1       2.318   4.171   0.104  0.00  0.00    +0.235 C 
ATOM     17  O   UNL     1       3.377   3.580   0.091  0.00  0.00    -0.274 OA
ATOM     18  H   UNL     1       0.206   4.025  -0.067  0.00  0.00    +0.155 HD
BRANCH  15  23
ATOM     19  C   UNL     1       1.221  -2.188   0.005  0.00  0.00    +0.044 C 
ATOM     20  C   UNL     1       1.206  -0.681   0.006  0.00  0.00    -0.050 A 
ATOM     21  C   UNL     1       2.145   0.019   0.741  0.00  0.00    +0.005 A 
ATOM     22  C   UNL     1       2.133   1.400   0.745  0.00  0.00    +0.023 A 
ATOM     23  C   UNL     1       1.177   2.086   0.008  0.00  0.00    +0.033 A 
ATOM     24  C   UNL     1       0.236   1.381  -0.731  0.00  0.00    +0.023 A 
ATOM     25  C   UNL     1       0.253  -0.000  -0.729  0.00  0.00    +0.005 A 
ENDBRANCH  15  23
ENDBRANCH  14  16
ENDBRANCH   1  14
TORSDOF 3
