REMARK  Name = ZINC22204080
REMARK  11 active torsions:
REMARK  status: ('A' for Active; 'I' for Inactive)
REMARK    1  A    between atoms: C_1  and  C_2
REMARK    2  A    between atoms: C_8  and  N_10
REMARK    3  A    between atoms: C_11  and  C_13
REMARK    4  A    between atoms: C_13  and  S_14
REMARK    5  A    between atoms: S_14  and  C_15
REMARK    6  A    between atoms: N_28  and  C_29
REMARK    7  A    between atoms: C_29  and  C_30
REMARK    8  A    between atoms: C_30  and  C_31
REMARK    9  A    between atoms: C_31  and  N_32
REMARK   10  A    between atoms: N_32  and  C_33
REMARK   11  A    between atoms: N_32  and  C_34
REMARK                            x       y       z     vdW  Elec       q    Type
REMARK                         _______ _______ _______ _____ _____    ______ ____
ROOT
ATOM      1  C   UNL     1      -4.516   1.051  -4.708  0.00  0.00    +0.173 A 
ATOM      2  N   UNL     1      -3.965   2.168  -5.139  0.00  0.00    -0.216 NA
ATOM      3  C   UNL     1      -4.442   2.793  -6.209  0.00  0.00    +0.117 A 
ATOM      4  C   UNL     1      -5.545   2.305  -6.929  0.00  0.00    +0.076 A 
ATOM      5  C   UNL     1      -5.957   3.103  -8.085  0.00  0.00    -0.023 A 
ATOM      6  C   UNL     1      -5.245   4.218  -8.345  0.00  0.00    -0.004 A 
ATOM      7  S   UNL     1      -4.000   4.273  -7.084  0.00  0.00    -0.073 S 
ATOM      8  C   UNL     1      -5.462   5.196  -9.459  0.00  0.00    +0.043 C 
ATOM      9  C   UNL     1      -6.394   4.551 -10.495  0.00  0.00    +0.005 C 
ATOM     10  C   UNL     1      -7.590   3.934  -9.763  0.00  0.00    +0.005 C 
ATOM     11  C   UNL     1      -7.137   2.708  -8.969  0.00  0.00    +0.037 C 
ATOM     12  C   UNL     1      -6.123   1.091  -6.439  0.00  0.00    +0.263 A 
ATOM     13  O   UNL     1      -7.084   0.593  -7.000  0.00  0.00    -0.267 OA
ATOM     14  N   UNL     1      -5.588   0.504  -5.352  0.00  0.00    -0.287 N 
ENDROOT
BRANCH   1  15
ATOM     15  S   UNL     1      -3.856   0.249  -3.285  0.00  0.00    -0.078 S 
BRANCH  15  16
ATOM     16  C   UNL     1      -2.502   1.382  -2.885  0.00  0.00    +0.173 C 
BRANCH  16  18
ATOM     17  N   UNL     1      -0.721   1.571  -1.179  0.00  0.00    -0.312 N 
ATOM     18  C   UNL     1      -1.773   0.883  -1.664  0.00  0.00    +0.224 C 
ATOM     19  O   UNL     1      -2.134  -0.139  -1.118  0.00  0.00    -0.275 OA
ATOM     20  H   UNL     1      -0.395   2.497  -1.674  0.00  0.00    +0.149 HD
BRANCH  17  27
ATOM     21  C   UNL     1       2.139   1.122  -1.262  0.00  0.00    +0.009 C 
ATOM     22  C   UNL     1       1.423   1.615  -0.003  0.00  0.00    +0.006 C 
ATOM     23  C   UNL     1       2.163   1.109   1.237  0.00  0.00    +0.005 C 
ATOM     24  C   UNL     1       1.446   1.602   2.495  0.00  0.00    +0.000 C 
ATOM     25  C   UNL     1       0.011   1.072   2.506  0.00  0.00    +0.002 C 
ATOM     26  C   UNL     1      -0.729   1.579   1.267  0.00  0.00    +0.022 C 
ATOM     27  C   UNL     1      -0.013   1.086   0.008  0.00  0.00    +0.076 C 
ENDBRANCH  17  27
ENDBRANCH  16  18
ENDBRANCH  15  16
ENDBRANCH   1  15
BRANCH  14  28
ATOM     28  C   UNL     1      -6.171  -0.742  -4.848  0.00  0.00    +0.125 C 
BRANCH  28  29
ATOM     29  C   UNL     1      -7.266  -0.417  -3.830  0.00  0.00    +0.003 C 
BRANCH  29  30
ATOM     30  C   UNL     1      -7.875  -1.719  -3.304  0.00  0.00    -0.078 C 
BRANCH  30  31
ATOM     31  N   UNL     1      -8.926  -1.407  -2.327  0.00  0.00    +0.376 N 
ATOM     32  C   UNL     1     -10.058  -0.728  -2.971  0.00  0.00    -0.097 C 
ATOM     33  C   UNL     1      -9.370  -2.620  -1.626  0.00  0.00    -0.097 C 
ATOM     34  H   UNL     1      -8.501  -0.721  -1.580  0.00  0.00    -0.083 HD
ENDBRANCH  30  31
ENDBRANCH  29  30
ENDBRANCH  28  29
ENDBRANCH  14  28
TORSDOF 8
