REMARK  Name = ZINC08662697
REMARK  7 active torsions:
REMARK  status: ('A' for Active; 'I' for Inactive)
REMARK    1  A    between atoms: C_1  and  O_2
REMARK    2  A    between atoms: O_2  and  C_3
REMARK    3  A    between atoms: C_6  and  N_9
REMARK    4  A    between atoms: C_18  and  C_28
REMARK    5  A    between atoms: C_18  and  C_32
REMARK    6  A    between atoms: C_19  and  C_21
REMARK    7  A    between atoms: C_21  and  C_22
REMARK                            x       y       z     vdW  Elec       q    Type
REMARK                         _______ _______ _______ _____ _____    ______ ____
ROOT
ATOM      1  N   UNL     1      -1.307   3.412  -0.322  0.00  0.00    -0.250 N 
ATOM      2  C   UNL     1      -0.166   3.856   0.299  0.00  0.00    +0.124 A 
ATOM      3  C   UNL     1       0.953   3.076   0.293  0.00  0.00    +0.098 A 
ATOM      4  C   UNL     1       0.914   1.832  -0.360  0.00  0.00    +0.262 A 
ATOM      5  O   UNL     1       1.902   1.118  -0.382  0.00  0.00    -0.267 OA
ATOM      6  N   UNL     1      -0.225   1.435  -0.962  0.00  0.00    -0.274 N 
ATOM      7  H   UNL     1      -0.257   0.550  -1.425  0.00  0.00    +0.173 HD
ATOM      8  C   UNL     1      -1.318   2.219  -0.946  0.00  0.00    +0.335 A 
ATOM      9  O   UNL     1      -2.334   1.841  -1.497  0.00  0.00    -0.246 OA
ATOM     10  C   UNL     1       2.208   3.537   0.979  0.00  0.00    +0.264 C 
ATOM     11  C   UNL     1       1.073   5.651   1.237  0.00  0.00    +0.079 C 
ATOM     12  N   UNL     1      -0.136   5.079   0.927  0.00  0.00    -0.290 N 
ATOM     13  H   UNL     1      -0.963   5.534   1.150  0.00  0.00    +0.155 HD
ATOM     14  N   UNL     1       2.236   5.012   1.284  0.00  0.00    -0.352 N 
ATOM     15  H   UNL     1       3.110   5.498   1.516  0.00  0.00    +0.162 HD
ENDROOT
BRANCH   1  19
ATOM     16  C   UNL     1      -4.743   5.777  -0.294  0.00  0.00    +0.120 A 
ATOM     17  C   UNL     1      -3.811   5.921  -1.311  0.00  0.00    +0.047 A 
ATOM     18  C   UNL     1      -2.673   5.138  -1.321  0.00  0.00    +0.030 A 
ATOM     19  C   UNL     1      -2.462   4.208  -0.313  0.00  0.00    +0.053 A 
ATOM     20  C   UNL     1      -3.399   4.060   0.702  0.00  0.00    +0.030 A 
ATOM     21  C   UNL     1      -4.533   4.847   0.714  0.00  0.00    +0.047 A 
BRANCH  16  23
ATOM     22  C   UNL     1      -6.780   6.347   0.793  0.00  0.00    +0.277 C 
ATOM     23  O   UNL     1      -5.863   6.548  -0.284  0.00  0.00    -0.495 OA
ENDBRANCH  16  23
ENDBRANCH   1  19
BRANCH  10  24
ATOM     24  C   UNL     1       2.373   2.770   2.292  0.00  0.00    +0.426 C 
ATOM     25  F   UNL     1       2.460   1.400   2.024  0.00  0.00    -0.167 F 
ATOM     26  F   UNL     1       3.540   3.194   2.936  0.00  0.00    -0.167 F 
ATOM     27  F   UNL     1       1.270   3.015   3.117  0.00  0.00    -0.167 F 
ENDBRANCH  10  24
BRANCH  10  28
ATOM     28  C   UNL     1       3.409   3.247   0.075  0.00  0.00    +0.426 C 
ATOM     29  F   UNL     1       3.108   3.627  -1.237  0.00  0.00    -0.167 F 
ATOM     30  F   UNL     1       4.518   3.969   0.528  0.00  0.00    -0.167 F 
ATOM     31  F   UNL     1       3.697   1.878   0.110  0.00  0.00    -0.167 F 
ENDBRANCH  10  28
BRANCH  11  32
ATOM     32  C   UNL     1       1.128   7.123   1.554  0.00  0.00    +0.104 C 
BRANCH  32  33
ATOM     33  C   UNL     1       2.550   7.518   1.860  0.00  0.00    -0.040 A 
ATOM     34  C   UNL     1       3.019   7.462   3.159  0.00  0.00    +0.004 A 
ATOM     35  C   UNL     1       4.325   7.820   3.438  0.00  0.00    +0.000 A 
ATOM     36  C   UNL     1       5.158   8.244   2.420  0.00  0.00    +0.000 A 
ATOM     37  C   UNL     1       4.687   8.306   1.122  0.00  0.00    +0.000 A 
ATOM     38  C   UNL     1       3.383   7.943   0.842  0.00  0.00    +0.004 A 
ENDBRANCH  32  33
ENDBRANCH  11  32
TORSDOF 6
