REMARK  Name = ZINC09216457
REMARK  8 active torsions:
REMARK  status: ('A' for Active; 'I' for Inactive)
REMARK    1  A    between atoms: C_1  and  O_2
REMARK    2  A    between atoms: O_2  and  C_3
REMARK    3  A    between atoms: C_3  and  C_5
REMARK    4  A    between atoms: C_9  and  N_10
REMARK    5  A    between atoms: C_11  and  C_13
REMARK    6  A    between atoms: C_13  and  N_71
REMARK    7  A    between atoms: C_16  and  O_34
REMARK    8  A    between atoms: C_23  and  C_25
REMARK                            x       y       z     vdW  Elec       q    Type
REMARK                         _______ _______ _______ _____ _____    ______ ____
ROOT
ATOM      1  C   UNL     1      -4.181   2.073  -6.026  0.00  0.00    -0.075 C 
ATOM      2  C   UNL     1      -5.125   2.812  -6.979  0.00  0.00    +0.016 C 
ATOM      3  C   UNL     1      -4.453   2.945  -8.347  0.00  0.00    +0.066 C 
ATOM      4  C   UNL     1      -5.357   3.728  -9.299  0.00  0.00    +0.035 C 
ATOM      5  C   UNL     1      -4.671   3.848 -10.662  0.00  0.00    +0.003 C 
ATOM      6  C   UNL     1      -3.336   4.577 -10.505  0.00  0.00    +0.000 C 
ATOM      7  C   UNL     1      -2.435   3.799  -9.541  0.00  0.00    +0.005 C 
ATOM      8  C   UNL     1      -3.126   3.691  -8.181  0.00  0.00    +0.011 C 
ATOM      9  C   UNL     1      -2.236   2.923  -7.202  0.00  0.00    -0.031 C 
ATOM     10  N   UNL     1      -2.925   2.844  -5.895  0.00  0.00    +0.390 N 
ATOM     11  H   UNL     1      -3.150   3.795  -5.580  0.00  0.00    -0.080 HD
ENDROOT
BRANCH   9  12
ATOM     12  C   UNL     1      -1.966   1.543  -7.745  0.00  0.00    -0.057 A 
ATOM     13  C   UNL     1      -1.341   1.393  -8.969  0.00  0.00    +0.006 A 
ATOM     14  C   UNL     1      -1.090   0.130  -9.470  0.00  0.00    +0.050 A 
ATOM     15  C   UNL     1      -1.464  -0.990  -8.746  0.00  0.00    +0.166 A 
ATOM     16  C   UNL     1      -2.094  -0.840  -7.513  0.00  0.00    +0.166 A 
ATOM     17  C   UNL     1      -2.337   0.430  -7.014  0.00  0.00    +0.051 A 
ATOM     18  O   UNL     1      -2.358  -2.078  -7.004  0.00  0.00    -0.453 OA
ATOM     19  C   UNL     1      -2.255  -2.982  -8.120  0.00  0.00    +0.466 C 
ATOM     20  O   UNL     1      -1.335  -2.323  -9.010  0.00  0.00    -0.453 OA
ENDBRANCH   9  12
BRANCH   3  21
ATOM     21  O   UNL     1      -4.205   1.645  -8.886  0.00  0.00    -0.388 OA
ATOM     22  H   UNL     1      -5.003   1.115  -9.017  0.00  0.00    +0.210 HD
ENDBRANCH   3  21
BRANCH  10  23
ATOM     23  C   UNL     1      -2.043   2.204  -4.899  0.00  0.00    +0.020 C 
BRANCH  23  25
ATOM     24  N   UNL     1      -1.958   1.997  -2.435  0.00  0.00    -0.281 N 
ATOM     25  C   UNL     1      -2.600   2.467  -3.523  0.00  0.00    +0.201 C 
ATOM     26  O   UNL     1      -3.625   3.101  -3.395  0.00  0.00    -0.278 OA
ATOM     27  H   UNL     1      -1.137   1.490  -2.538  0.00  0.00    +0.155 HD
BRANCH  24  32
ATOM     28  C   UNL     1      -1.957   1.842   0.059  0.00  0.00    +0.091 A 
ATOM     29  C   UNL     1      -2.691   2.235   1.250  0.00  0.00    -0.021 A 
ATOM     30  C   UNL     1      -3.813   2.952   1.024  0.00  0.00    -0.004 A 
ATOM     31  S   UNL     1      -3.904   3.108  -0.737  0.00  0.00    -0.077 S 
ATOM     32  C   UNL     1      -2.469   2.239  -1.170  0.00  0.00    +0.086 A 
ATOM     33  C   UNL     1      -4.764   3.489   2.049  0.00  0.00    +0.043 C 
ATOM     34  C   UNL     1      -4.480   2.788   3.386  0.00  0.00    +0.005 C 
ATOM     35  C   UNL     1      -2.972   2.816   3.647  0.00  0.00    +0.005 C 
ATOM     36  C   UNL     1      -2.256   1.884   2.667  0.00  0.00    +0.037 C 
BRANCH  28  37
ATOM     37  C   UNL     1      -0.721   1.062   0.150  0.00  0.00    +0.342 C 
ATOM     38  O   UNL     1      -0.767  -0.153   0.139  0.00  0.00    -0.245 OA
BRANCH  37  40
ATOM     39  C   UNL     1       1.652   0.855   0.324  0.00  0.00    +0.280 C 
ATOM     40  O   UNL     1       0.468   1.692   0.243  0.00  0.00    -0.464 OA
ENDBRANCH  37  40
ENDBRANCH  28  37
ENDBRANCH  24  32
ENDBRANCH  23  25
ENDBRANCH  10  23
TORSDOF 7
