REMARK  Name = ZINC41678914
REMARK  4 active torsions:
REMARK  status: ('A' for Active; 'I' for Inactive)
REMARK    1  A    between atoms: C_6  and  N_7
REMARK    2  A    between atoms: N_7  and  C_8
REMARK    3  A    between atoms: C_8  and  C_10
REMARK    4  A    between atoms: C_8  and  C_16
REMARK                            x       y       z     vdW  Elec       q    Type
REMARK                         _______ _______ _______ _____ _____    ______ ____
ROOT
ATOM      1  C   UNL     1      -1.176  -2.185   0.002  0.00  0.00    +0.194 C 
ENDROOT
BRANCH   1   2
ATOM      2  C   UNL     1      -2.462  -2.703  -0.589  0.00  0.00    +0.020 A 
ATOM      3  C   UNL     1      -2.655  -3.750  -1.428  0.00  0.00    +0.014 A 
ATOM      4  C   UNL     1      -3.939  -4.046  -1.846  0.00  0.00    +0.023 A 
ATOM      5  C   UNL     1      -4.967  -3.280  -1.404  0.00  0.00    +0.055 A 
ATOM      6  S   UNL     1      -4.127  -2.102  -0.358  0.00  0.00    -0.084 S 
ATOM      7 BR   UNL     1      -6.813  -3.426  -1.789  0.00  0.00    -0.043 Br
ENDBRANCH   1   2
BRANCH   1   8
ATOM      8  C   UNL     1      -1.031  -2.693   1.413  0.00  0.00    +0.236 C 
ATOM      9  O   UNL     1      -0.953  -1.909   2.335  0.00  0.00    -0.274 OA
ATOM     10  N   UNL     1      -0.987  -4.019   1.651  0.00  0.00    -0.327 N 
ATOM     11  H   UNL     1      -1.050  -4.646   0.914  0.00  0.00    +0.145 HD
ATOM     12  H   UNL     1      -0.894  -4.346   2.560  0.00  0.00    +0.145 HD
ENDBRANCH   1   8
BRANCH   1  13
ATOM     13  N   UNL     1      -1.198  -0.720   0.010  0.00  0.00    -0.329 N 
ATOM     14  H   UNL     1      -2.045  -0.248   0.021  0.00  0.00    +0.147 HD
BRANCH  13  20
ATOM     15  C   UNL     1      -0.017   1.385   0.010  0.00  0.00    +0.024 A 
ATOM     16  C   UNL     1       1.171   2.090   0.002  0.00  0.00    +0.017 A 
ATOM     17  C   UNL     1       2.378   1.415  -0.013  0.00  0.00    +0.018 A 
ATOM     18  C   UNL     1       2.400   0.031  -0.021  0.00  0.00    +0.017 A 
ATOM     19  C   UNL     1       1.216  -0.679  -0.014  0.00  0.00    +0.024 A 
ATOM     20  C   UNL     1       0.002  -0.004   0.002  0.00  0.00    +0.028 A 
ATOM     21 BR   UNL     1       4.002   2.384  -0.025  0.00  0.00    -0.050 Br
ENDBRANCH  13  20
ENDBRANCH   1  13
TORSDOF 4
