REMARK  Name = ZINC55156684
REMARK  6 active torsions:
REMARK  status: ('A' for Active; 'I' for Inactive)
REMARK    1  A    between atoms: C_1  and  C_2
REMARK    2  A    between atoms: C_2  and  C_4
REMARK    3  A    between atoms: C_2  and  N_19
REMARK    4  A    between atoms: N_6  and  C_7
REMARK    5  A    between atoms: C_12  and  C_13
REMARK    6  A    between atoms: N_19  and  C_20
REMARK                            x       y       z     vdW  Elec       q    Type
REMARK                         _______ _______ _______ _____ _____    ______ ____
ROOT
ATOM      1  C   UNL     1       0.709  -0.488  -1.238  0.00  0.00    +0.237 C 
ATOM      2  O   UNL     1       1.701  -1.178  -1.139  0.00  0.00    -0.273 OA
ATOM      3  N   UNL     1       0.231  -0.164  -2.456  0.00  0.00    -0.283 N 
ATOM      4  H   UNL     1      -0.606   0.320  -2.536  0.00  0.00    +0.155 HD
ENDROOT
BRANCH   3   5
ATOM      5  C   UNL     1       0.941  -0.526  -3.604  0.00  0.00    +0.041 A 
ATOM      6  C   UNL     1       2.312  -0.733  -3.538  0.00  0.00    +0.024 A 
ATOM      7  C   UNL     1       3.012  -1.090  -4.674  0.00  0.00    +0.002 A 
ATOM      8  C   UNL     1       2.353  -1.243  -5.882  0.00  0.00    +0.001 A 
ATOM      9  C   UNL     1       0.991  -1.041  -5.962  0.00  0.00    +0.010 A 
ATOM     10  C   UNL     1       0.273  -0.686  -4.822  0.00  0.00    +0.003 A 
BRANCH  10  11
ATOM     11  C   UNL     1      -1.193  -0.473  -4.902  0.00  0.00    -0.016 A 
ATOM     12  C   UNL     1      -2.041  -1.092  -3.985  0.00  0.00    +0.008 A 
ATOM     13  C   UNL     1      -3.403  -0.890  -4.063  0.00  0.00    +0.001 A 
ATOM     14  C   UNL     1      -3.929  -0.074  -5.049  0.00  0.00    +0.000 A 
ATOM     15  C   UNL     1      -3.092   0.543  -5.962  0.00  0.00    +0.001 A 
ATOM     16  C   UNL     1      -1.728   0.352  -5.889  0.00  0.00    +0.008 A 
ENDBRANCH  10  11
ENDBRANCH   3   5
BRANCH   1  18
ATOM     17  C   UNL     1      -0.001   1.538   0.004  0.00  0.00    +0.038 C 
ATOM     18  C   UNL     1       0.010   0.008   0.002  0.00  0.00    +0.154 C 
BRANCH  18  19
ATOM     19  N   UNL     1       0.719  -0.477   1.189  0.00  0.00    -0.330 N 
ATOM     20  H   UNL     1       1.661  -0.700   1.134  0.00  0.00    +0.147 HD
BRANCH  19  21
ATOM     21  C   UNL     1       0.036  -0.617   2.403  0.00  0.00    +0.074 A 
ATOM     22  C   UNL     1      -1.313  -0.302   2.482  0.00  0.00    +0.027 A 
ATOM     23  C   UNL     1      -1.987  -0.440   3.680  0.00  0.00    +0.006 A 
ATOM     24  C   UNL     1      -1.320  -0.889   4.804  0.00  0.00    +0.049 A 
ATOM     25  C   UNL     1       0.030  -1.206   4.735  0.00  0.00    +0.164 A 
ATOM     26  C   UNL     1       0.709  -1.077   3.532  0.00  0.00    +0.183 A 
ATOM     27  O   UNL     1       2.031  -1.395   3.439  0.00  0.00    -0.483 OA
ATOM     28  C   UNL     1       2.756  -1.495   4.669  0.00  0.00    +0.270 C 
ATOM     29  C   UNL     1       1.919  -2.323   5.654  0.00  0.00    +0.270 C 
ATOM     30  O   UNL     1       0.671  -1.644   5.853  0.00  0.00    -0.485 OA
ENDBRANCH  19  21
ENDBRANCH  18  19
ENDBRANCH   1  18
TORSDOF 5
