REMARK  Name = ZINC66981795
REMARK  9 active torsions:
REMARK  status: ('A' for Active; 'I' for Inactive)
REMARK    1  A    between atoms: C_1  and  C_2
REMARK    2  A    between atoms: C_5  and  C_30
REMARK    3  A    between atoms: N_8  and  C_10
REMARK    4  A    between atoms: C_10  and  C_11
REMARK    5  A    between atoms: C_11  and  C_13
REMARK    6  A    between atoms: C_11  and  N_14
REMARK    7  A    between atoms: N_17  and  C_18
REMARK    8  A    between atoms: C_20  and  N_26
REMARK    9  A    between atoms: C_27  and  C_29
REMARK                            x       y       z     vdW  Elec       q    Type
REMARK                         _______ _______ _______ _____ _____    ______ ____
ROOT
ATOM      1  N   UNL     1       2.877  -0.157   2.393  0.00  0.00    -0.298 N 
ATOM      2  C   UNL     1       3.909   0.577   1.930  0.00  0.00    +0.304 C 
ATOM      3  O   UNL     1       4.359   1.485   2.602  0.00  0.00    -0.253 OA
ATOM      4  N   UNL     1       4.441   0.304   0.723  0.00  0.00    -0.267 N 
ATOM      5  H   UNL     1       2.518  -0.881   1.858  0.00  0.00    +0.150 HD
ATOM      6  H   UNL     1       4.136  -0.468   0.221  0.00  0.00    +0.156 HD
ENDROOT
BRANCH   4   7
ATOM      7  C   UNL     1       5.436   1.136   0.191  0.00  0.00    +0.072 A 
ATOM      8  C   UNL     1       5.529   2.458   0.603  0.00  0.00    +0.052 A 
ATOM      9  C   UNL     1       6.515   3.279   0.076  0.00  0.00    +0.071 A 
ATOM     10  C   UNL     1       7.408   2.776  -0.864  0.00  0.00    +0.147 A 
ATOM     11  C   UNL     1       7.313   1.458  -1.274  0.00  0.00    +0.080 A 
ATOM     12  C   UNL     1       6.334   0.636  -0.745  0.00  0.00    +0.147 A 
ATOM     13  F   UNL     1       6.248  -0.652  -1.142  0.00  0.00    -0.203 F 
ATOM     14  F   UNL     1       8.368   3.576  -1.378  0.00  0.00    -0.203 F 
BRANCH   9  15
ATOM     15  N   UNL     1       6.610   4.614   0.490  0.00  0.00    -0.283 N 
ATOM     16  C   UNL     1       5.520   5.254   0.959  0.00  0.00    +0.214 C 
ATOM     17  O   UNL     1       4.475   4.654   1.091  0.00  0.00    -0.276 OA
ATOM     18  C   UNL     1       5.601   6.715   1.318  0.00  0.00    +0.109 C 
ATOM     19  H   UNL     1       7.461   5.078   0.440  0.00  0.00    +0.155 HD
ENDBRANCH   9  15
ENDBRANCH   4   7
BRANCH   1  20
ATOM     20  C   UNL     1       2.299   0.140   3.706  0.00  0.00    +0.055 C 
ATOM     21  C   UNL     1       3.169  -0.482   4.800  0.00  0.00    +0.026 C 
BRANCH  20  22
ATOM     22  C   UNL     1       0.887  -0.445   3.785  0.00  0.00    -0.057 C 
BRANCH  22  28
ATOM     23  C   UNL     1      -1.274  -0.468   0.160  0.00  0.00    +0.005 C 
ATOM     24  C   UNL     1      -2.033  -0.136   1.446  0.00  0.00    -0.031 C 
ATOM     25  C   UNL     1      -2.243   1.378   1.540  0.00  0.00    +0.003 C 
ATOM     26  C   UNL     1      -0.880   2.069   1.629  0.00  0.00    -0.031 C 
ATOM     27  C   UNL     1      -0.111   1.515   2.830  0.00  0.00    -0.076 C 
ATOM     28  N   UNL     1       0.081   0.069   2.668  0.00  0.00    +0.381 N 
ATOM     29  C   UNL     1      -1.221  -0.609   2.655  0.00  0.00    -0.076 C 
ATOM     30  C   UNL     1      -1.081   3.576   1.800  0.00  0.00    +0.005 C 
ATOM     31  H   UNL     1       0.562  -0.111   1.800  0.00  0.00    -0.082 HD
ENDBRANCH  22  28
ENDBRANCH  20  22
ENDBRANCH   1  20
TORSDOF 5
