REMARK  Name = ZINC34791301
REMARK  9 active torsions:
REMARK  status: ('A' for Active; 'I' for Inactive)
REMARK    1  A    between atoms: C_1  and  C_2
REMARK    2  A    between atoms: C_2  and  C_3
REMARK    3  A    between atoms: C_2  and  C_4
REMARK    4  A    between atoms: N_11  and  C_17
REMARK    5  A    between atoms: C_12  and  N_16
REMARK    6  A    between atoms: C_13  and  C_14
REMARK    7  A    between atoms: C_17  and  C_18
REMARK    8  A    between atoms: C_22  and  O_24
REMARK    9  A    between atoms: O_24  and  C_25
REMARK                            x       y       z     vdW  Elec       q    Type
REMARK                         _______ _______ _______ _____ _____    ______ ____
ROOT
ATOM      1  C   UNL     1       0.718  -0.497  -1.257  0.00  0.00    +0.126 C 
ATOM      2  C   UNL     1       0.730  -2.027  -1.276  0.00  0.00    +0.069 C 
ATOM      3  C   UNL     1       1.176  -2.516  -2.629  0.00  0.00    -0.014 A 
ATOM      4  C   UNL     1       1.173  -1.706  -3.719  0.00  0.00    +0.047 A 
ATOM      5  C   UNL     1       1.589  -2.213  -4.964  0.00  0.00    +0.259 A 
ATOM      6  O   UNL     1       1.580  -1.486  -5.943  0.00  0.00    -0.267 OA
ATOM      7  N   UNL     1       1.997  -3.488  -5.090  0.00  0.00    -0.291 N 
ATOM      8  C   UNL     1       2.017  -4.321  -4.016  0.00  0.00    +0.117 A 
ATOM      9  C   UNL     1       1.608  -3.855  -2.765  0.00  0.00    +0.093 A 
ATOM     10  C   UNL     1       0.741  -0.265  -3.631  0.00  0.00    +0.201 C 
ATOM     11  O   UNL     1       0.022  -0.035  -2.420  0.00  0.00    -0.371 OA
ENDROOT
BRANCH   1  13
ATOM     12  C   UNL     1      -0.019   1.526   0.010  0.00  0.00    +0.010 C 
ATOM     13  C   UNL     1       0.002  -0.004   0.002  0.00  0.00    +0.012 C 
ATOM     14  C   UNL     1      -1.433  -0.534   0.013  0.00  0.00    +0.010 C 
ENDBRANCH   1  13
BRANCH   8  15
ATOM     15  N   UNL     1       2.438  -5.615  -4.161  0.00  0.00    -0.343 N 
ATOM     16  H   UNL     1       2.721  -5.938  -5.031  0.00  0.00    +0.144 HD
ATOM     17  H   UNL     1       2.452  -6.209  -3.395  0.00  0.00    +0.144 HD
ENDBRANCH   8  15
BRANCH   9  18
ATOM     18  C   UNL     1       1.625  -4.727  -1.629  0.00  0.00    +0.103 C 
ATOM     19  N   UNL     1       1.639  -5.418  -0.728  0.00  0.00    -0.191 NA
ENDBRANCH   9  18
BRANCH   7  20
ATOM     20  C   UNL     1       2.424  -3.985  -6.400  0.00  0.00    +0.162 C 
BRANCH  20  21
ATOM     21  C   UNL     1       3.904  -3.756  -6.566  0.00  0.00    -0.024 A 
ATOM     22  C   UNL     1       4.364  -2.574  -7.116  0.00  0.00    +0.005 A 
ATOM     23  C   UNL     1       5.721  -2.361  -7.269  0.00  0.00    +0.004 A 
ATOM     24  C   UNL     1       6.622  -3.330  -6.873  0.00  0.00    +0.045 A 
ATOM     25  C   UNL     1       6.164  -4.518  -6.321  0.00  0.00    +0.120 A 
ATOM     26  C   UNL     1       4.801  -4.726  -6.163  0.00  0.00    +0.051 A 
BRANCH  25  27
ATOM     27  O   UNL     1       7.049  -5.473  -5.931  0.00  0.00    -0.495 OA
ATOM     28  C   UNL     1       8.436  -5.187  -6.119  0.00  0.00    +0.277 C 
ENDBRANCH  25  27
ENDBRANCH  20  21
ENDBRANCH   7  20
TORSDOF 6
