REMARK  Name = ZINC64704879
REMARK  6 active torsions:
REMARK  status: ('A' for Active; 'I' for Inactive)
REMARK    1  A    between atoms: C_1  and  C_2
REMARK    2  A    between atoms: C_4  and  C_31
REMARK    3  A    between atoms: C_8  and  C_10
REMARK    4  A    between atoms: C_10  and  N_11
REMARK    5  A    between atoms: N_17  and  S_20
REMARK    6  A    between atoms: S_20  and  C_23
REMARK                            x       y       z     vdW  Elec       q    Type
REMARK                         _______ _______ _______ _____ _____    ______ ____
ROOT
ATOM      1  N   UNL     1       3.264   0.015   3.941  0.00  0.00    -0.298 N 
ATOM      2  C   UNL     1       2.254  -0.816   4.269  0.00  0.00    +0.302 C 
ATOM      3  O   UNL     1       1.306  -0.947   3.519  0.00  0.00    -0.253 OA
ATOM      4  N   UNL     1       2.296  -1.502   5.428  0.00  0.00    -0.283 N 
ATOM      5  C   UNL     1       1.262  -2.498   5.746  0.00  0.00    +0.126 C 
ATOM      6  C   UNL     1       1.948  -3.836   6.048  0.00  0.00    +0.128 C 
ATOM      7  N   UNL     1       3.028  -3.602   7.018  0.00  0.00    -0.174 NA
ATOM      8  C   UNL     1       4.061  -2.606   6.700  0.00  0.00    +0.128 C 
ATOM      9  C   UNL     1       3.378  -1.272   6.395  0.00  0.00    +0.126 C 
ATOM     10  H   UNL     1       3.983   0.176   4.571  0.00  0.00    +0.150 HD
ENDROOT
BRANCH   7  11
ATOM     11  S   UNL     1       3.079  -4.445   8.442  0.00  0.00    +0.062 S 
ATOM     12  O   UNL     1       3.829  -3.655   9.355  0.00  0.00    -0.153 OA
ATOM     13  O   UNL     1       1.748  -4.865   8.713  0.00  0.00    -0.153 OA
BRANCH  11  14
ATOM     14  C   UNL     1       4.019  -5.906   8.149  0.00  0.00    +0.125 A 
ATOM     15  C   UNL     1       5.224  -6.094   8.800  0.00  0.00    +0.050 A 
ATOM     16  C   UNL     1       5.962  -7.241   8.570  0.00  0.00    +0.043 A 
ATOM     17  C   UNL     1       5.494  -8.200   7.689  0.00  0.00    +0.021 A 
ATOM     18  C   UNL     1       4.290  -8.012   7.039  0.00  0.00    +0.023 A 
ATOM     19  C   UNL     1       3.549  -6.867   7.273  0.00  0.00    +0.067 A 
ATOM     20 CL   UNL     1       2.032  -6.634   6.461  0.00  0.00    -0.082 Cl
ATOM     21 CL   UNL     1       7.476  -7.477   9.387  0.00  0.00    -0.083 Cl
ENDBRANCH  11  14
ENDBRANCH   7  11
BRANCH   1  22
ATOM     22  C   UNL     1       3.273   0.675   2.634  0.00  0.00    +0.123 C 
BRANCH  22  30
ATOM     23  C   UNL     1       4.590   1.224  -0.097  0.00  0.00    +0.040 C 
ATOM     24  C   UNL     1       4.561   2.124   1.111  0.00  0.00    -0.058 C 
ATOM     25  C   UNL     1       4.567   3.460   0.986  0.00  0.00    +0.020 C 
ATOM     26  C   UNL     1       4.540   4.296   2.118  0.00  0.00    +0.031 C 
ATOM     27  N   UNL     1       4.509   3.863   3.348  0.00  0.00    -0.185 NA
ATOM     28  C   UNL     1       4.498   2.559   3.653  0.00  0.00    +0.245 C 
ATOM     29  O   UNL     1       4.468   2.189   4.809  0.00  0.00    -0.273 OA
ATOM     30  C   UNL     1       4.519   1.557   2.517  0.00  0.00    +0.120 C 
ATOM     31  C   UNL     1       4.549   5.787   1.895  0.00  0.00    +0.063 C 
ENDBRANCH  22  30
ENDBRANCH   1  22
TORSDOF 4
