REMARK  Name = ZINC63294670
REMARK  6 active torsions:
REMARK  status: ('A' for Active; 'I' for Inactive)
REMARK    1  A    between atoms: N_17  and  C_18
REMARK    2  A    between atoms: C_18  and  C_19
REMARK    3  A    between atoms: C_19  and  C_20
REMARK    4  A    between atoms: N_22  and  C_23
REMARK    5  A    between atoms: C_26  and  O_29
REMARK    6  A    between atoms: O_29  and  C_30
REMARK                            x       y       z     vdW  Elec       q    Type
REMARK                         _______ _______ _______ _____ _____    ______ ____
ROOT
ATOM      1  C   UNL     1       0.427   1.430  -0.507  0.00  0.00    +0.001 A 
ATOM      2  C   UNL     1       1.620   2.139  -0.707  0.00  0.00    +0.002 A 
ATOM      3  C   UNL     1       2.817   1.529  -0.834  0.00  0.00    +0.026 A 
ATOM      4  C   UNL     1       2.914   0.112  -0.769  0.00  0.00    +0.043 A 
ATOM      5  N   UNL     1       3.941  -0.699  -0.883  0.00  0.00    -0.376 N 
ATOM      6  C   UNL     1       3.481  -2.066  -0.657  0.00  0.00    +0.124 C 
ATOM      7  C   UNL     1       3.799  -2.981  -1.845  0.00  0.00    +0.138 C 
ATOM      8  N   UNL     1       2.969  -4.189  -1.720  0.00  0.00    -0.283 N 
ATOM      9  C   UNL     1       1.506  -4.091  -1.703  0.00  0.00    +0.114 C 
ATOM     10  C   UNL     1       1.070  -3.185  -0.537  0.00  0.00    +0.052 C 
ATOM     11  C   UNL     1       1.968  -1.969  -0.544  0.00  0.00    -0.036 C 
ATOM     12  C   UNL     1       1.665  -0.663  -0.565  0.00  0.00    -0.001 A 
ATOM     13  C   UNL     1       0.406   0.081  -0.433  0.00  0.00    +0.010 A 
ATOM     14  C   UNL     1       3.559  -5.397  -1.621  0.00  0.00    +0.302 C 
ATOM     15  O   UNL     1       4.766  -5.495  -1.729  0.00  0.00    -0.253 OA
ATOM     16  N   UNL     1       2.810  -6.497  -1.402  0.00  0.00    -0.299 N 
ATOM     17  H   UNL     1       1.843  -6.430  -1.389  0.00  0.00    +0.150 HD
ATOM     18  H   UNL     1       4.852  -0.434  -1.084  0.00  0.00    +0.160 HD
ENDROOT
BRANCH  16  19
ATOM     19  C   UNL     1       3.458  -7.792  -1.184  0.00  0.00    +0.115 C 
BRANCH  19  20
ATOM     20  C   UNL     1       2.390  -8.865  -0.962  0.00  0.00    +0.115 C 
BRANCH  20  21
ATOM     21  C   UNL     1       3.057 -10.198  -0.737  0.00  0.00    +0.219 C 
ATOM     22  O   UNL     1       4.267 -10.282  -0.754  0.00  0.00    -0.275 OA
ATOM     23  N   UNL     1       2.309 -11.297  -0.518  0.00  0.00    -0.285 N 
ATOM     24  H   UNL     1       1.342 -11.246  -0.579  0.00  0.00    +0.155 HD
BRANCH  23  25
ATOM     25  C   UNL     1       2.927 -12.515  -0.204  0.00  0.00    +0.034 A 
ATOM     26  C   UNL     1       2.367 -13.710  -0.635  0.00  0.00    +0.027 A 
ATOM     27  C   UNL     1       2.978 -14.909  -0.325  0.00  0.00    +0.048 A 
ATOM     28  C   UNL     1       4.149 -14.920   0.418  0.00  0.00    +0.130 A 
ATOM     29  C   UNL     1       4.709 -13.726   0.849  0.00  0.00    +0.048 A 
ATOM     30  C   UNL     1       4.103 -12.526   0.535  0.00  0.00    +0.027 A 
BRANCH  28  31
ATOM     31  O   UNL     1       4.750 -16.101   0.723  0.00  0.00    -0.406 OA
BRANCH  31  32
ATOM     32  C   UNL     1       5.953 -16.038   1.491  0.00  0.00    +0.575 C 
ATOM     33  F   UNL     1       5.691 -15.421   2.719  0.00  0.00    -0.133 F 
ATOM     34  F   UNL     1       6.433 -17.333   1.712  0.00  0.00    -0.133 F 
ATOM     35  F   UNL     1       6.913 -15.298   0.792  0.00  0.00    -0.133 F 
ENDBRANCH  31  32
ENDBRANCH  28  31
ENDBRANCH  23  25
ENDBRANCH  20  21
ENDBRANCH  19  20
ENDBRANCH  16  19
TORSDOF 6
