REMARK  Name = ZINC39667124
REMARK  12 active torsions:
REMARK  status: ('A' for Active; 'I' for Inactive)
REMARK    1  A    between atoms: C_1  and  C_2
REMARK    2  A    between atoms: C_5  and  C_9
REMARK    3  A    between atoms: C_6  and  C_8
REMARK    4  A    between atoms: C_9  and  C_10
REMARK    5  A    between atoms: C_10  and  N_11
REMARK    6  A    between atoms: C_12  and  C_14
REMARK    7  A    between atoms: C_25  and  C_27
REMARK    8  A    between atoms: C_29  and  C_36
REMARK    9  A    between atoms: N_31  and  C_32
REMARK   10  A    between atoms: C_32  and  C_33
REMARK   11  A    between atoms: C_32  and  C_34
REMARK   12  A    between atoms: C_32  and  C_35
REMARK                            x       y       z     vdW  Elec       q    Type
REMARK                         _______ _______ _______ _____ _____    ______ ____
ROOT
ATOM      1  C   UNL     1      -2.497  -8.760   0.478  0.00  0.00    +0.100 C 
ATOM      2  C   UNL     1      -1.741  -9.081  -0.831  0.00  0.00    +0.121 C 
ATOM      3  N   UNL     1      -2.461 -10.242  -1.404  0.00  0.00    -0.295 N 
ATOM      4  C   UNL     1      -3.892  -9.955  -1.141  0.00  0.00    +0.115 C 
ATOM      5  C   UNL     1      -3.908  -9.335   0.270  0.00  0.00    -0.004 C 
ATOM      6  C   UNL     1      -4.948  -8.221   0.344  0.00  0.00    -0.010 C 
ATOM      7  C   UNL     1      -6.347  -8.824   0.193  0.00  0.00    -0.082 C 
ATOM      8  N   UNL     1      -6.577  -9.807   1.259  0.00  0.00    +0.379 N 
ATOM      9  C   UNL     1      -5.631 -10.921   1.124  0.00  0.00    -0.082 C 
ATOM     10  C   UNL     1      -4.202 -10.407   1.315  0.00  0.00    -0.010 C 
ATOM     11  C   UNL     1      -1.935 -11.317  -2.024  0.00  0.00    +0.265 C 
ATOM     12  O   UNL     1      -2.664 -12.199  -2.436  0.00  0.00    -0.268 OA
ATOM     13  H   UNL     1      -6.447  -9.364   2.156  0.00  0.00    -0.086 HD
ATOM     14  H   UNL     1      -7.520 -10.158   1.194  0.00  0.00    -0.086 HD
ENDROOT
BRANCH  11  15
ATOM     15  C   UNL     1      -0.478 -11.423  -2.204  0.00  0.00    +0.124 A 
ATOM     16  C   UNL     1       0.460 -10.427  -1.990  0.00  0.00    +0.057 A 
ATOM     17  C   UNL     1       1.692 -11.009  -2.294  0.00  0.00    +0.061 A 
ATOM     18  N   UNL     1       1.474 -12.247  -2.656  0.00  0.00    -0.175 NA
ATOM     19  N   UNL     1       0.220 -12.524  -2.610  0.00  0.00    -0.254 N 
ATOM     20  C   UNL     1       3.036 -10.331  -2.220  0.00  0.00    +0.067 C 
BRANCH  19  21
ATOM     21  C   UNL     1      -0.371 -13.822  -2.944  0.00  0.00    +0.056 C 
ATOM     22  C   UNL     1      -1.277 -13.670  -4.167  0.00  0.00    +0.036 C 
ATOM     23  C   UNL     1       0.743 -14.824  -3.256  0.00  0.00    +0.036 C 
ATOM     24  C   UNL     1      -1.195 -14.329  -1.758  0.00  0.00    +0.036 C 
ENDBRANCH  19  21
ENDBRANCH  11  15
BRANCH   1  26
ATOM     25  N   UNL     1      -2.592  -6.771   1.946  0.00  0.00    -0.315 N 
ATOM     26  C   UNL     1      -2.563  -7.270   0.694  0.00  0.00    +0.218 C 
ATOM     27  O   UNL     1      -2.590  -6.520  -0.259  0.00  0.00    -0.275 OA
ATOM     28  H   UNL     1      -2.644  -7.372   2.706  0.00  0.00    +0.149 HD
BRANCH  25  29
ATOM     29  C   UNL     1      -2.546  -5.323   2.158  0.00  0.00    +0.109 C 
BRANCH  29  30
ATOM     30  C   UNL     1      -2.592  -5.025   3.658  0.00  0.00    +0.054 C 
BRANCH  30  35
ATOM     31  C   UNL     1      -2.409   0.690   4.492  0.00  0.00    +0.044 C 
ATOM     32  C   UNL     1      -2.457  -0.800   4.275  0.00  0.00    -0.050 A 
ATOM     33  C   UNL     1      -1.292  -1.544   4.325  0.00  0.00    +0.003 A 
ATOM     34  C   UNL     1      -1.336  -2.911   4.125  0.00  0.00    +0.004 A 
ATOM     35  C   UNL     1      -2.545  -3.535   3.876  0.00  0.00    -0.043 A 
ATOM     36  C   UNL     1      -3.709  -2.792   3.827  0.00  0.00    -0.047 A 
ATOM     37  C   UNL     1      -3.666  -1.425   4.031  0.00  0.00    +0.007 A 
ATOM     38  C   UNL     1      -5.026  -3.472   3.555  0.00  0.00    +0.044 C 
ENDBRANCH  30  35
ENDBRANCH  29  30
ENDBRANCH  25  29
ENDBRANCH   1  26
TORSDOF 6
