REMARK  Name = ZINC23053425
REMARK  7 active torsions:
REMARK  status: ('A' for Active; 'I' for Inactive)
REMARK    1  A    between atoms: C_1  and  N_2
REMARK    2  A    between atoms: N_2  and  C_3
REMARK    3  A    between atoms: N_2  and  C_20
REMARK    4  A    between atoms: C_3  and  C_4
REMARK    5  A    between atoms: C_4  and  C_5
REMARK    6  A    between atoms: N_7  and  N_8
REMARK    7  A    between atoms: C_20  and  C_21
REMARK                            x       y       z     vdW  Elec       q    Type
REMARK                         _______ _______ _______ _____ _____    ______ ____
ROOT
ATOM      1  C   UNL     1       7.200  -2.267  -3.008  0.00  0.00    +0.228 C 
ATOM      2  O   UNL     1       7.833  -2.460  -1.992  0.00  0.00    -0.274 OA
ATOM      3  N   UNL     1       7.691  -2.675  -4.196  0.00  0.00    -0.224 N 
ATOM      4  H   UNL     1       7.116  -2.500  -5.117  0.00  0.00    +0.174 HD
ENDROOT
BRANCH   3   5
ATOM      5  N   UNL     1       8.932  -3.322  -4.256  0.00  0.00    -0.137 N 
ATOM      6  C   UNL     1       9.087  -4.648  -4.450  0.00  0.00    +0.263 C 
ATOM      7  O   UNL     1       8.214  -5.475  -4.601  0.00  0.00    -0.271 OA
ATOM      8  C   UNL     1      10.580  -4.885  -4.441  0.00  0.00    +0.114 C 
ATOM      9  C   UNL     1      11.036  -5.450  -5.782  0.00  0.00    +0.035 C 
ATOM     10  C   UNL     1      12.553  -5.657  -5.762  0.00  0.00    +0.003 C 
ATOM     11  C   UNL     1      12.921  -6.620  -4.632  0.00  0.00    +0.000 C 
ATOM     12  C   UNL     1      12.479  -6.028  -3.292  0.00  0.00    +0.003 C 
ATOM     13  C   UNL     1      10.962  -5.823  -3.301  0.00  0.00    +0.035 C 
ATOM     14  N   UNL     1      11.152  -3.550  -4.223  0.00  0.00    -0.284 N 
ATOM     15  C   UNL     1      10.111  -2.700  -4.133  0.00  0.00    +0.326 C 
ATOM     16  O   UNL     1      10.229  -1.504  -3.956  0.00  0.00    -0.251 OA
ATOM     17  H   UNL     1      12.243  -3.422  -4.167  0.00  0.00    +0.151 HD
ENDBRANCH   3   5
BRANCH   1  18
ATOM     18  C   UNL     1       5.865  -1.572  -2.944  0.00  0.00    +0.079 C 
BRANCH  18  19
ATOM     19  C   UNL     1       5.545  -1.217  -1.490  0.00  0.00    -0.069 C 
BRANCH  19  21
ATOM     20  C   UNL     1       4.295   0.765  -2.102  0.00  0.00    -0.096 C 
ATOM     21  N   UNL     1       4.243  -0.538  -1.427  0.00  0.00    +0.381 N 
ATOM     22  H   UNL     1       3.510  -1.164  -1.957  0.00  0.00    -0.082 HD
BRANCH  21  23
ATOM     23  C   UNL     1       3.792  -0.394  -0.037  0.00  0.00    -0.036 C 
BRANCH  23  24
ATOM     24  C   UNL     1       2.360   0.077  -0.020  0.00  0.00    -0.025 A 
ATOM     25  C   UNL     1       1.221  -0.657  -0.013  0.00  0.00    +0.011 A 
ATOM     26  C   UNL     1       0.002  -0.004   0.002  0.00  0.00    +0.028 A 
ATOM     27  C   UNL     1      -0.016   1.352   0.009  0.00  0.00    +0.078 A 
ATOM     28  S   UNL     1       1.725   1.745  -0.005  0.00  0.00    -0.084 S 
ATOM     29 CL   UNL     1      -1.379   2.427   0.022  0.00  0.00    -0.076 Cl
ENDBRANCH  23  24
ENDBRANCH  21  23
ENDBRANCH  19  21
ENDBRANCH  18  19
ENDBRANCH   1  18
TORSDOF 6
