REMARK  Name = ZINC64447688
REMARK  6 active torsions:
REMARK  status: ('A' for Active; 'I' for Inactive)
REMARK    1  A    between atoms: C_1  and  C_2
REMARK    2  A    between atoms: C_3  and  C_15
REMARK    3  A    between atoms: C_5  and  C_7
REMARK    4  A    between atoms: C_7  and  C_8
REMARK    5  A    between atoms: C_18  and  N_24
REMARK    6  A    between atoms: C_19  and  C_22
REMARK                            x       y       z     vdW  Elec       q    Type
REMARK                         _______ _______ _______ _____ _____    ______ ____
ROOT
ATOM      1  C   UNL     1      -0.018   1.503   0.010  0.00  0.00    +0.067 C 
ATOM      2  C   UNL     1       0.002  -0.004   0.002  0.00  0.00    +0.058 A 
ATOM      3  C   UNL     1       0.006  -0.731  -1.181  0.00  0.00    +0.101 A 
ATOM      4  S   UNL     1       0.033  -2.397  -0.539  0.00  0.00    -0.067 S 
ATOM      5  C   UNL     1       0.036  -2.015   1.099  0.00  0.00    +0.084 A 
ATOM      6  N   UNL     1       0.022  -0.701   1.110  0.00  0.00    -0.248 NA
ENDROOT
BRANCH   3   7
ATOM      7  C   UNL     1      -0.008  -0.262  -2.569  0.00  0.00    +0.289 C 
ATOM      8  O   UNL     1      -0.026   0.931  -2.807  0.00  0.00    -0.265 OA
ATOM      9  N   UNL     1      -0.001  -1.152  -3.581  0.00  0.00    -0.180 N 
ATOM     10  C   UNL     1      -0.006  -0.849  -4.909  0.00  0.00    +0.141 A 
ATOM     11  C   UNL     1       0.005  -2.057  -5.600  0.00  0.00    +0.111 A 
ATOM     12  C   UNL     1       0.018  -3.089  -4.631  0.00  0.00    +0.155 A 
ATOM     13  N   UNL     1       0.021  -2.544  -3.448  0.00  0.00    -0.169 NA
BRANCH  10  14
ATOM     14  N   UNL     1      -0.021   0.413  -5.464  0.00  0.00    -0.342 N 
ATOM     15  H   UNL     1      -0.029   1.195  -4.890  0.00  0.00    +0.144 HD
ATOM     16  H   UNL     1      -0.025   0.519  -6.428  0.00  0.00    +0.144 HD
ENDBRANCH  10  14
BRANCH  11  17
ATOM     17  C   UNL     1       0.003  -2.224  -7.022  0.00  0.00    +0.104 C 
ATOM     18  N   UNL     1       0.002  -2.357  -8.150  0.00  0.00    -0.191 NA
ENDBRANCH  11  17
ENDBRANCH   3   7
BRANCH   5  19
ATOM     19  C   UNL     1       0.055  -2.956   2.276  0.00  0.00    +0.098 C 
BRANCH  19  20
ATOM     20  C   UNL     1      -1.359  -3.290   2.676  0.00  0.00    -0.041 A 
ATOM     21  C   UNL     1      -2.019  -2.504   3.603  0.00  0.00    +0.007 A 
ATOM     22  C   UNL     1      -3.316  -2.809   3.969  0.00  0.00    +0.038 A 
ATOM     23  C   UNL     1      -3.955  -3.901   3.408  0.00  0.00    +0.123 A 
ATOM     24  C   UNL     1      -3.294  -4.687   2.480  0.00  0.00    +0.038 A 
ATOM     25  C   UNL     1      -1.998  -4.378   2.110  0.00  0.00    +0.007 A 
ATOM     26  F   UNL     1      -5.223  -4.200   3.766  0.00  0.00    -0.205 F 
ENDBRANCH  19  20
ENDBRANCH   5  19
TORSDOF 5
