REMARK  Name = ZINC08868787
REMARK  5 active torsions:
REMARK  status: ('A' for Active; 'I' for Inactive)
REMARK    1  A    between atoms: C_6  and  C_7
REMARK    2  A    between atoms: C_10  and  C_32
REMARK    3  A    between atoms: C_15  and  C_17
REMARK    4  A    between atoms: N_19  and  C_20
REMARK    5  A    between atoms: C_20  and  C_21
REMARK                            x       y       z     vdW  Elec       q    Type
REMARK                         _______ _______ _______ _____ _____    ______ ____
ROOT
ATOM      1  C   UNL     1      -1.294  -0.774   0.010  0.00  0.00    +0.104 C 
ATOM      2  C   UNL     1      -1.855  -0.821   1.435  0.00  0.00    +0.063 C 
ATOM      3  C   UNL     1      -2.034   0.604   1.973  0.00  0.00    +0.215 C 
ATOM      4  N   UNL     1      -2.767   1.397   0.982  0.00  0.00    -0.238 N 
ATOM      5  C   UNL     1      -2.872   1.052  -0.336  0.00  0.00    +0.119 A 
ATOM      6  C   UNL     1      -3.611   1.992  -0.958  0.00  0.00    +0.078 A 
ATOM      7  C   UNL     1      -3.976   2.957   0.009  0.00  0.00    +0.149 A 
ATOM      8  N   UNL     1      -3.464   2.589   1.170  0.00  0.00    -0.164 NA
ATOM      9  N   UNL     1      -2.275  -0.101  -0.864  0.00  0.00    -0.322 N 
ATOM     10  H   UNL     1      -2.494  -0.439  -1.746  0.00  0.00    +0.148 HD
ENDROOT
BRANCH   1  16
ATOM     11  C   UNL     1      -0.017   1.378   0.010  0.00  0.00    +0.009 A 
ATOM     12  C   UNL     1       1.170   2.088   0.002  0.00  0.00    +0.050 A 
ATOM     13  C   UNL     1       2.380   1.416  -0.013  0.00  0.00    +0.166 A 
ATOM     14  C   UNL     1       2.399   0.023  -0.021  0.00  0.00    +0.167 A 
ATOM     15  C   UNL     1       1.207  -0.682  -0.014  0.00  0.00    +0.055 A 
ATOM     16  C   UNL     1       0.002  -0.004   0.002  0.00  0.00    -0.024 A 
ATOM     17  O   UNL     1       3.698  -0.395  -0.036  0.00  0.00    -0.453 OA
ATOM     18  C   UNL     1       4.466   0.750  -0.450  0.00  0.00    +0.466 C 
ATOM     19  O   UNL     1       3.668   1.870  -0.024  0.00  0.00    -0.453 OA
ENDBRANCH   1  16
BRANCH   7  20
ATOM     20  C   UNL     1      -4.790   4.165  -0.236  0.00  0.00    +0.264 C 
ATOM     21  O   UNL     1      -5.208   4.399  -1.353  0.00  0.00    -0.268 OA
ATOM     22  N   UNL     1      -5.067   5.008   0.778  0.00  0.00    -0.310 N 
ATOM     23  H   UNL     1      -4.733   4.821   1.669  0.00  0.00    +0.149 HD
BRANCH  22  24
ATOM     24  C   UNL     1      -5.874   6.206   0.535  0.00  0.00    +0.111 C 
BRANCH  24  25
ATOM     25  C   UNL     1      -6.040   6.983   1.842  0.00  0.00    -0.013 C 
ATOM     26  C   UNL     1      -6.740   6.099   2.876  0.00  0.00    +0.012 C 
ATOM     27  C   UNL     1      -6.905   6.876   4.184  0.00  0.00    -0.010 C 
ATOM     28  C   UNL     1      -7.748   8.128   3.930  0.00  0.00    +0.007 C 
ATOM     29  C   UNL     1      -7.048   9.012   2.896  0.00  0.00    -0.010 C 
ATOM     30  C   UNL     1      -6.882   8.235   1.588  0.00  0.00    +0.012 C 
ATOM     31  C   UNL     1      -5.672   9.422   3.423  0.00  0.00    +0.007 C 
ATOM     32  C   UNL     1      -4.829   8.171   3.677  0.00  0.00    -0.010 C 
ATOM     33  C   UNL     1      -5.529   7.286   4.711  0.00  0.00    +0.007 C 
ATOM     34  C   UNL     1      -4.663   7.394   2.370  0.00  0.00    +0.012 C 
ENDBRANCH  24  25
ENDBRANCH  22  24
ENDBRANCH   7  20
BRANCH   3  35
ATOM     35  C   UNL     1      -2.823   0.561   3.284  0.00  0.00    +0.412 C 
ATOM     36  F   UNL     1      -2.127  -0.206   4.223  0.00  0.00    -0.168 F 
ATOM     37  F   UNL     1      -2.985   1.862   3.772  0.00  0.00    -0.168 F 
ATOM     38  F   UNL     1      -4.079  -0.010   3.053  0.00  0.00    -0.168 F 
ENDBRANCH   3  35
TORSDOF 5
