REMARK  Name = ZINC59373855
REMARK  16 active torsions:
REMARK  status: ('A' for Active; 'I' for Inactive)
REMARK    1  A    between atoms: C_1  and  C_2
REMARK    2  A    between atoms: C_2  and  C_4
REMARK    3  A    between atoms: C_2  and  N_11
REMARK    4  A    between atoms: N_11  and  C_12
REMARK    5  A    between atoms: N_11  and  C_13
REMARK    6  A    between atoms: C_13  and  C_14
REMARK    7  A    between atoms: N_16  and  C_17
REMARK    8  A    between atoms: N_16  and  C_21
REMARK    9  A    between atoms: C_17  and  C_18
REMARK   10  A    between atoms: C_18  and  C_19
REMARK   11  A    between atoms: C_18  and  C_20
REMARK   12  A    between atoms: C_22  and  N_34
REMARK   13  A    between atoms: N_23  and  C_30
REMARK   14  A    between atoms: C_30  and  C_31
REMARK   15  A    between atoms: C_31  and  C_32
REMARK   16  A    between atoms: C_31  and  C_33
REMARK                            x       y       z     vdW  Elec       q    Type
REMARK                         _______ _______ _______ _____ _____    ______ ____
ROOT
ATOM      1  C   UNL     1       2.934   0.156  -2.389  0.00  0.00    +0.203 C 
ATOM      2  O   UNL     1       2.131  -0.031  -3.279  0.00  0.00    -0.277 OA
ATOM      3  N   UNL     1       4.241   0.320  -2.684  0.00  0.00    -0.266 N 
ENDROOT
BRANCH   3   4
ATOM      4  C   UNL     1       4.688   0.178  -4.015  0.00  0.00    +0.140 A 
ATOM      5  C   UNL     1       4.539  -1.020  -4.682  0.00  0.00    +0.127 A 
ATOM      6  N   UNL     1       4.984  -1.127  -5.979  0.00  0.00    -0.280 N 
ATOM      7  C   UNL     1       5.557  -0.074  -6.590  0.00  0.00    +0.331 A 
ATOM      8  O   UNL     1       5.944  -0.189  -7.738  0.00  0.00    -0.246 OA
ATOM      9  N   UNL     1       5.710   1.102  -5.957  0.00  0.00    -0.273 N 
ATOM     10  H   UNL     1       6.126   1.845  -6.420  0.00  0.00    +0.173 HD
ATOM     11  C   UNL     1       5.287   1.260  -4.687  0.00  0.00    +0.277 A 
ATOM     12  O   UNL     1       5.426   2.332  -4.123  0.00  0.00    -0.266 OA
BRANCH   5  13
ATOM     13  N   UNL     1       3.954  -2.096  -4.057  0.00  0.00    -0.343 N 
ATOM     14  H   UNL     1       3.542  -1.985  -3.186  0.00  0.00    +0.144 HD
ATOM     15  H   UNL     1       3.953  -2.965  -4.487  0.00  0.00    +0.144 HD
ENDBRANCH   5  13
BRANCH   6  16
ATOM     16  C   UNL     1       4.833  -2.394  -6.699  0.00  0.00    +0.131 C 
BRANCH  16  17
ATOM     17  C   UNL     1       3.488  -2.409  -7.427  0.00  0.00    +0.003 C 
ATOM     18  C   UNL     1       3.383  -3.676  -8.278  0.00  0.00    +0.009 C 
ATOM     19  C   UNL     1       2.352  -2.389  -6.402  0.00  0.00    +0.009 C 
ENDBRANCH  16  17
ENDBRANCH   6  16
ENDBRANCH   3   4
BRANCH   1  20
ATOM     20  C   UNL     1       2.473   0.205  -0.956  0.00  0.00    +0.020 C 
BRANCH  20  21
ATOM     21  N   UNL     1       1.019   0.001  -0.902  0.00  0.00    +0.388 N 
ATOM     22  C   UNL     1       0.698  -1.355  -1.367  0.00  0.00    -0.095 C 
ATOM     23  H   UNL     1       0.562   0.677  -1.495  0.00  0.00    -0.081 HD
BRANCH  21  25
ATOM     24  C   UNL     1       0.887   1.581   0.965  0.00  0.00    -0.008 C 
ATOM     25  C   UNL     1       0.552   0.168   0.481  0.00  0.00    -0.038 C 
BRANCH  25  26
ATOM     26  C   UNL     1      -0.939  -0.041   0.536  0.00  0.00    -0.026 A 
ATOM     27  C   UNL     1      -1.696   0.066  -0.616  0.00  0.00    +0.005 A 
ATOM     28  C   UNL     1      -3.063  -0.127  -0.566  0.00  0.00    +0.000 A 
ATOM     29  C   UNL     1      -3.677  -0.426   0.637  0.00  0.00    +0.003 A 
ATOM     30  C   UNL     1      -2.923  -0.533   1.790  0.00  0.00    +0.038 A 
ATOM     31  C   UNL     1      -1.552  -0.346   1.740  0.00  0.00    +0.125 A 
ATOM     32  F   UNL     1      -0.813  -0.456   2.865  0.00  0.00    -0.205 F 
ENDBRANCH  25  26
ENDBRANCH  21  25
ENDBRANCH  20  21
ENDBRANCH   1  20
BRANCH   3  33
ATOM     33  C   UNL     1       5.196   0.643  -1.621  0.00  0.00    +0.117 C 
BRANCH  33  34
ATOM     34  C   UNL     1       5.679  -0.648  -0.958  0.00  0.00    +0.001 C 
ATOM     35  C   UNL     1       6.479  -1.472  -1.970  0.00  0.00    +0.009 C 
ATOM     36  C   UNL     1       6.569  -0.305   0.238  0.00  0.00    +0.009 C 
ENDBRANCH  33  34
ENDBRANCH   3  33
TORSDOF 10
