REMARK  Name = ZINC20641463
REMARK  6 active torsions:
REMARK  status: ('A' for Active; 'I' for Inactive)
REMARK    1  A    between atoms: C_1  and  C_2
REMARK    2  A    between atoms: C_5  and  N_9
REMARK    3  A    between atoms: C_6  and  C_8
REMARK    4  A    between atoms: C_10  and  C_12
REMARK    5  A    between atoms: C_23  and  C_35
REMARK    6  A    between atoms: N_24  and  C_28
REMARK                            x       y       z     vdW  Elec       q    Type
REMARK                         _______ _______ _______ _____ _____    ______ ____
ROOT
ATOM      1  C   UNL     1       1.435   5.965  -0.687  0.00  0.00    +0.163 C 
ATOM      2  C   UNL     1       0.073   5.468  -0.176  0.00  0.00    +0.123 C 
ATOM      3  C   UNL     1       0.077   3.957  -0.211  0.00  0.00    +0.015 A 
ATOM      4  C   UNL     1      -1.131   3.285  -0.281  0.00  0.00    +0.009 A 
ATOM      5  C   UNL     1      -1.156   1.904  -0.310  0.00  0.00    +0.001 A 
ATOM      6  C   UNL     1       0.028   1.191  -0.259  0.00  0.00    +0.004 A 
ATOM      7  C   UNL     1       1.234   1.857  -0.193  0.00  0.00    +0.046 A 
ATOM      8  C   UNL     1       1.264   3.248  -0.170  0.00  0.00    +0.128 A 
ATOM      9  O   UNL     1       2.470   3.870  -0.114  0.00  0.00    -0.467 OA
ATOM     10  C   UNL     1       2.509   5.268   0.160  0.00  0.00    +0.194 C 
ATOM     11  N   UNL     1       2.255   5.529   1.574  0.00  0.00    -0.243 N 
ATOM     12  C   UNL     1       1.034   5.849   2.030  0.00  0.00    +0.141 C 
ATOM     13  S   UNL     1       0.849   6.240   3.686  0.00  0.00    -0.018 S 
ATOM     14  N   UNL     1      -0.048   5.875   1.234  0.00  0.00    -0.318 N 
ATOM     15  C   UNL     1       3.887   5.820  -0.212  0.00  0.00    +0.079 C 
ATOM     16  H   UNL     1      -1.021   6.198   1.631  0.00  0.00    +0.148 HD
ENDROOT
BRANCH  11  17
ATOM     17  C   UNL     1       3.316   5.441   2.481  0.00  0.00    +0.040 A 
ATOM     18  C   UNL     1       3.923   4.215   2.725  0.00  0.00    +0.024 A 
ATOM     19  C   UNL     1       4.974   4.132   3.617  0.00  0.00    +0.003 A 
ATOM     20  C   UNL     1       5.415   5.265   4.276  0.00  0.00    +0.020 A 
ATOM     21  C   UNL     1       4.809   6.487   4.040  0.00  0.00    +0.043 A 
ATOM     22  C   UNL     1       3.760   6.577   3.144  0.00  0.00    +0.043 A 
ATOM     23 CL   UNL     1       5.365   7.906   4.871  0.00  0.00    -0.083 Cl
ENDBRANCH  11  17
BRANCH   1  25
ATOM     24  N   UNL     1       0.767   6.104  -3.065  0.00  0.00    -0.285 N 
ATOM     25  C   UNL     1       1.607   5.600  -2.139  0.00  0.00    +0.228 C 
ATOM     26  O   UNL     1       2.502   4.853  -2.475  0.00  0.00    -0.275 OA
ATOM     27  H   UNL     1      -0.005   6.830  -2.769  0.00  0.00    +0.155 HD
BRANCH  24  32
ATOM     28  C   UNL     1       1.216   4.486  -8.483  0.00  0.00    +0.044 C 
ATOM     29  C   UNL     1       1.096   4.915  -7.044  0.00  0.00    -0.050 A 
ATOM     30  C   UNL     1       2.200   4.857  -6.213  0.00  0.00    +0.005 A 
ATOM     31  C   UNL     1       2.095   5.251  -4.893  0.00  0.00    +0.024 A 
ATOM     32  C   UNL     1       0.878   5.705  -4.401  0.00  0.00    +0.036 A 
ATOM     33  C   UNL     1      -0.230   5.757  -5.237  0.00  0.00    -0.029 A 
ATOM     34  C   UNL     1      -0.116   5.367  -6.557  0.00  0.00    +0.008 A 
ATOM     35  C   UNL     1      -1.554   6.243  -4.705  0.00  0.00    +0.045 C 
ENDBRANCH  24  32
ENDBRANCH   1  25
TORSDOF 3
