REMARK  Name = ZINC03073397
REMARK  6 active torsions:
REMARK  status: ('A' for Active; 'I' for Inactive)
REMARK    1  A    between atoms: C_1  and  C_2
REMARK    2  A    between atoms: C_2  and  O_3
REMARK    3  A    between atoms: O_3  and  C_4
REMARK    4  A    between atoms: C_4  and  C_6
REMARK    5  A    between atoms: C_7  and  N_29
REMARK    6  A    between atoms: C_20  and  C_22
REMARK                            x       y       z     vdW  Elec       q    Type
REMARK                         _______ _______ _______ _____ _____    ______ ____
ROOT
ATOM      1  C   UNL     1       2.366   4.672  -1.198  0.00  0.00    +0.105 C 
ATOM      2  C   UNL     1       2.511   6.022  -1.202  0.00  0.00    +0.195 C 
ATOM      3  O   UNL     1       2.383   6.746  -0.078  0.00  0.00    -0.441 OA
ATOM      4  C   UNL     1       2.486   6.148   1.124  0.00  0.00    +0.152 A 
ATOM      5  C   UNL     1       2.764   6.948   2.328  0.00  0.00    +0.060 A 
ATOM      6  C   UNL     1       2.928   8.332   2.251  0.00  0.00    +0.015 A 
ATOM      7  C   UNL     1       3.186   9.051   3.397  0.00  0.00    +0.001 A 
ATOM      8  C   UNL     1       3.285   8.406   4.621  0.00  0.00    +0.004 A 
ATOM      9  C   UNL     1       3.126   7.039   4.710  0.00  0.00    +0.047 A 
ATOM     10  C   UNL     1       2.864   6.295   3.567  0.00  0.00    +0.143 A 
ATOM     11  O   UNL     1       2.707   4.956   3.634  0.00  0.00    -0.422 OA
ATOM     12  C   UNL     1       2.454   4.219   2.541  0.00  0.00    +0.345 A 
ATOM     13  O   UNL     1       2.321   3.014   2.657  0.00  0.00    -0.245 OA
ATOM     14  C   UNL     1       2.338   4.800   1.266  0.00  0.00    +0.092 A 
ATOM     15  C   UNL     1       2.052   3.930   0.072  0.00  0.00    +0.101 C 
ENDROOT
BRANCH  15  16
ATOM     16  C   UNL     1       0.596   3.540   0.076  0.00  0.00    -0.034 A 
ATOM     17  C   UNL     1       0.238   2.206   0.133  0.00  0.00    +0.004 A 
ATOM     18  C   UNL     1      -1.096   1.847   0.136  0.00  0.00    +0.002 A 
ATOM     19  C   UNL     1      -2.074   2.822   0.077  0.00  0.00    +0.020 A 
ATOM     20  C   UNL     1      -1.717   4.158   0.025  0.00  0.00    +0.041 A 
ATOM     21  C   UNL     1      -0.381   4.516   0.021  0.00  0.00    +0.024 A 
ATOM     22 CL   UNL     1      -2.945   5.383  -0.043  0.00  0.00    -0.084 Cl
ENDBRANCH  15  16
BRANCH   2  23
ATOM     23  N   UNL     1       2.795   6.660  -2.380  0.00  0.00    -0.329 N 
ATOM     24  H   UNL     1       3.431   6.272  -3.001  0.00  0.00    +0.145 HD
ATOM     25  H   UNL     1       2.359   7.500  -2.594  0.00  0.00    +0.145 HD
ENDBRANCH   2  23
BRANCH   1  26
ATOM     26  C   UNL     1       2.510   3.957  -2.397  0.00  0.00    +0.341 C 
ATOM     27  O   UNL     1       2.647   4.555  -3.449  0.00  0.00    -0.245 OA
BRANCH  26  28
ATOM     28  O   UNL     1       2.499   2.607  -2.384  0.00  0.00    -0.462 OA
BRANCH  28  30
ATOM     29  C   UNL     1       2.613   0.430  -3.428  0.00  0.00    +0.048 C 
ATOM     30  C   UNL     1       2.651   1.945  -3.641  0.00  0.00    +0.229 C 
ENDBRANCH  28  30
ENDBRANCH  26  28
ENDBRANCH   1  26
TORSDOF 5
