REMARK  Name = ZINC11911810
REMARK  10 active torsions:
REMARK  status: ('A' for Active; 'I' for Inactive)
REMARK    1  A    between atoms: C_1  and  C_2
REMARK    2  A    between atoms: C_2  and  O_3
REMARK    3  A    between atoms: O_3  and  C_4
REMARK    4  A    between atoms: C_4  and  C_6
REMARK    5  A    between atoms: N_11  and  C_13
REMARK    6  A    between atoms: C_14  and  C_23
REMARK    7  A    between atoms: C_23  and  N_59
REMARK    8  A    between atoms: C_24  and  C_25
REMARK    9  A    between atoms: C_24  and  N_59
REMARK   10  A    between atoms: C_25  and  C_26
REMARK                            x       y       z     vdW  Elec       q    Type
REMARK                         _______ _______ _______ _____ _____    ______ ____
ROOT
ATOM      1  C   UNL     1      -2.188   5.664   0.310  0.00  0.00    +0.101 A 
ATOM      2  C   UNL     1      -3.264   6.527   0.054  0.00  0.00    -0.026 A 
ATOM      3  C   UNL     1      -3.061   7.873   0.021  0.00  0.00    +0.015 A 
ATOM      4  C   UNL     1      -1.757   8.359   0.250  0.00  0.00    -0.001 A 
ATOM      5  C   UNL     1      -1.478   9.734   0.231  0.00  0.00    +0.011 A 
ATOM      6  C   UNL     1      -0.206  10.167   0.455  0.00  0.00    +0.021 A 
ATOM      7  C   UNL     1       0.824   9.261   0.705  0.00  0.00    +0.043 A 
ATOM      8  C   UNL     1       0.587   7.919   0.730  0.00  0.00    +0.046 A 
ATOM      9  C   UNL     1      -0.712   7.436   0.503  0.00  0.00    +0.049 A 
ATOM     10 CL   UNL     1       2.432   9.851   0.986  0.00  0.00    -0.083 Cl
ATOM     11  N   UNL     1      -0.916   6.074   0.542  0.00  0.00    -0.343 N 
ATOM     12  H   UNL     1      -0.155   5.412   0.735  0.00  0.00    +0.167 HD
ENDROOT
BRANCH   1  17
ATOM     13  C   UNL     1      -2.481   2.260   1.701  0.00  0.00    +0.115 C 
ATOM     14  C   UNL     1      -1.720   1.504   0.609  0.00  0.00    +0.018 C 
ATOM     15  C   UNL     1      -2.035   2.134  -0.751  0.00  0.00    +0.020 C 
ATOM     16  C   UNL     1      -1.655   3.617  -0.721  0.00  0.00    +0.106 C 
ATOM     17  N   UNL     1      -2.410   4.295   0.340  0.00  0.00    -0.316 N 
ATOM     18  C   UNL     1      -2.088   3.739   1.660  0.00  0.00    +0.121 C 
BRANCH  13  19
ATOM     19  C   UNL     1      -2.130   1.684   3.049  0.00  0.00    +0.312 C 
ATOM     20  O   UNL     1      -1.617   2.384   3.890  0.00  0.00    -0.250 OA
BRANCH  19  21
ATOM     21  O   UNL     1      -2.383   0.393   3.313  0.00  0.00    -0.465 OA
BRANCH  21  23
ATOM     22  C   UNL     1      -2.375  -1.578   4.744  0.00  0.00    +0.048 C 
ATOM     23  C   UNL     1      -2.013  -0.096   4.630  0.00  0.00    +0.229 C 
ENDBRANCH  21  23
ENDBRANCH  19  21
ENDBRANCH  13  19
ENDBRANCH   1  17
BRANCH   2  24
ATOM     24  C   UNL     1      -4.641   5.965  -0.185  0.00  0.00    -0.043 C 
BRANCH  24  25
ATOM     25  N   UNL     1      -5.232   5.566   1.106  0.00  0.00    +0.382 N 
ATOM     26  H   UNL     1      -5.292   6.388   1.719  0.00  0.00    -0.085 HD
ATOM     27  H   UNL     1      -4.636   4.854   1.545  0.00  0.00    -0.085 HD
BRANCH  25  28
ATOM     28  C   UNL     1      -6.583   5.012   0.902  0.00  0.00    -0.076 C 
BRANCH  28  29
ATOM     29  C   UNL     1      -7.169   4.608   2.256  0.00  0.00    +0.038 C 
BRANCH  29  30
ATOM     30  C   UNL     1      -8.551   4.040   2.057  0.00  0.00    +0.057 A 
ATOM     31  C   UNL     1      -8.977   2.831   2.471  0.00  0.00    +0.107 A 
ATOM     32  N   UNL     1     -10.287   2.721   2.088  0.00  0.00    -0.351 N 
ATOM     33  H   UNL     1     -10.889   1.940   2.254  0.00  0.00    +0.166 HD
ATOM     34  C   UNL     1     -10.613   3.863   1.446  0.00  0.00    +0.196 A 
ATOM     35  N   UNL     1      -9.569   4.647   1.431  0.00  0.00    -0.241 NA
ENDBRANCH  29  30
ENDBRANCH  28  29
ENDBRANCH  25  28
ENDBRANCH  24  25
ENDBRANCH   2  24
TORSDOF 9
