REMARK  Name = ZINC11691591
REMARK  4 active torsions:
REMARK  status: ('A' for Active; 'I' for Inactive)
REMARK    1  A    between atoms: C_4  and  S_14
REMARK    2  A    between atoms: S_14  and  N_17
REMARK    3  A    between atoms: N_17  and  C_18
REMARK    4  A    between atoms: C_23  and  O_24
REMARK                            x       y       z     vdW  Elec       q    Type
REMARK                         _______ _______ _______ _____ _____    ______ ____
ROOT
ATOM      1  C   UNL     1       2.144   1.310  -2.841  0.00  0.00    +0.001 A 
ATOM      2  C   UNL     1       1.096   1.962  -2.248  0.00  0.00    +0.010 A 
ATOM      3  C   UNL     1      -0.014   2.319  -3.033  0.00  0.00    +0.011 A 
ATOM      4  C   UNL     1      -1.162   2.987  -2.576  0.00  0.00    +0.116 A 
ATOM      5  C   UNL     1      -2.160   3.257  -3.472  0.00  0.00    +0.031 A 
ATOM      6  C   UNL     1      -2.090   2.913  -4.822  0.00  0.00    +0.026 A 
ATOM      7  C   UNL     1      -0.977   2.255  -5.310  0.00  0.00    +0.042 A 
ATOM      8  C   UNL     1       0.027   1.981  -4.386  0.00  0.00    +0.017 A 
ATOM      9  C   UNL     1       1.096   1.315  -5.003  0.00  0.00    +0.047 A 
ATOM     10  C   UNL     1       2.169   0.980  -4.195  0.00  0.00    +0.014 A 
ATOM     11  C   UNL     1       0.682   1.188  -6.405  0.00  0.00    +0.249 C 
ATOM     12  O   UNL     1       1.325   0.666  -7.296  0.00  0.00    -0.270 OA
ATOM     13  N   UNL     1      -0.546   1.757  -6.533  0.00  0.00    -0.281 N 
ATOM     14  H   UNL     1      -1.049   1.808  -7.361  0.00  0.00    +0.155 HD
ENDROOT
BRANCH   4  15
ATOM     15  S   UNL     1      -1.317   3.459  -0.885  0.00  0.00    +0.073 S 
ATOM     16  O   UNL     1      -2.606   4.040  -0.742  0.00  0.00    -0.150 OA
ATOM     17  O   UNL     1      -0.126   4.155  -0.547  0.00  0.00    -0.150 OA
BRANCH  15  18
ATOM     18  N   UNL     1      -1.323   2.068   0.013  0.00  0.00    -0.213 N 
ATOM     19  H   UNL     1      -0.579   1.868   0.603  0.00  0.00    +0.174 HD
BRANCH  18  20
ATOM     20  C   UNL     1      -2.401   1.180  -0.079  0.00  0.00    +0.091 A 
ATOM     21  C   UNL     1      -3.048   0.995  -1.292  0.00  0.00    +0.048 A 
ATOM     22  C   UNL     1      -4.116   0.121  -1.379  0.00  0.00    +0.043 A 
ATOM     23  C   UNL     1      -4.542  -0.570  -0.258  0.00  0.00    +0.024 A 
ATOM     24  C   UNL     1      -3.901  -0.390   0.954  0.00  0.00    +0.049 A 
ATOM     25  C   UNL     1      -2.830   0.483   1.049  0.00  0.00    +0.139 A 
ATOM     26 CL   UNL     1      -4.925  -0.110  -2.898  0.00  0.00    -0.083 Cl
BRANCH  25  27
ATOM     27  O   UNL     1      -2.199   0.661   2.241  0.00  0.00    -0.505 OA
ATOM     28  H   UNL     1      -2.571   1.371   2.781  0.00  0.00    +0.292 HD
ENDBRANCH  25  27
ENDBRANCH  18  20
ENDBRANCH  15  18
ENDBRANCH   4  15
TORSDOF 4
