REMARK  Name = ZINC15127855
REMARK  9 active torsions:
REMARK  status: ('A' for Active; 'I' for Inactive)
REMARK    1  A    between atoms: N_9  and  C_12
REMARK    2  A    between atoms: C_12  and  C_13
REMARK    3  A    between atoms: C_13  and  C_14
REMARK    4  A    between atoms: C_14  and  C_15
REMARK    5  A    between atoms: C_15  and  S_16
REMARK    6  A    between atoms: S_16  and  C_17
REMARK    7  A    between atoms: C_20  and  C_29
REMARK    8  A    between atoms: N_21  and  C_22
REMARK    9  A    between atoms: C_29  and  N_63
REMARK                            x       y       z     vdW  Elec       q    Type
REMARK                         _______ _______ _______ _____ _____    ______ ____
ROOT
ATOM      1  C   UNL     1       6.231   1.117   2.095  0.00  0.00    +0.196 A 
ATOM      2  N   UNL     1       6.413   0.041   1.364  0.00  0.00    -0.122 NA
ATOM      3  N   UNL     1       5.366  -0.703   1.413  0.00  0.00    -0.135 NA
ATOM      4  C   UNL     1       4.456  -0.149   2.163  0.00  0.00    +0.122 A 
ATOM      5  N   UNL     1       4.975   1.030   2.629  0.00  0.00    -0.276 N 
ENDROOT
BRANCH   5   6
ATOM      6  C   UNL     1       4.348   1.956   3.476  0.00  0.00    +0.050 A 
ATOM      7  C   UNL     1       3.247   2.673   3.029  0.00  0.00    +0.029 A 
ATOM      8  C   UNL     1       2.628   3.580   3.866  0.00  0.00    +0.040 A 
ATOM      9  C   UNL     1       3.112   3.783   5.148  0.00  0.00    +0.124 A 
ATOM     10  C   UNL     1       4.213   3.073   5.594  0.00  0.00    +0.040 A 
ATOM     11  C   UNL     1       4.832   2.161   4.761  0.00  0.00    +0.029 A 
ATOM     12  F   UNL     1       2.508   4.675   5.963  0.00  0.00    -0.205 F 
ENDBRANCH   5   6
BRANCH   1  13
ATOM     13  S   UNL     1       7.386   2.424   2.340  0.00  0.00    -0.086 S 
BRANCH  13  14
ATOM     14  C   UNL     1       8.764   1.819   1.335  0.00  0.00    +0.077 C 
BRANCH  14  15
ATOM     15  C   UNL     1       9.919   2.821   1.397  0.00  0.00    +0.013 C 
BRANCH  15  16
ATOM     16  C   UNL     1      11.084   2.309   0.547  0.00  0.00    +0.020 C 
BRANCH  16  17
ATOM     17  C   UNL     1      12.239   3.311   0.609  0.00  0.00    +0.117 C 
BRANCH  17  26
ATOM     18  C   UNL     1      16.586   1.621  -3.299  0.00  0.00    +0.001 A 
ATOM     19  C   UNL     1      17.099   0.962  -2.199  0.00  0.00    +0.001 A 
ATOM     20  C   UNL     1      16.451   1.026  -0.975  0.00  0.00    +0.014 A 
ATOM     21  C   UNL     1      15.279   1.756  -0.856  0.00  0.00    +0.049 A 
ATOM     22  C   UNL     1      14.755   2.428  -1.979  0.00  0.00    +0.049 A 
ATOM     23  C   UNL     1      15.415   2.356  -3.195  0.00  0.00    +0.014 A 
ATOM     24  C   UNL     1      13.522   3.096  -1.511  0.00  0.00    +0.254 C 
ATOM     25  O   UNL     1      12.784   3.779  -2.192  0.00  0.00    -0.270 OA
ATOM     26  N   UNL     1      13.354   2.821  -0.205  0.00  0.00    -0.234 N 
ATOM     27  C   UNL     1      14.349   2.042   0.257  0.00  0.00    +0.254 C 
ATOM     28  O   UNL     1      14.463   1.638   1.396  0.00  0.00    -0.270 OA
ENDBRANCH  17  26
ENDBRANCH  16  17
ENDBRANCH  15  16
ENDBRANCH  14  15
ENDBRANCH  13  14
ENDBRANCH   1  13
BRANCH   4  29
ATOM     29  C   UNL     1       3.089  -0.705   2.468  0.00  0.00    -0.001 C 
BRANCH  29  35
ATOM     30  C   UNL     1       1.778  -1.678   4.256  0.00  0.00    -0.078 C 
ATOM     31  C   UNL     1       1.866  -2.315   5.644  0.00  0.00    -0.019 C 
ATOM     32  C   UNL     1       2.632  -3.637   5.546  0.00  0.00    -0.004 C 
ATOM     33  C   UNL     1       4.021  -3.371   4.959  0.00  0.00    -0.019 C 
ATOM     34  C   UNL     1       3.871  -2.703   3.590  0.00  0.00    -0.078 C 
ATOM     35  N   UNL     1       3.147  -1.424   3.757  0.00  0.00    +0.384 N 
ATOM     36  H   UNL     1       3.648  -0.844   4.440  0.00  0.00    -0.081 HD
ENDBRANCH  29  35
ENDBRANCH   4  29
TORSDOF 9
