REMARK  Name = ZINC08014790
REMARK  11 active torsions:
REMARK  status: ('A' for Active; 'I' for Inactive)
REMARK    1  A    between atoms: C_1  and  C_2
REMARK    2  A    between atoms: C_5  and  C_35
REMARK    3  A    between atoms: C_5  and  C_36
REMARK    4  A    between atoms: N_11  and  C_15
REMARK    5  A    between atoms: C_15  and  C_16
REMARK    6  A    between atoms: N_18  and  C_19
REMARK    7  A    between atoms: C_19  and  C_20
REMARK    8  A    between atoms: C_20  and  C_22
REMARK    9  A    between atoms: C_20  and  N_73
REMARK   10  A    between atoms: C_25  and  O_28
REMARK   11  A    between atoms: O_28  and  C_29
REMARK                            x       y       z     vdW  Elec       q    Type
REMARK                         _______ _______ _______ _____ _____    ______ ____
ROOT
ATOM      1  C   UNL     1      -2.854   1.671   1.682  0.00  0.00    +0.231 C 
ATOM      2  O   UNL     1      -2.089   2.208   2.454  0.00  0.00    -0.274 OA
ATOM      3  N   UNL     1      -4.018   1.162   2.131  0.00  0.00    -0.315 N 
ATOM      4  H   UNL     1      -4.630   0.732   1.514  0.00  0.00    +0.149 HD
ENDROOT
BRANCH   1   5
ATOM      5  C   UNL     1      -2.505   1.575   0.219  0.00  0.00    +0.213 C 
BRANCH   5  15
ATOM      6  C   UNL     1       3.966   0.818  -1.759  0.00  0.00    +0.007 C 
ATOM      7  C   UNL     1       2.967   1.146  -0.644  0.00  0.00    -0.011 C 
ATOM      8  C   UNL     1       3.730   1.591   0.602  0.00  0.00    +0.009 C 
ATOM      9  C   UNL     1       2.771   1.904   1.745  0.00  0.00    -0.032 C 
ATOM     10  C   UNL     1       1.673   2.870   1.336  0.00  0.00    +0.041 C 
ATOM     11  C   UNL     1       1.042   2.610  -0.015  0.00  0.00    +0.113 C 
ATOM     12  C   UNL     1       2.061   2.291  -1.099  0.00  0.00    +0.038 C 
ATOM     13  C   UNL     1      -0.021   1.540   0.051  0.00  0.00    +0.247 C 
ATOM     14  O   UNL     1       0.127   0.340   0.138  0.00  0.00    -0.273 OA
ATOM     15  N   UNL     1      -1.200   2.197  -0.013  0.00  0.00    -0.215 N 
ATOM     16  C   UNL     1      -1.022   3.489  -0.314  0.00  0.00    +0.310 C 
ATOM     17  O   UNL     1      -1.933   4.278  -0.474  0.00  0.00    -0.252 OA
ATOM     18  N   UNL     1       0.279   3.812  -0.420  0.00  0.00    -0.285 N 
ATOM     19  C   UNL     1       3.588   2.558   2.879  0.00  0.00    +0.011 C 
ATOM     20  C   UNL     1       2.174   0.607   2.298  0.00  0.00    +0.011 C 
ATOM     21  H   UNL     1       0.656   4.657  -0.702  0.00  0.00    +0.151 HD
ENDBRANCH   5  15
ENDBRANCH   1   5
BRANCH   3  22
ATOM     22  C   UNL     1      -4.358   1.256   3.553  0.00  0.00    +0.093 C 
BRANCH  22  23
ATOM     23  C   UNL     1      -5.779   0.733   3.774  0.00  0.00    -0.020 C 
BRANCH  23  29
ATOM     24  C   UNL     1      -5.109  -0.028   5.973  0.00  0.00    -0.049 C 
ATOM     25  C   UNL     1      -5.436   0.069   7.466  0.00  0.00    +0.141 C 
ATOM     26  O   UNL     1      -6.776  -0.381   7.685  0.00  0.00    -0.383 OA
ATOM     27  C   UNL     1      -7.759   0.359   6.956  0.00  0.00    +0.141 C 
ATOM     28  C   UNL     1      -7.455   0.265   5.459  0.00  0.00    -0.049 C 
ATOM     29  N   UNL     1      -6.090   0.779   5.219  0.00  0.00    +0.388 N 
ATOM     30  H   UNL     1      -6.039   1.753   5.540  0.00  0.00    -0.081 HD
ENDBRANCH  23  29
BRANCH  23  31
ATOM     31  C   UNL     1      -6.757   1.609   3.034  0.00  0.00    -0.059 A 
ATOM     32  C   UNL     1      -7.157   2.813   3.583  0.00  0.00    +0.005 A 
ATOM     33  C   UNL     1      -8.049   3.621   2.905  0.00  0.00    +0.046 A 
ATOM     34  C   UNL     1      -8.553   3.217   1.677  0.00  0.00    +0.120 A 
ATOM     35  C   UNL     1      -8.154   2.006   1.130  0.00  0.00    +0.046 A 
ATOM     36  C   UNL     1      -7.257   1.205   1.810  0.00  0.00    +0.005 A 
BRANCH  34  37
ATOM     37  O   UNL     1      -9.435   4.007   1.010  0.00  0.00    -0.495 OA
ATOM     38  C   UNL     1      -9.801   5.240   1.632  0.00  0.00    +0.277 C 
ENDBRANCH  34  37
ENDBRANCH  23  31
ENDBRANCH  22  23
ENDBRANCH   3  22
TORSDOF 7
