REMARK  Name = ZINC14198546
REMARK  12 active torsions:
REMARK  status: ('A' for Active; 'I' for Inactive)
REMARK    1  A    between atoms: C_1  and  C_2
REMARK    2  A    between atoms: C_7  and  C_16
REMARK    3  A    between atoms: N_11  and  S_12
REMARK    4  A    between atoms: S_12  and  C_15
REMARK    5  A    between atoms: C_16  and  C_18
REMARK    6  A    between atoms: C_18  and  N_19
REMARK    7  A    between atoms: C_22  and  C_26
REMARK    8  A    between atoms: C_22  and  C_27
REMARK    9  A    between atoms: C_30  and  C_33
REMARK   10  A    between atoms: C_33  and  C_34
REMARK   11  A    between atoms: C_33  and  C_35
REMARK   12  A    between atoms: C_33  and  C_36
REMARK                            x       y       z     vdW  Elec       q    Type
REMARK                         _______ _______ _______ _____ _____    ______ ____
ROOT
ATOM      1  N   UNL     1       4.976   4.213  -0.021  0.00  0.00    -0.216 N 
ATOM      2  C   UNL     1       5.694   4.477   1.089  0.00  0.00    +0.251 C 
ATOM      3  O   UNL     1       5.340   4.340   2.240  0.00  0.00    -0.272 OA
ATOM      4  C   UNL     1       7.037   4.981   0.598  0.00  0.00    +0.135 C 
ATOM      5  N   UNL     1       6.905   4.945  -0.869  0.00  0.00    -0.281 N 
ATOM      6  C   UNL     1       5.670   4.483  -1.133  0.00  0.00    +0.310 C 
ATOM      7  O   UNL     1       5.232   4.329  -2.256  0.00  0.00    -0.252 OA
ATOM      8  C   UNL     1       7.280   6.412   1.082  0.00  0.00    +0.047 C 
ATOM      9  H   UNL     1       7.578   5.205  -1.518  0.00  0.00    +0.152 HD
ENDROOT
BRANCH   4  10
ATOM     10  C   UNL     1       8.148   4.070   1.053  0.00  0.00    -0.015 A 
ATOM     11  C   UNL     1       8.068   3.443   2.283  0.00  0.00    +0.006 A 
ATOM     12  C   UNL     1       9.085   2.605   2.698  0.00  0.00    +0.004 A 
ATOM     13  C   UNL     1      10.187   2.400   1.888  0.00  0.00    -0.042 A 
ATOM     14  C   UNL     1      10.268   3.030   0.661  0.00  0.00    +0.004 A 
ATOM     15  C   UNL     1       9.249   3.866   0.243  0.00  0.00    +0.006 A 
BRANCH  13  16
ATOM     16  C   UNL     1      11.298   1.490   2.343  0.00  0.00    -0.013 C 
ATOM     17  C   UNL     1      12.605   2.280   2.421  0.00  0.00    +0.015 C 
ATOM     18  C   UNL     1      10.961   0.925   3.725  0.00  0.00    +0.015 C 
ATOM     19  C   UNL     1      11.455   0.339   1.347  0.00  0.00    +0.015 C 
ENDBRANCH  13  16
ENDBRANCH   4  10
BRANCH   1  20
ATOM     20  C   UNL     1       3.605   3.698  -0.011  0.00  0.00    +0.197 C 
BRANCH  20  21
ATOM     21  C   UNL     1       3.634   2.191  -0.020  0.00  0.00    +0.181 C 
ATOM     22  O   UNL     1       4.696   1.605  -0.033  0.00  0.00    -0.290 OA
BRANCH  21  28
ATOM     23  C   UNL     1      -1.037  -3.014   1.252  0.00  0.00    +0.030 C 
ATOM     24  C   UNL     1      -0.573  -2.274  -0.005  0.00  0.00    +0.099 C 
ATOM     25  C   UNL     1       0.961  -2.157  -0.019  0.00  0.00    +0.061 C 
ATOM     26  C   UNL     1       1.224  -0.667  -0.013  0.00  0.00    -0.022 A 
ATOM     27  C   UNL     1       2.397   0.033  -0.021  0.00  0.00    +0.017 A 
ATOM     28  C   UNL     1       2.377   1.433  -0.013  0.00  0.00    +0.019 A 
ATOM     29  C   UNL     1       1.147   2.105   0.002  0.00  0.00    +0.013 A 
ATOM     30  C   UNL     1      -0.017   1.397   0.010  0.00  0.00    +0.026 A 
ATOM     31  C   UNL     1       0.002  -0.004   0.002  0.00  0.00    +0.054 A 
ATOM     32  N   UNL     1      -1.064  -0.894   0.007  0.00  0.00    -0.204 N 
BRANCH  32  33
ATOM     33  S   UNL     1      -2.661  -0.458   0.026  0.00  0.00    +0.043 S 
ATOM     34  O   UNL     1      -3.330  -1.556   0.629  0.00  0.00    -0.155 OA
ATOM     35  O   UNL     1      -2.680   0.826   0.635  0.00  0.00    -0.155 OA
ATOM     36  C   UNL     1      -3.128  -0.326  -1.722  0.00  0.00    +0.218 C 
ENDBRANCH  32  33
ENDBRANCH  21  28
ENDBRANCH  20  21
ENDBRANCH   1  20
TORSDOF 6
