REMARK  Name = ZINC08753162
REMARK  8 active torsions:
REMARK  status: ('A' for Active; 'I' for Inactive)
REMARK    1  A    between atoms: C_1  and  C_2
REMARK    2  A    between atoms: C_7  and  S_10
REMARK    3  A    between atoms: S_10  and  C_11
REMARK    4  A    between atoms: C_11  and  C_13
REMARK    5  A    between atoms: C_11  and  C_14
REMARK    6  A    between atoms: N_16  and  C_17
REMARK    7  A    between atoms: N_16  and  C_18
REMARK    8  A    between atoms: C_18  and  C_24
REMARK                            x       y       z     vdW  Elec       q    Type
REMARK                         _______ _______ _______ _____ _____    ______ ____
ROOT
ATOM      1  C   UNL     1       3.616   2.170   0.981  0.00  0.00    +0.137 C 
ATOM      2  C   UNL     1       3.641   3.570   1.597  0.00  0.00    +0.029 C 
ENDROOT
BRANCH   1   3
ATOM      3  C   UNL     1       2.203   1.645   0.986  0.00  0.00    +0.230 C 
ATOM      4  O   UNL     1       1.823   0.936   1.895  0.00  0.00    -0.274 OA
ATOM      5  N   UNL     1       1.362   1.962  -0.018  0.00  0.00    -0.285 N 
ATOM      6  C   UNL     1       1.821   2.817  -1.115  0.00  0.00    +0.133 C 
BRANCH   5   7
ATOM      7  C   UNL     1      -0.011   1.451  -0.013  0.00  0.00    +0.124 C 
ATOM      8  C   UNL     1      -0.733   1.943   1.243  0.00  0.00    +0.041 C 
ATOM      9  C   UNL     1      -2.167   1.409   1.249  0.00  0.00    +0.003 C 
ATOM     10  C   UNL     1      -2.904   1.914   0.006  0.00  0.00    +0.000 C 
ATOM     11  C   UNL     1      -2.182   1.421  -1.250  0.00  0.00    +0.003 C 
ATOM     12  C   UNL     1      -0.748   1.955  -1.255  0.00  0.00    +0.041 C 
BRANCH   7  13
ATOM     13  C   UNL     1       0.013  -0.021  -0.020  0.00  0.00    +0.089 C 
ATOM     14  N   UNL     1       0.032  -1.157  -0.025  0.00  0.00    -0.194 NA
ENDBRANCH   7  13
ENDBRANCH   5   7
ENDBRANCH   1   3
BRANCH   1  15
ATOM     15  S   UNL     1       4.674   1.065   1.948  0.00  0.00    -0.074 S 
BRANCH  15  22
ATOM     16  C   UNL     1       9.813   1.177   2.641  0.00  0.00    +0.066 C 
ATOM     17  C   UNL     1       8.594   1.803   2.012  0.00  0.00    +0.044 A 
ATOM     18  C   UNL     1       8.715   2.898   1.237  0.00  0.00    +0.066 A 
ATOM     19  C   UNL     1       7.499   3.468   0.640  0.00  0.00    +0.121 A 
ATOM     20  N   UNL     1       7.567   4.540  -0.127  0.00  0.00    -0.343 N 
ATOM     21  N   UNL     1       6.311   2.878   0.889  0.00  0.00    -0.207 NA
ATOM     22  C   UNL     1       6.244   1.810   1.654  0.00  0.00    +0.191 A 
ATOM     23  N   UNL     1       7.353   1.264   2.224  0.00  0.00    -0.227 NA
ATOM     24  H   UNL     1       6.651   4.959  -0.569  0.00  0.00    +0.144 HD
ATOM     25  H   UNL     1       8.540   5.014  -0.324  0.00  0.00    +0.144 HD
ENDBRANCH  15  22
ENDBRANCH   1  15
TORSDOF 5
