REMARK  Name = ZINC08644911
REMARK  6 active torsions:
REMARK  status: ('A' for Active; 'I' for Inactive)
REMARK    1  A    between atoms: C_1  and  C_2
REMARK    2  A    between atoms: C_2  and  C_4
REMARK    3  A    between atoms: C_2  and  S_14
REMARK    4  A    between atoms: S_14  and  C_15
REMARK    5  A    between atoms: C_18  and  C_21
REMARK    6  A    between atoms: N_19  and  N_20
REMARK                            x       y       z     vdW  Elec       q    Type
REMARK                         _______ _______ _______ _____ _____    ______ ____
ROOT
ATOM      1  C   UNL     1       2.048   0.593  -0.021  0.00  0.00    +0.209 A 
ATOM      2  N   UNL     1       1.216  -0.424  -0.019  0.00  0.00    -0.121 NA
ATOM      3  N   UNL     1       0.002  -0.001  -0.006  0.00  0.00    -0.127 NA
ATOM      4  C   UNL     1      -0.015   1.311  -0.000  0.00  0.00    +0.183 A 
ATOM      5  N   UNL     1       1.295   1.732  -0.009  0.00  0.00    -0.224 N 
ENDROOT
BRANCH   4   6
ATOM      6  C   UNL     1      -1.215   2.174   0.009  0.00  0.00    +0.039 A 
ATOM      7  C   UNL     1      -1.080   3.563   0.020  0.00  0.00    +0.014 A 
ATOM      8  C   UNL     1      -2.203   4.363   0.023  0.00  0.00    +0.021 A 
ATOM      9  C   UNL     1      -3.465   3.791   0.026  0.00  0.00    +0.042 A 
ATOM     10  C   UNL     1      -3.607   2.414   0.020  0.00  0.00    +0.040 A 
ATOM     11  C   UNL     1      -2.490   1.603   0.011  0.00  0.00    +0.053 A 
ATOM     12 CL   UNL     1      -2.669  -0.124   0.005  0.00  0.00    -0.083 Cl
ATOM     13 CL   UNL     1      -4.873   4.806   0.038  0.00  0.00    -0.083 Cl
ENDBRANCH   4   6
BRANCH   5  14
ATOM     14  N   UNL     1       1.747   3.021  -0.007  0.00  0.00    -0.295 N 
ATOM     15  H   UNL     1       1.875   3.358   0.935  0.00  0.00    +0.163 HD
ATOM     16  H   UNL     1       2.600   3.106  -0.540  0.00  0.00    +0.163 HD
ENDBRANCH   5  14
BRANCH   1  17
ATOM     17  S   UNL     1       3.808   0.503  -0.035  0.00  0.00    -0.072 S 
BRANCH  17  19
ATOM     18  C   UNL     1       3.500  -1.880   1.263  0.00  0.00    +0.029 C 
ATOM     19  C   UNL     1       4.031  -1.293  -0.046  0.00  0.00    +0.137 C 
BRANCH  19  20
ATOM     20  C   UNL     1       5.497  -1.616  -0.183  0.00  0.00    +0.231 C 
ATOM     21  O   UNL     1       6.331  -0.814   0.179  0.00  0.00    -0.274 OA
ATOM     22  N   UNL     1       5.880  -2.797  -0.707  0.00  0.00    -0.269 N 
ATOM     23  C   UNL     1       7.232  -3.053  -0.932  0.00  0.00    +0.125 A 
ATOM     24  C   UNL     1       7.613  -4.229  -1.570  0.00  0.00    +0.045 A 
ATOM     25  C   UNL     1       8.957  -4.471  -1.788  0.00  0.00    +0.025 A 
ATOM     26  C   UNL     1       9.880  -3.526  -1.357  0.00  0.00    +0.059 A 
ATOM     27  C   UNL     1       9.430  -2.380  -0.730  0.00  0.00    +0.132 A 
ATOM     28  N   UNL     1       8.140  -2.174  -0.541  0.00  0.00    -0.239 NA
ATOM     29 CL   UNL     1      11.579  -3.781  -1.605  0.00  0.00    -0.082 Cl
ATOM     30  H   UNL     1       5.216  -3.468  -0.928  0.00  0.00    +0.156 HD
ENDBRANCH  19  20
ENDBRANCH  17  19
ENDBRANCH   1  17
TORSDOF 5
