REMARK  Name = ZINC39769628
REMARK  6 active torsions:
REMARK  status: ('A' for Active; 'I' for Inactive)
REMARK    1  A    between atoms: C_1  and  C_2
REMARK    2  A    between atoms: C_6  and  C_9
REMARK    3  A    between atoms: C_7  and  O_8
REMARK    4  A    between atoms: N_10  and  N_11
REMARK    5  A    between atoms: C_12  and  C_14
REMARK    6  A    between atoms: C_17  and  C_20
REMARK                            x       y       z     vdW  Elec       q    Type
REMARK                         _______ _______ _______ _____ _____    ______ ____
ROOT
ATOM      1  N   UNL     1       0.065  -2.938   4.788  0.00  0.00    -0.205 N 
ATOM      2  C   UNL     1       0.062  -2.279   5.964  0.00  0.00    +0.263 C 
ATOM      3  O   UNL     1       0.046  -1.066   5.979  0.00  0.00    -0.271 OA
ATOM      4  H   UNL     1       0.078  -3.908   4.776  0.00  0.00    +0.177 HD
ENDROOT
BRANCH   2   5
ATOM      5  C   UNL     1       0.078  -3.049   7.259  0.00  0.00    +0.240 C 
ATOM      6  C   UNL     1       1.494  -3.467   7.616  0.00  0.00    +0.041 C 
ATOM      7  C   UNL     1       1.726  -2.850   8.790  0.00  0.00    +0.092 C 
ATOM      8  N   UNL     1       0.640  -2.127   9.169  0.00  0.00    -0.153 NA
ATOM      9  N   UNL     1      -0.314  -2.183   8.384  0.00  0.00    -0.170 NA
BRANCH   7  10
ATOM     10  C   UNL     1       2.990  -2.946   9.562  0.00  0.00    +0.002 A 
ATOM     11  C   UNL     1       4.048  -3.713   9.078  0.00  0.00    +0.010 A 
ATOM     12  C   UNL     1       5.221  -3.799   9.800  0.00  0.00    +0.001 A 
ATOM     13  C   UNL     1       5.348  -3.124  11.001  0.00  0.00    +0.000 A 
ATOM     14  C   UNL     1       4.302  -2.361  11.485  0.00  0.00    +0.001 A 
ATOM     15  C   UNL     1       3.126  -2.264  10.769  0.00  0.00    +0.010 A 
ENDBRANCH   7  10
ENDBRANCH   2   5
BRANCH   1  17
ATOM     16  C   UNL     1       0.052  -2.857   2.452  0.00  0.00    +0.142 C 
ATOM     17  N   UNL     1       0.050  -2.222   3.584  0.00  0.00    -0.188 NA
BRANCH  16  23
ATOM     18  C   UNL     1      -0.018   1.503   0.010  0.00  0.00    +0.047 C 
ATOM     19  C   UNL     1       0.002  -0.004   0.002  0.00  0.00    -0.008 A 
ATOM     20  C   UNL     1       0.006  -0.688  -1.200  0.00  0.00    +0.007 A 
ATOM     21  C   UNL     1       0.024  -2.071  -1.218  0.00  0.00    +0.001 A 
ATOM     22  C   UNL     1       0.039  -2.782  -0.035  0.00  0.00    +0.013 A 
ATOM     23  C   UNL     1       0.036  -2.104   1.185  0.00  0.00    +0.036 A 
ATOM     24  C   UNL     1       0.023  -0.702   1.198  0.00  0.00    +0.128 A 
BRANCH  24  25
ATOM     25  O   UNL     1       0.025  -0.031   2.379  0.00  0.00    -0.506 OA
ATOM     26  H   UNL     1      -0.857   0.151   2.729  0.00  0.00    +0.292 HD
ENDBRANCH  24  25
ENDBRANCH  16  23
ENDBRANCH   1  17
TORSDOF 5
