REMARK  Name = ZINC20764095
REMARK  8 active torsions:
REMARK  status: ('A' for Active; 'I' for Inactive)
REMARK    1  A    between atoms: C_1  and  C_2
REMARK    2  A    between atoms: C_2  and  O_3
REMARK    3  A    between atoms: O_3  and  C_4
REMARK    4  A    between atoms: C_8  and  C_11
REMARK    5  A    between atoms: C_9  and  O_10
REMARK    6  A    between atoms: C_14  and  C_29
REMARK    7  A    between atoms: C_16  and  C_19
REMARK    8  A    between atoms: C_22  and  C_25
REMARK                            x       y       z     vdW  Elec       q    Type
REMARK                         _______ _______ _______ _____ _____    ______ ____
ROOT
ATOM      1  C   UNL     1      -3.809  -1.064   0.405  0.00  0.00    -0.028 C 
ATOM      2  C   UNL     1      -2.441  -0.497   0.005  0.00  0.00    +0.044 C 
ATOM      3  C   UNL     1      -2.500   1.006   0.019  0.00  0.00    +0.040 C 
ATOM      4  N   UNL     1      -3.599   1.662   0.028  0.00  0.00    -0.299 NA
ATOM      5  C   UNL     1      -4.920   1.046   0.041  0.00  0.00    +0.081 C 
ATOM      6  N   UNL     1      -4.841  -0.359  -0.375  0.00  0.00    +0.401 N 
ATOM      7  H   UNL     1      -4.586  -0.404  -1.444  0.00  0.00    -0.081 HD
ATOM      8  H   UNL     1      -5.817  -0.839  -0.210  0.00  0.00    -0.081 HD
ENDROOT
BRANCH   3   9
ATOM      9  C   UNL     1      -1.232   1.758   0.017  0.00  0.00    -0.001 A 
ATOM     10  C   UNL     1      -0.013   1.076   0.008  0.00  0.00    +0.013 A 
ATOM     11  C   UNL     1       1.171   1.781   0.000  0.00  0.00    +0.050 A 
ATOM     12  C   UNL     1       1.158   3.169   0.007  0.00  0.00    +0.166 A 
ATOM     13  C   UNL     1      -0.056   3.856   0.022  0.00  0.00    +0.167 A 
ATOM     14  C   UNL     1      -1.246   3.155   0.030  0.00  0.00    +0.059 A 
ATOM     15  O   UNL     1       0.202   5.197   0.025  0.00  0.00    -0.453 OA
ATOM     16  C   UNL     1       1.572   5.325  -0.400  0.00  0.00    +0.466 C 
ATOM     17  O   UNL     1       2.173   4.080   0.002  0.00  0.00    -0.453 OA
ENDBRANCH   3   9
BRANCH   1  22
ATOM     18  C   UNL     1      -3.435  -4.816   0.737  0.00  0.00    +0.162 A 
ATOM     19  C   UNL     1      -3.948  -5.248  -0.475  0.00  0.00    +0.049 A 
ATOM     20  C   UNL     1      -4.413  -4.328  -1.396  0.00  0.00    +0.004 A 
ATOM     21  C   UNL     1      -4.373  -2.976  -1.108  0.00  0.00    +0.006 A 
ATOM     22  C   UNL     1      -3.857  -2.538   0.097  0.00  0.00    -0.016 A 
ATOM     23  C   UNL     1      -3.389  -3.455   1.025  0.00  0.00    +0.160 A 
BRANCH  23  24
ATOM     24  O   UNL     1      -2.887  -3.026   2.213  0.00  0.00    -0.503 OA
ATOM     25  H   UNL     1      -2.851  -1.950   2.439  0.00  0.00    +0.292 HD
ENDBRANCH  23  24
BRANCH  18  26
ATOM     26  O   UNL     1      -2.977  -5.720   1.644  0.00  0.00    -0.489 OA
BRANCH  26  28
ATOM     27  C   UNL     1      -2.497  -7.958   2.418  0.00  0.00    +0.048 C 
ATOM     28  C   UNL     1      -3.055  -7.100   1.282  0.00  0.00    +0.226 C 
ENDBRANCH  26  28
ENDBRANCH  18  26
ENDBRANCH   1  22
BRANCH   5  29
ATOM     29  C   UNL     1      -5.826   1.794  -0.903  0.00  0.00    -0.040 A 
ATOM     30  C   UNL     1      -6.851   1.128  -1.550  0.00  0.00    +0.004 A 
ATOM     31  C   UNL     1      -7.685   1.815  -2.412  0.00  0.00    +0.012 A 
ATOM     32  C   UNL     1      -7.488   3.165  -2.635  0.00  0.00    +0.055 A 
ATOM     33  C   UNL     1      -6.460   3.829  -1.993  0.00  0.00    +0.012 A 
ATOM     34  C   UNL     1      -5.629   3.143  -1.126  0.00  0.00    +0.004 A 
BRANCH  32  35
ATOM     35  C   UNL     1      -8.394   3.912  -3.579  0.00  0.00    +0.417 C 
ATOM     36  F   UNL     1      -7.865   3.859  -4.873  0.00  0.00    -0.166 F 
ATOM     37  F   UNL     1      -9.664   3.324  -3.571  0.00  0.00    -0.166 F 
ATOM     38  F   UNL     1      -8.495   5.246  -3.171  0.00  0.00    -0.166 F 
ENDBRANCH  32  35
ENDBRANCH   5  29
TORSDOF 7
