REMARK  Name = ZINC19760126
REMARK  9 active torsions:
REMARK  status: ('A' for Active; 'I' for Inactive)
REMARK    1  A    between atoms: C_4  and  C_7
REMARK    2  A    between atoms: C_7  and  C_8
REMARK    3  A    between atoms: C_8  and  C_9
REMARK    4  A    between atoms: C_9  and  N_10
REMARK    5  A    between atoms: C_16  and  C_18
REMARK    6  A    between atoms: C_18  and  C_19
REMARK    7  A    between atoms: N_21  and  C_22
REMARK    8  A    between atoms: C_22  and  C_23
REMARK    9  A    between atoms: C_26  and  C_29
REMARK                            x       y       z     vdW  Elec       q    Type
REMARK                         _______ _______ _______ _____ _____    ______ ____
ROOT
ATOM      1  N   UNL     1      -5.421  -2.550   2.470  0.00  0.00    +0.389 N 
ATOM      2  C   UNL     1      -6.695  -3.199   2.818  0.00  0.00    -0.059 C 
ATOM      3  C   UNL     1      -6.960  -2.991   4.311  0.00  0.00    +0.085 C 
ATOM      4  N   UNL     1      -5.782  -3.369   5.086  0.00  0.00    -0.318 N 
ATOM      5  C   UNL     1      -4.564  -3.486   4.547  0.00  0.00    +0.200 C 
ATOM      6  O   UNL     1      -3.634  -3.775   5.270  0.00  0.00    -0.278 OA
ATOM      7  C   UNL     1      -4.299  -3.274   3.083  0.00  0.00    +0.028 C 
ATOM      8  H   UNL     1      -5.875  -3.573   6.163  0.00  0.00    +0.149 HD
ATOM      9  H   UNL     1      -5.430  -1.524   2.865  0.00  0.00    -0.081 HD
ENDROOT
BRANCH   1  10
ATOM     10  C   UNL     1      -5.256  -2.462   1.013  0.00  0.00    -0.077 C 
BRANCH  10  11
ATOM     11  C   UNL     1      -5.338  -3.863   0.404  0.00  0.00    -0.014 C 
BRANCH  11  12
ATOM     12  C   UNL     1      -5.196  -3.768  -1.116  0.00  0.00    +0.033 C 
BRANCH  12  16
ATOM     13  C   UNL     1      -5.422  -7.681  -2.815  0.00  0.00    +0.000 A 
ATOM     14  C   UNL     1      -6.573  -6.934  -2.644  0.00  0.00    +0.000 A 
ATOM     15  C   UNL     1      -6.500  -5.668  -2.094  0.00  0.00    +0.003 A 
ATOM     16  C   UNL     1      -5.276  -5.149  -1.715  0.00  0.00    -0.047 A 
ATOM     17  C   UNL     1      -4.125  -5.893  -1.891  0.00  0.00    +0.003 A 
ATOM     18  C   UNL     1      -4.198  -7.162  -2.437  0.00  0.00    +0.000 A 
ENDBRANCH  12  16
ENDBRANCH  11  12
ENDBRANCH  10  11
ENDBRANCH   1  10
BRANCH   7  19
ATOM     19  C   UNL     1      -3.015  -2.459   2.913  0.00  0.00    +0.089 C 
BRANCH  19  20
ATOM     20  C   UNL     1      -3.196  -1.099   3.536  0.00  0.00    +0.212 C 
ATOM     21  O   UNL     1      -4.279  -0.773   3.975  0.00  0.00    -0.276 OA
ATOM     22  N   UNL     1      -2.155  -0.246   3.605  0.00  0.00    -0.308 N 
ATOM     23  H   UNL     1      -1.174  -0.542   3.207  0.00  0.00    +0.149 HD
BRANCH  22  24
ATOM     24  C   UNL     1      -2.331   1.076   4.211  0.00  0.00    +0.182 C 
BRANCH  24  25
ATOM     25  C   UNL     1      -1.026   1.828   4.164  0.00  0.00    +0.168 A 
ATOM     26  N   UNL     1      -0.643   2.716   3.207  0.00  0.00    -0.210 NA
ATOM     27  H   UNL     1       1.879   2.709   5.177  0.00  0.00    +0.191 HD
ATOM     28  C   UNL     1       0.605   3.143   3.574  0.00  0.00    +0.156 A 
ATOM     29  N   UNL     1       0.911   2.521   4.690  0.00  0.00    -0.258 N 
ATOM     30  N   UNL     1      -0.056   1.747   5.035  0.00  0.00    -0.156 NA
BRANCH  28  31
ATOM     31  C   UNL     1       1.449   4.120   2.850  0.00  0.00    +0.019 A 
ATOM     32  C   UNL     1       0.992   4.698   1.665  0.00  0.00    +0.011 A 
ATOM     33  C   UNL     1       1.782   5.611   0.998  0.00  0.00    +0.001 A 
ATOM     34  C   UNL     1       3.029   5.946   1.496  0.00  0.00    +0.000 A 
ATOM     35  C   UNL     1       3.489   5.373   2.667  0.00  0.00    +0.001 A 
ATOM     36  C   UNL     1       2.707   4.462   3.347  0.00  0.00    +0.011 A 
ENDBRANCH  28  31
ENDBRANCH  24  25
ENDBRANCH  22  24
ENDBRANCH  19  20
ENDBRANCH   7  19
TORSDOF 9
