REMARK  Name = ZINC32980983
REMARK  8 active torsions:
REMARK  status: ('A' for Active; 'I' for Inactive)
REMARK    1  A    between atoms: C_1  and  C_2
REMARK    2  A    between atoms: C_14  and  C_15
REMARK    3  A    between atoms: N_19  and  C_20
REMARK    4  A    between atoms: C_20  and  C_21
REMARK    5  A    between atoms: C_21  and  O_22
REMARK    6  A    between atoms: O_22  and  C_23
REMARK    7  A    between atoms: C_27  and  O_29
REMARK    8  A    between atoms: O_29  and  C_30
REMARK                            x       y       z     vdW  Elec       q    Type
REMARK                         _______ _______ _______ _____ _____    ______ ____
ROOT
ATOM      1  C   UNL     1      -1.267   3.186   4.578  0.00  0.00    +0.007 C 
ATOM      2  C   UNL     1      -0.840   1.842   3.985  0.00  0.00    -0.011 C 
ATOM      3  C   UNL     1      -2.052   1.157   3.350  0.00  0.00    +0.022 C 
ATOM      4  C   UNL     1      -1.614  -0.172   2.727  0.00  0.00    +0.107 C 
ATOM      5  N   UNL     1      -0.936  -0.975   3.754  0.00  0.00    -0.308 N 
ATOM      6  C   UNL     1       0.187  -0.379   4.490  0.00  0.00    +0.107 C 
ATOM      7  C   UNL     1      -0.271   0.953   5.093  0.00  0.00    +0.022 C 
ATOM      8  C   UNL     1      -1.347  -2.271   4.023  0.00  0.00    +0.182 C 
ATOM      9  N   UNL     1      -0.869  -3.121   4.897  0.00  0.00    -0.149 NA
ATOM     10  N   UNL     1      -1.415  -4.379   5.037  0.00  0.00    -0.150 N 
ATOM     11  C   UNL     1      -1.041  -5.334   6.004  0.00  0.00    +0.153 C 
ATOM     12  N   UNL     1      -0.451  -5.024   7.130  0.00  0.00    -0.283 NA
ATOM     13  C   UNL     1      -1.384  -6.730   5.619  0.00  0.00    +0.082 C 
ATOM     14  C   UNL     1      -0.596  -7.805   5.995  0.00  0.00    +0.042 C 
ATOM     15  C   UNL     1      -2.613  -6.909   4.813  0.00  0.00    +0.273 C 
ATOM     16  O   UNL     1      -3.225  -7.966   4.826  0.00  0.00    -0.268 OA
ATOM     17  N   UNL     1      -3.037  -5.871   4.064  0.00  0.00    -0.152 NA
ATOM     18  C   UNL     1      -2.432  -4.715   4.172  0.00  0.00    +0.182 C 
ATOM     19  S   UNL     1      -2.672  -3.206   3.272  0.00  0.00    -0.018 S 
ATOM     20  H   UNL     1      -0.185  -4.107   7.302  0.00  0.00    +0.188 HD
ENDROOT
BRANCH  14  21
ATOM     21  C   UNL     1       0.731  -7.591   6.417  0.00  0.00    +0.043 A 
ATOM     22  C   UNL     1       1.432  -6.396   6.349  0.00  0.00    +0.027 A 
ATOM     23  C   UNL     1       2.703  -6.637   6.873  0.00  0.00    +0.020 A 
ATOM     24  C   UNL     1       2.762  -7.941   7.245  0.00  0.00    +0.086 A 
ATOM     25  N   UNL     1       1.570  -8.530   6.978  0.00  0.00    -0.344 N 
BRANCH  25  26
ATOM     26  C   UNL     1       1.232  -9.932   7.240  0.00  0.00    +0.162 C 
BRANCH  26  27
ATOM     27  C   UNL     1       1.356 -10.737   5.944  0.00  0.00    +0.250 C 
BRANCH  27  28
ATOM     28  O   UNL     1       0.915 -12.077   6.172  0.00  0.00    -0.490 OA
BRANCH  28  29
ATOM     29  C   UNL     1       0.960 -12.929   5.115  0.00  0.00    +0.124 A 
ATOM     30  C   UNL     1       1.425 -12.486   3.885  0.00  0.00    +0.046 A 
ATOM     31  C   UNL     1       1.472 -13.353   2.810  0.00  0.00    +0.007 A 
ATOM     32  C   UNL     1       1.055 -14.662   2.956  0.00  0.00    +0.046 A 
ATOM     33  C   UNL     1       0.589 -15.110   4.184  0.00  0.00    +0.124 A 
ATOM     34  C   UNL     1       0.547 -14.244   5.266  0.00  0.00    +0.091 A 
BRANCH  33  35
ATOM     35  O   UNL     1       0.179 -16.398   4.327  0.00  0.00    -0.495 OA
ATOM     36  C   UNL     1       0.256 -17.235   3.172  0.00  0.00    +0.277 C 
ENDBRANCH  33  35
ENDBRANCH  28  29
ENDBRANCH  27  28
ENDBRANCH  26  27
ENDBRANCH  25  26
ENDBRANCH  14  21
TORSDOF 6
