REMARK  Name = ZINC06416589
REMARK  6 active torsions:
REMARK  status: ('A' for Active; 'I' for Inactive)
REMARK    1  A    between atoms: C_1  and  C_2
REMARK    2  A    between atoms: N_11  and  CA_12
REMARK    3  A    between atoms: CA_12  and  CB_14
REMARK    4  A    between atoms: CA_12  and  C_17
REMARK    5  A    between atoms: CB_14  and  CG1_15
REMARK    6  A    between atoms: CB_14  and  CG2_16
REMARK                            x       y       z     vdW  Elec       q    Type
REMARK                         _______ _______ _______ _____ _____    ______ ____
ROOT
ATOM      1  C   UNK A   0       0.565  -2.025  -1.146  0.00  0.00    +0.028 C 
ATOM      2  C   UNK A   0       0.572  -0.498  -1.244  0.00  0.00    +0.074 C 
ATOM      3  C   UNK A   0      -0.065   0.100   0.014  0.00  0.00    +0.022 C 
ATOM      4  C   UNK A   0       0.067   1.624  -0.028  0.00  0.00    +0.003 C 
ATOM      5  C   UNK A   0       1.548   2.009  -0.049  0.00  0.00    +0.019 C 
ATOM      6  C   UNK A   0       2.204   1.432  -1.308  0.00  0.00    +0.109 C 
ATOM      7  N   UNK A   0       1.956  -0.015  -1.349  0.00  0.00    -0.283 N 
ATOM      8  C   UNK A   0       2.978  -0.883  -1.480  0.00  0.00    +0.303 C 
ATOM      9  O   UNK A   0       2.754  -2.070  -1.620  0.00  0.00    -0.253 OA
ATOM     10  N   VAL A   1       4.250  -0.436  -1.456  0.00  0.00    -0.286 N 
ATOM     11  H   VAL A   1       4.431   0.498  -1.270  0.00  0.00    +0.151 HD
ENDROOT
BRANCH  10  12
ATOM     12  CA  VAL A   1       5.357  -1.361  -1.710  0.00  0.00    +0.190 C 
BRANCH  12  13
ATOM     13  CB  VAL A   1       6.628  -0.830  -1.045  0.00  0.00    +0.014 C 
ATOM     14  CG1 VAL A   1       6.402  -0.708   0.463  0.00  0.00    +0.009 C 
ATOM     15  CG2 VAL A   1       7.784  -1.796  -1.311  0.00  0.00    +0.009 C 
ENDBRANCH  12  13
BRANCH  12  16
ATOM     16  C   VAL A   1       5.579  -1.481  -3.196  0.00  0.00    +0.376 C 
ATOM     17  O   VAL A   1       4.885  -0.858  -3.963  0.00  0.00    -0.244 OA
ATOM     18  OXT VAL A   1       6.550  -2.280  -3.667  0.00  0.00    -0.244 OA
ENDBRANCH  12  16
ENDBRANCH  10  12
TORSDOF 3
