REMARK  Name = ZINC49803822
REMARK  10 active torsions:
REMARK  status: ('A' for Active; 'I' for Inactive)
REMARK    1  A    between atoms: C_1  and  N_2
REMARK    2  A    between atoms: C_13  and  C_16
REMARK    3  A    between atoms: C_14  and  O_15
REMARK    4  A    between atoms: C_16  and  N_17
REMARK    5  A    between atoms: N_17  and  C_18
REMARK    6  A    between atoms: N_17  and  C_34
REMARK    7  A    between atoms: C_18  and  C_19
REMARK    8  A    between atoms: C_24  and  O_25
REMARK    9  A    between atoms: N_32  and  C_33
REMARK   10  A    between atoms: C_34  and  C_35
REMARK                            x       y       z     vdW  Elec       q    Type
REMARK                         _______ _______ _______ _____ _____    ______ ____
ROOT
ATOM      1  N   UNL     1       1.654  -4.195   4.126  0.00  0.00    +0.389 N 
ATOM      2  H   UNL     1       2.194  -3.361   4.298  0.00  0.00    -0.080 HD
ENDROOT
BRANCH   1   3
ATOM      3  C   UNL     1       0.222  -3.874   4.189  0.00  0.00    -0.038 C 
BRANCH   3  16
ATOM      4  C   UNL     1      -1.470  -1.568  10.302  0.00  0.00    +0.149 C 
ATOM      5  N   UNL     1      -0.827  -1.177   9.045  0.00  0.00    -0.343 N 
ATOM      6  C   UNL     1      -0.289   0.071   8.786  0.00  0.00    +0.050 A 
ATOM      7  C   UNL     1      -0.197   1.229   9.552  0.00  0.00    +0.026 A 
ATOM      8  C   UNL     1       0.404   2.355   9.031  0.00  0.00    +0.002 A 
ATOM      9  C   UNL     1       0.921   2.348   7.745  0.00  0.00    +0.001 A 
ATOM     10  C   UNL     1       0.840   1.210   6.971  0.00  0.00    +0.011 A 
ATOM     11  C   UNL     1       0.235   0.065   7.485  0.00  0.00    +0.011 A 
ATOM     12  C   UNL     1      -0.013  -1.282   6.941  0.00  0.00    +0.049 A 
ATOM     13  C   UNL     1      -0.665  -2.005   7.949  0.00  0.00    +0.053 A 
ATOM     14  C   UNL     1      -1.023  -3.330   7.715  0.00  0.00    +0.027 A 
ATOM     15  C   UNL     1      -0.734  -3.922   6.504  0.00  0.00    +0.007 A 
ATOM     16  C   UNL     1      -0.086  -3.211   5.507  0.00  0.00    -0.022 A 
ATOM     17  C   UNL     1       0.272  -1.890   5.715  0.00  0.00    +0.128 A 
BRANCH  17  18
ATOM     18  O   UNL     1       0.908  -1.193   4.739  0.00  0.00    -0.506 OA
ATOM     19  H   UNL     1       1.867  -1.320   4.726  0.00  0.00    +0.292 HD
ENDBRANCH  17  18
ENDBRANCH   3  16
ENDBRANCH   1   3
BRANCH   1  20
ATOM     20  C   UNL     1       1.975  -5.205   5.144  0.00  0.00    -0.038 C 
BRANCH  20  21
ATOM     21  C   UNL     1       3.463  -5.445   5.162  0.00  0.00    -0.022 A 
ATOM     22  C   UNL     1       3.993  -6.546   4.510  0.00  0.00    +0.007 A 
ATOM     23  C   UNL     1       5.352  -6.779   4.518  0.00  0.00    +0.027 A 
ATOM     24  C   UNL     1       6.208  -5.907   5.184  0.00  0.00    +0.053 A 
ATOM     25  C   UNL     1       5.674  -4.791   5.844  0.00  0.00    +0.049 A 
ATOM     26  C   UNL     1       4.296  -4.561   5.825  0.00  0.00    +0.128 A 
ATOM     27  C   UNL     1       6.814  -4.074   6.443  0.00  0.00    +0.011 A 
ATOM     28  C   UNL     1       6.923  -2.914   7.207  0.00  0.00    +0.011 A 
ATOM     29  C   UNL     1       8.163  -2.487   7.631  0.00  0.00    +0.001 A 
ATOM     30  C   UNL     1       9.301  -3.207   7.298  0.00  0.00    +0.002 A 
ATOM     31  C   UNL     1       9.207  -4.355   6.542  0.00  0.00    +0.026 A 
ATOM     32  C   UNL     1       7.964  -4.803   6.105  0.00  0.00    +0.050 A 
ATOM     33  N   UNL     1       7.581  -5.897   5.351  0.00  0.00    -0.343 N 
ATOM     34  C   UNL     1       8.498  -6.902   4.808  0.00  0.00    +0.149 C 
BRANCH  26  35
ATOM     35  O   UNL     1       3.776  -3.477   6.458  0.00  0.00    -0.506 OA
ATOM     36  H   UNL     1       3.540  -3.638   7.382  0.00  0.00    +0.292 HD
ENDBRANCH  26  35
ENDBRANCH  20  21
ENDBRANCH   1  20
BRANCH   1  37
ATOM     37  C   UNL     1       1.980  -4.722   2.794  0.00  0.00    -0.022 C 
BRANCH  37  38
ATOM     38  C   UNL     1       1.796  -3.636   1.766  0.00  0.00    +0.025 A 
ATOM     39  C   UNL     1       2.883  -2.876   1.374  0.00  0.00    +0.021 A 
ATOM     40  C   UNL     1       2.704  -1.879   0.427  0.00  0.00    +0.003 A 
ATOM     41  C   UNL     1       1.433  -1.683  -0.092  0.00  0.00    +0.020 A 
ATOM     42  C   UNL     1       0.395  -2.482   0.347  0.00  0.00    +0.111 A 
ATOM     43  N   UNL     1       0.603  -3.425   1.246  0.00  0.00    -0.262 NA
ENDBRANCH  37  38
ENDBRANCH   1  37
TORSDOF 8
