REMARK  Name = ZINC64604331
REMARK  9 active torsions:
REMARK  status: ('A' for Active; 'I' for Inactive)
REMARK    1  A    between atoms: C_1  and  C_2
REMARK    2  A    between atoms: C_5  and  C_31
REMARK    3  A    between atoms: C_6  and  N_8
REMARK    4  A    between atoms: C_9  and  C_11
REMARK    5  A    between atoms: C_11  and  C_12
REMARK    6  A    between atoms: C_12  and  C_13
REMARK    7  A    between atoms: C_15  and  C_18
REMARK    8  A    between atoms: C_18  and  S_19
REMARK    9  A    between atoms: S_19  and  C_20
REMARK                            x       y       z     vdW  Elec       q    Type
REMARK                         _______ _______ _______ _____ _____    ______ ____
ROOT
ATOM      1  C   UNL     1       0.504  -2.683   7.314  0.00  0.00    +0.228 A 
ATOM      2  N   UNL     1       1.622  -3.051   7.874  0.00  0.00    -0.195 NA
ATOM      3  C   UNL     1       1.370  -3.712   9.010  0.00  0.00    +0.182 A 
ATOM      4  N   UNL     1       0.082  -3.772   9.186  0.00  0.00    -0.060 NA
ATOM      5  O   UNL     1      -0.509  -3.096   8.086  0.00  0.00    -0.338 OA
ENDROOT
BRANCH   1   6
ATOM      6  C   UNL     1       0.374  -1.917   6.022  0.00  0.00    +0.108 C 
BRANCH   6   7
ATOM      7  C   UNL     1       0.280  -2.900   4.854  0.00  0.00    +0.105 C 
BRANCH   7   9
ATOM      8  N   UNL     1       0.052  -2.797   2.393  0.00  0.00    -0.285 N 
ATOM      9  C   UNL     1       0.150  -2.135   3.562  0.00  0.00    +0.218 C 
ATOM     10  O   UNL     1       0.134  -0.922   3.575  0.00  0.00    -0.275 OA
ATOM     11  H   UNL     1      -0.016  -3.765   2.388  0.00  0.00    +0.155 HD
BRANCH   8  17
ATOM     12  C   UNL     1       1.264   1.227  -0.158  0.00  0.00    +0.044 C 
ATOM     13  C   UNL     1       0.628  -0.137  -0.079  0.00  0.00    -0.049 A 
ATOM     14  C   UNL     1       0.039  -0.690  -1.201  0.00  0.00    +0.004 A 
ATOM     15  C   UNL     1      -0.546  -1.941  -1.133  0.00  0.00    +0.005 A 
ATOM     16  C   UNL     1      -0.543  -2.643   0.057  0.00  0.00    -0.029 A 
ATOM     17  C   UNL     1       0.048  -2.090   1.185  0.00  0.00    +0.037 A 
ATOM     18  C   UNL     1       0.639  -0.835   1.112  0.00  0.00    +0.027 A 
ATOM     19  C   UNL     1      -1.181  -4.006   0.131  0.00  0.00    +0.045 C 
ENDBRANCH   8  17
ENDBRANCH   7   9
ENDBRANCH   6   7
ENDBRANCH   1   6
BRANCH   3  20
ATOM     20  C   UNL     1       2.409  -4.293   9.934  0.00  0.00    +0.152 C 
BRANCH  20  21
ATOM     21  S   UNL     1       2.877  -3.053  11.173  0.00  0.00    -0.107 S 
BRANCH  21  22
ATOM     22  C   UNL     1       4.116  -3.898  12.193  0.00  0.00    +0.236 C 
ATOM     23  N   UNL     1       5.235  -4.349  11.356  0.00  0.00    -0.355 N 
ATOM     24  C   UNL     1       5.300  -5.645  11.455  0.00  0.00    +0.061 A 
ATOM     25  C   UNL     1       6.194  -6.648  10.860  0.00  0.00    +0.029 A 
ATOM     26  C   UNL     1       6.018  -7.952  11.151  0.00  0.00    +0.022 A 
ATOM     27  C   UNL     1       5.001  -8.406  12.012  0.00  0.00    +0.043 A 
ATOM     28  C   UNL     1       4.128  -7.569  12.611  0.00  0.00    +0.047 A 
ATOM     29  C   UNL     1       4.225  -6.125  12.365  0.00  0.00    +0.062 A 
ATOM     30  N   UNL     1       3.536  -5.105  12.795  0.00  0.00    -0.355 N 
ATOM     31 CL   UNL     1       4.866 -10.110  12.317  0.00  0.00    -0.083 Cl
ATOM     32  H   UNL     1       5.819  -3.784  10.826  0.00  0.00    +0.162 HD
ATOM     33  H   UNL     1       2.779  -5.137  13.402  0.00  0.00    +0.162 HD
ENDBRANCH  21  22
ENDBRANCH  20  21
ENDBRANCH   3  20
TORSDOF 7
