REMARK  Name = ZINC39612393
REMARK  7 active torsions:
REMARK  status: ('A' for Active; 'I' for Inactive)
REMARK    1  A    between atoms: C_7  and  C_10
REMARK    2  A    between atoms: C_13  and  S_16
REMARK    3  A    between atoms: S_16  and  C_17
REMARK    4  A    between atoms: C_17  and  C_18
REMARK    5  A    between atoms: N_20  and  C_21
REMARK    6  A    between atoms: C_24  and  S_27
REMARK    7  A    between atoms: S_27  and  N_30
REMARK                            x       y       z     vdW  Elec       q    Type
REMARK                         _______ _______ _______ _____ _____    ______ ____
ROOT
ATOM      1  C   UNL     1      -0.050  -5.838   4.144  0.00  0.00    +0.227 C 
ATOM      2  O   UNL     1      -0.169  -7.045   4.155  0.00  0.00    -0.275 OA
ATOM      3  N   UNL     1       0.048  -5.160   5.304  0.00  0.00    -0.285 N 
ATOM      4  H   UNL     1       0.209  -4.203   5.295  0.00  0.00    +0.155 HD
ENDROOT
BRANCH   3   5
ATOM      5  C   UNL     1      -0.085  -5.835   6.522  0.00  0.00    +0.034 A 
ATOM      6  C   UNL     1      -0.701  -5.212   7.600  0.00  0.00    +0.025 A 
ATOM      7  C   UNL     1      -0.830  -5.881   8.801  0.00  0.00    +0.030 A 
ATOM      8  C   UNL     1      -0.346  -7.170   8.932  0.00  0.00    +0.106 A 
ATOM      9  C   UNL     1       0.268  -7.793   7.861  0.00  0.00    +0.030 A 
ATOM     10  C   UNL     1       0.395  -7.131   6.655  0.00  0.00    +0.025 A 
BRANCH   8  11
ATOM     11  S   UNL     1      -0.513  -8.020  10.466  0.00  0.00    +0.061 S 
ATOM     12  O   UNL     1       0.506  -9.010  10.494  0.00  0.00    -0.153 OA
ATOM     13  O   UNL     1      -0.635  -7.023  11.472  0.00  0.00    -0.153 OA
BRANCH  11  14
ATOM     14  N   UNL     1      -1.958  -8.828  10.424  0.00  0.00    -0.177 NA
ATOM     15  C   UNL     1      -3.191  -8.183  10.895  0.00  0.00    +0.109 C 
ATOM     16  C   UNL     1      -4.247  -8.270   9.788  0.00  0.00    +0.017 C 
ATOM     17  C   UNL     1      -4.423  -9.731   9.370  0.00  0.00    +0.003 C 
ATOM     18  C   UNL     1      -3.100 -10.268   8.818  0.00  0.00    +0.017 C 
ATOM     19  C   UNL     1      -2.032 -10.202   9.908  0.00  0.00    +0.109 C 
ENDBRANCH  11  14
ENDBRANCH   8  11
ENDBRANCH   3   5
BRANCH   1  20
ATOM     20  C   UNL     1      -0.012  -5.097   2.832  0.00  0.00    +0.170 C 
BRANCH  20  21
ATOM     21  S   UNL     1      -0.165  -6.279   1.465  0.00  0.00    -0.087 S 
BRANCH  21  25
ATOM     22  C   UNL     1       0.704  -3.136  -0.020  0.00  0.00    +0.238 C 
ATOM     23  N   UNL     1      -0.597  -3.006  -0.016  0.00  0.00    -0.145 NA
ATOM     24  N   UNL     1      -1.207  -4.269  -0.017  0.00  0.00    -0.219 N 
ATOM     25  C   UNL     1      -0.102  -5.242  -0.022  0.00  0.00    +0.339 C 
ATOM     26  O   UNL     1       1.085  -4.436  -0.029  0.00  0.00    -0.443 OA
ATOM     27  H   UNL     1      -2.158  -4.461  -0.014  0.00  0.00    +0.173 HD
BRANCH  22  34
ATOM     28  C   UNL     1       0.043   1.352   0.007  0.00  0.00    +0.001 A 
ATOM     29  C   UNL     1       1.228   2.091   0.003  0.00  0.00    +0.002 A 
ATOM     30  C   UNL     1       2.444   1.493  -0.009  0.00  0.00    +0.026 A 
ATOM     31  C   UNL     1       2.533   0.077  -0.017  0.00  0.00    +0.043 A 
ATOM     32  N   UNL     1       3.575  -0.732  -0.029  0.00  0.00    -0.380 N 
ATOM     33  C   UNL     1       3.110  -2.122  -0.032  0.00  0.00    +0.154 C 
ATOM     34  C   UNL     1       1.598  -2.057  -0.021  0.00  0.00    +0.043 C 
ATOM     35  C   UNL     1       1.281  -0.697  -0.012  0.00  0.00    +0.008 A 
ATOM     36  C   UNL     1       0.052  -0.006   0.000  0.00  0.00    +0.010 A 
ATOM     37  H   UNL     1       4.504  -0.450  -0.034  0.00  0.00    +0.160 HD
ENDBRANCH  22  34
ENDBRANCH  21  25
ENDBRANCH  20  21
ENDBRANCH   1  20
TORSDOF 7
