REMARK  Name = ZINC39001150
REMARK  5 active torsions:
REMARK  status: ('A' for Active; 'I' for Inactive)
REMARK    1  A    between atoms: C_3  and  C_8
REMARK    2  A    between atoms: C_5  and  O_7
REMARK    3  A    between atoms: N_9  and  N_10
REMARK    4  A    between atoms: C_11  and  C_13
REMARK    5  A    between atoms: C_16  and  C_18
REMARK                            x       y       z     vdW  Elec       q    Type
REMARK                         _______ _______ _______ _____ _____    ______ ____
ROOT
ATOM      1  N   UNL     1       4.838   4.182  -0.023  0.00  0.00    -0.202 N 
ATOM      2  C   UNL     1       4.819   5.529  -0.016  0.00  0.00    +0.280 C 
ATOM      3  O   UNL     1       3.756   6.123  -0.003  0.00  0.00    -0.267 OA
ATOM      4  H   UNL     1       5.685   3.709  -0.034  0.00  0.00    +0.178 HD
ENDROOT
BRANCH   2   5
ATOM      5  C   UNL     1       6.077   6.280  -0.025  0.00  0.00    +0.132 C 
ATOM      6  N   UNL     1       7.293   5.797  -0.045  0.00  0.00    -0.148 NA
ATOM      7  N   UNL     1       8.211   6.682  -0.047  0.00  0.00    -0.153 NA
ATOM      8  C   UNL     1       7.769   7.918  -0.030  0.00  0.00    +0.078 C 
ATOM      9  C   UNL     1       6.255   7.790  -0.019  0.00  0.00    +0.120 C 
BRANCH   8  10
ATOM     10  C   UNL     1       8.562   9.152  -0.027  0.00  0.00    +0.017 A 
ATOM     11  C   UNL     1       7.925  10.399  -0.001  0.00  0.00    +0.012 A 
ATOM     12  C   UNL     1       8.676  11.553   0.002  0.00  0.00    +0.021 A 
ATOM     13  C   UNL     1      10.061  11.483  -0.022  0.00  0.00    +0.042 A 
ATOM     14  C   UNL     1      10.701  10.255  -0.048  0.00  0.00    +0.040 A 
ATOM     15  C   UNL     1       9.963   9.089  -0.046  0.00  0.00    +0.051 A 
ATOM     16 CL   UNL     1      10.766   7.550  -0.071  0.00  0.00    -0.083 Cl
ATOM     17 CL   UNL     1      10.999  12.945  -0.019  0.00  0.00    -0.083 Cl
ENDBRANCH   8  10
ENDBRANCH   2   5
BRANCH   1  19
ATOM     18  C   UNL     1       3.654   2.166  -0.022  0.00  0.00    +0.138 C 
ATOM     19  N   UNL     1       3.635   3.464  -0.015  0.00  0.00    -0.187 NA
BRANCH  18  22
ATOM     20  C   UNL     1      -0.017   1.378   0.010  0.00  0.00    +0.004 A 
ATOM     21  C   UNL     1       1.166   2.089   0.002  0.00  0.00    +0.010 A 
ATOM     22  C   UNL     1       2.387   1.411  -0.013  0.00  0.00    -0.002 A 
ATOM     23  C   UNL     1       2.404   0.014  -0.021  0.00  0.00    +0.054 A 
ATOM     24  C   UNL     1       1.211  -0.688  -0.013  0.00  0.00    +0.117 A 
ATOM     25  C   UNL     1       0.002  -0.004   0.002  0.00  0.00    +0.045 A 
BRANCH  24  26
ATOM     26  O   UNL     1       1.222  -2.047  -0.021  0.00  0.00    -0.507 OA
ATOM     27  H   UNL     1       1.234  -2.445   0.860  0.00  0.00    +0.292 HD
ENDBRANCH  24  26
ENDBRANCH  18  22
ENDBRANCH   1  19
TORSDOF 5
