REMARK  Name = ZINC09845979
REMARK  5 active torsions:
REMARK  status: ('A' for Active; 'I' for Inactive)
REMARK    1  A    between atoms: C_6  and  C_7
REMARK    2  A    between atoms: C_7  and  N_8
REMARK    3  A    between atoms: C_12  and  C_13
REMARK    4  A    between atoms: C_16  and  C_18
REMARK    5  A    between atoms: C_21  and  N_25
REMARK                            x       y       z     vdW  Elec       q    Type
REMARK                         _______ _______ _______ _____ _____    ______ ____
ROOT
ATOM      1  N   UNL     1       4.578  -2.842  -0.055  0.00  0.00    -0.216 N 
ATOM      2  C   UNL     1       3.542  -1.976  -0.035  0.00  0.00    +0.269 C 
ATOM      3  O   UNL     1       2.359  -2.247  -0.019  0.00  0.00    -0.268 OA
ATOM      4  C   UNL     1       4.157  -0.615  -0.040  0.00  0.00    +0.101 C 
ATOM      5  C   UNL     1       3.492   0.616  -0.028  0.00  0.00    +0.074 C 
ATOM      6  N   UNL     1       5.502  -0.826  -0.054  0.00  0.00    -0.265 N 
ATOM      7  C   UNL     1       5.728  -2.150  -0.062  0.00  0.00    +0.313 C 
ATOM      8  O   UNL     1       6.832  -2.656  -0.075  0.00  0.00    -0.252 OA
ATOM      9  H   UNL     1       6.183  -0.136  -0.057  0.00  0.00    +0.157 HD
ENDROOT
BRANCH   5  10
ATOM     10  C   UNL     1       2.103   0.655  -0.015  0.00  0.00    +0.131 A 
ATOM     11  C   UNL     1       1.276   1.869  -0.000  0.00  0.00    +0.050 A 
ATOM     12  C   UNL     1      -0.018   1.458   0.010  0.00  0.00    +0.050 A 
ATOM     13  C   UNL     1       0.002  -0.004   0.002  0.00  0.00    +0.137 A 
ATOM     14  O   UNL     1       1.282  -0.416  -0.012  0.00  0.00    -0.455 OA
BRANCH  13  15
ATOM     15  C   UNL     1      -1.136  -0.846   0.008  0.00  0.00    +0.031 A 
ATOM     16  C   UNL     1      -1.251  -1.892  -0.929  0.00  0.00    +0.015 A 
ATOM     17  C   UNL     1      -2.351  -2.698  -0.915  0.00  0.00    +0.033 A 
ATOM     18  C   UNL     1      -3.361  -2.495   0.017  0.00  0.00    +0.127 A 
ATOM     19  C   UNL     1      -3.265  -1.472   0.947  0.00  0.00    +0.048 A 
ATOM     20  C   UNL     1      -2.161  -0.647   0.956  0.00  0.00    +0.031 A 
ATOM     21 BR   UNL     1      -2.025   0.745   2.228  0.00  0.00    -0.049 Br
BRANCH  18  22
ATOM     22  N   UNL     1      -4.548  -3.380   0.017  0.00  0.00    +0.056 N 
ATOM     23  O   UNL     1      -4.644  -4.354  -0.863  0.00  0.00    -0.126 OA
ATOM     24  O   UNL     1      -5.508  -3.192   0.899  0.00  0.00    -0.126 OA
ENDBRANCH  18  22
ENDBRANCH  13  15
ENDBRANCH   5  10
BRANCH   1  25
ATOM     25  C   UNL     1       4.465  -4.303  -0.061  0.00  0.00    +0.153 C 
BRANCH  25  31
ATOM     26  C   UNL     1       5.621  -5.141   1.994  0.00  0.00    +0.006 A 
ATOM     27  C   UNL     1       5.599  -5.601   3.297  0.00  0.00    +0.020 A 
ATOM     28  C   UNL     1       4.394  -5.742   3.961  0.00  0.00    +0.041 A 
ATOM     29  C   UNL     1       3.211  -5.416   3.321  0.00  0.00    +0.020 A 
ATOM     30  C   UNL     1       3.234  -4.951   2.020  0.00  0.00    +0.006 A 
ATOM     31  C   UNL     1       4.440  -4.811   1.358  0.00  0.00    -0.029 A 
ATOM     32 CL   UNL     1       4.365  -6.326   5.596  0.00  0.00    -0.084 Cl
ENDBRANCH  25  31
ENDBRANCH   1  25
TORSDOF 5
