REMARK  Name = ZINC45756380
REMARK  7 active torsions:
REMARK  status: ('A' for Active; 'I' for Inactive)
REMARK    1  A    between atoms: C_1  and  C_2
REMARK    2  A    between atoms: C_15  and  C_17
REMARK    3  A    between atoms: C_17  and  N_18
REMARK    4  A    between atoms: N_18  and  C_19
REMARK    5  A    between atoms: C_24  and  C_25
REMARK    6  A    between atoms: N_27  and  C_28
REMARK    7  A    between atoms: C_28  and  C_29
REMARK                            x       y       z     vdW  Elec       q    Type
REMARK                         _______ _______ _______ _____ _____    ______ ____
ROOT
ATOM      1  C   UNL     1       4.905  -2.366   2.925  0.00  0.00    +0.040 A 
ATOM      2  C   UNL     1       4.520  -2.371   4.260  0.00  0.00    +0.024 A 
ATOM      3  C   UNL     1       5.381  -2.847   5.227  0.00  0.00    +0.002 A 
ATOM      4  C   UNL     1       6.635  -3.324   4.877  0.00  0.00    +0.001 A 
ATOM      5  C   UNL     1       7.035  -3.328   3.559  0.00  0.00    +0.015 A 
ATOM      6  C   UNL     1       6.172  -2.854   2.567  0.00  0.00    +0.057 A 
ENDROOT
BRANCH   6   7
ATOM      7  C   UNL     1       6.591  -2.860   1.154  0.00  0.00    +0.246 C 
ATOM      8  O   UNL     1       5.884  -2.349   0.307  0.00  0.00    -0.270 OA
ATOM      9  N   UNL     1       7.759  -3.433   0.800  0.00  0.00    -0.307 N 
ATOM     10  H   UNL     1       8.323  -3.841   1.475  0.00  0.00    +0.149 HD
BRANCH   9  11
ATOM     11  C   UNL     1       8.176  -3.440  -0.605  0.00  0.00    +0.140 C 
BRANCH  11  12
ATOM     12  C   UNL     1       9.506  -4.136  -0.731  0.00  0.00    -0.027 A 
ATOM     13  C   UNL     1      10.678  -3.409  -0.621  0.00  0.00    +0.009 A 
ATOM     14  C   UNL     1      11.901  -4.043  -0.735  0.00  0.00    +0.050 A 
ATOM     15  C   UNL     1      11.955  -5.409  -0.960  0.00  0.00    +0.166 A 
ATOM     16  C   UNL     1      10.776  -6.141  -1.071  0.00  0.00    +0.167 A 
ATOM     17  C   UNL     1       9.553  -5.500  -0.950  0.00  0.00    +0.054 A 
ATOM     18  O   UNL     1      11.093  -7.450  -1.290  0.00  0.00    -0.453 OA
ATOM     19  C   UNL     1      12.468  -7.446  -1.718  0.00  0.00    +0.466 C 
ATOM     20  O   UNL     1      13.012  -6.260  -1.109  0.00  0.00    -0.453 OA
ENDBRANCH  11  12
ENDBRANCH   9  11
ENDBRANCH   6   7
BRANCH   1  21
ATOM     21  N   UNL     1       4.040  -1.887   1.951  0.00  0.00    -0.335 N 
ATOM     22  H   UNL     1       4.339  -1.813   1.031  0.00  0.00    +0.147 HD
BRANCH  21  23
ATOM     23  C   UNL     1       2.676  -1.495   2.311  0.00  0.00    +0.198 C 
BRANCH  23  37
ATOM     24  C   UNL     1      -0.104   1.399  -0.002  0.00  0.00    +0.029 C 
ATOM     25  C   UNL     1      -0.048  -0.130  -0.014  0.00  0.00    +0.087 C 
ATOM     26  C   UNL     1      -1.470  -0.691  -0.013  0.00  0.00    +0.118 C 
ATOM     27  C   UNL     1      -1.453  -2.147   0.370  0.00  0.00    +0.219 C 
ATOM     28  O   UNL     1      -1.605  -2.997  -0.482  0.00  0.00    -0.275 OA
ATOM     29  N   UNL     1      -1.269  -2.513   1.657  0.00  0.00    -0.284 N 
ATOM     30  C   UNL     1      -0.997  -1.551   2.636  0.00  0.00    +0.055 A 
ATOM     31  C   UNL     1      -1.706  -1.527   3.826  0.00  0.00    +0.025 A 
ATOM     32  C   UNL     1      -1.403  -0.582   4.789  0.00  0.00    +0.002 A 
ATOM     33  C   UNL     1      -0.394   0.339   4.568  0.00  0.00    +0.002 A 
ATOM     34  C   UNL     1       0.312   0.327   3.379  0.00  0.00    +0.025 A 
ATOM     35  C   UNL     1       0.007  -0.609   2.405  0.00  0.00    +0.058 A 
ATOM     36  N   UNL     1       0.670  -0.600   1.173  0.00  0.00    -0.265 N 
ATOM     37  C   UNL     1       1.950  -1.014   1.081  0.00  0.00    +0.237 C 
ATOM     38  O   UNL     1       2.516  -1.001   0.009  0.00  0.00    -0.274 OA
ATOM     39  H   UNL     1      -1.327  -3.449   1.905  0.00  0.00    +0.155 HD
ENDBRANCH  23  37
ENDBRANCH  21  23
ENDBRANCH   1  21
TORSDOF 6
