REMARK  Name = ZINC34698931
REMARK  13 active torsions:
REMARK  status: ('A' for Active; 'I' for Inactive)
REMARK    1  A    between atoms: C_1  and  C_2
REMARK    2  A    between atoms: C_2  and  C_3
REMARK    3  A    between atoms: C_2  and  C_4
REMARK    4  A    between atoms: C_4  and  N_5
REMARK    5  A    between atoms: N_5  and  C_6
REMARK    6  A    between atoms: C_6  and  C_7
REMARK    7  A    between atoms: N_10  and  C_22
REMARK    8  A    between atoms: C_12  and  C_14
REMARK    9  A    between atoms: C_18  and  O_20
REMARK   10  A    between atoms: O_20  and  C_21
REMARK   11  A    between atoms: C_22  and  C_23
REMARK   12  A    between atoms: C_28  and  O_29
REMARK   13  A    between atoms: C_30  and  C_32
REMARK                            x       y       z     vdW  Elec       q    Type
REMARK                         _______ _______ _______ _____ _____    ______ ____
ROOT
ATOM      1  C   UNL     1      -4.607  -1.381  -2.561  0.00  0.00    -0.005 C 
ATOM      2  C   UNL     1      -5.022  -0.051  -3.225  0.00  0.00    -0.073 C 
ATOM      3  N   UNL     1      -4.815  -0.277  -4.678  0.00  0.00    +0.383 N 
ATOM      4  C   UNL     1      -5.276  -1.672  -4.899  0.00  0.00    -0.070 C 
ATOM      5  C   UNL     1      -4.774  -2.450  -3.660  0.00  0.00    +0.005 C 
ATOM      6  H   UNL     1      -3.839  -0.186  -4.914  0.00  0.00    -0.081 HD
ENDROOT
BRANCH   5   7
ATOM      7  C   UNL     1      -5.791  -3.479  -3.239  0.00  0.00    -0.042 A 
ATOM      8  C   UNL     1      -7.092  -3.095  -2.970  0.00  0.00    +0.004 A 
ATOM      9  C   UNL     1      -8.027  -4.037  -2.583  0.00  0.00    +0.004 A 
ATOM     10  C   UNL     1      -7.664  -5.365  -2.465  0.00  0.00    +0.045 A 
ATOM     11  C   UNL     1      -6.360  -5.753  -2.735  0.00  0.00    +0.120 A 
ATOM     12  C   UNL     1      -5.425  -4.806  -3.128  0.00  0.00    +0.049 A 
BRANCH  11  13
ATOM     13  O   UNL     1      -6.000  -7.058  -2.619  0.00  0.00    -0.495 OA
ATOM     14  C   UNL     1      -7.017  -7.978  -2.215  0.00  0.00    +0.277 C 
ENDBRANCH  11  13
ENDBRANCH   5   7
BRANCH   1  15
ATOM     15  C   UNL     1      -3.149  -1.314  -2.102  0.00  0.00    +0.110 C 
BRANCH  15  16
ATOM     16  N   UNL     1      -3.027  -0.356  -1.001  0.00  0.00    -0.297 N 
ATOM     17  C   UNL     1      -2.769   0.941  -1.261  0.00  0.00    +0.247 C 
ATOM     18  O   UNL     1      -2.536   1.298  -2.400  0.00  0.00    -0.270 OA
BRANCH  17  19
ATOM     19  C   UNL     1      -2.768   1.929  -0.163  0.00  0.00    +0.037 A 
ATOM     20  C   UNL     1      -2.056   1.672   1.010  0.00  0.00    +0.016 A 
ATOM     21  C   UNL     1      -2.059   2.597   2.032  0.00  0.00    +0.039 A 
ATOM     22  C   UNL     1      -2.767   3.781   1.896  0.00  0.00    +0.123 A 
ATOM     23  C   UNL     1      -3.476   4.042   0.733  0.00  0.00    +0.039 A 
ATOM     24  C   UNL     1      -3.475   3.126  -0.297  0.00  0.00    +0.016 A 
ATOM     25  F   UNL     1      -2.767   4.685   2.901  0.00  0.00    -0.205 F 
ENDBRANCH  17  19
BRANCH  16  26
ATOM     26  C   UNL     1      -3.185  -0.807   0.384  0.00  0.00    +0.111 C 
BRANCH  26  28
ATOM     27  C   UNL     1      -0.868  -1.742   0.367  0.00  0.00    +0.009 C 
ATOM     28  C   UNL     1      -2.344  -2.065   0.610  0.00  0.00    +0.000 C 
ATOM     29  C   UNL     1      -2.530  -2.552   2.048  0.00  0.00    +0.009 C 
ENDBRANCH  26  28
ENDBRANCH  16  26
ENDBRANCH  15  16
ENDBRANCH   1  15
BRANCH   3  30
ATOM     30  C   UNL     1      -5.626   0.662  -5.465  0.00  0.00    -0.039 C 
BRANCH  30  31
ATOM     31  C   UNL     1      -5.308   0.496  -6.929  0.00  0.00    -0.022 A 
ATOM     32  C   UNL     1      -4.445   1.376  -7.553  0.00  0.00    +0.005 A 
ATOM     33  C   UNL     1      -4.154   1.225  -8.896  0.00  0.00    +0.000 A 
ATOM     34  C   UNL     1      -4.724   0.192  -9.617  0.00  0.00    +0.004 A 
ATOM     35  C   UNL     1      -5.587  -0.691  -8.998  0.00  0.00    +0.045 A 
ATOM     36  C   UNL     1      -5.877  -0.544  -7.649  0.00  0.00    +0.118 A 
BRANCH  36  37
ATOM     37  O   UNL     1      -6.721  -1.415  -7.036  0.00  0.00    -0.507 OA
ATOM     38  H   UNL     1      -7.650  -1.149  -7.066  0.00  0.00    +0.292 HD
ENDBRANCH  36  37
ENDBRANCH  30  31
ENDBRANCH   3  30
TORSDOF 10
