REMARK  Name = ZINC32879622
REMARK  8 active torsions:
REMARK  status: ('A' for Active; 'I' for Inactive)
REMARK    1  A    between atoms: C_1  and  C_2
REMARK    2  A    between atoms: C_6  and  C_8
REMARK    3  A    between atoms: C_11  and  C_13
REMARK    4  A    between atoms: C_13  and  C_15
REMARK    5  A    between atoms: C_13  and  N_16
REMARK    6  A    between atoms: C_19  and  N_22
REMARK    7  A    between atoms: N_22  and  S_23
REMARK    8  A    between atoms: S_23  and  C_26
REMARK                            x       y       z     vdW  Elec       q    Type
REMARK                         _______ _______ _______ _____ _____    ______ ____
ROOT
ATOM      1  N   UNL     1       1.286   5.888  -5.066  0.00  0.00    +0.387 N 
ATOM      2  C   UNL     1       2.200   6.778  -4.340  0.00  0.00    -0.076 C 
ATOM      3  C   UNL     1       3.098   5.948  -3.419  0.00  0.00    +0.002 C 
ATOM      4  C   UNL     1       2.225   5.167  -2.433  0.00  0.00    +0.073 C 
ATOM      5  C   UNL     1       1.249   4.284  -3.215  0.00  0.00    +0.002 C 
ATOM      6  C   UNL     1       0.406   5.162  -4.142  0.00  0.00    -0.076 C 
ATOM      7  H   UNL     1       1.896   5.145  -5.601  0.00  0.00    -0.081 HD
ENDROOT
BRANCH   1   8
ATOM      8  C   UNL     1       0.504   6.634  -6.061  0.00  0.00    +0.018 C 
ATOM      9  C   UNL     1       1.422   7.080  -7.201  0.00  0.00    -0.004 C 
BRANCH   8  13
ATOM     10  C   UNL     1      -2.488   5.010  -7.303  0.00  0.00    +0.248 A 
ATOM     11  N   UNL     1      -1.586   4.062  -7.403  0.00  0.00    -0.107 NA
ATOM     12  N   UNL     1      -0.452   4.511  -6.994  0.00  0.00    -0.114 NA
ATOM     13  C   UNL     1      -0.586   5.750  -6.610  0.00  0.00    +0.204 A 
ATOM     14  O   UNL     1      -1.870   6.097  -6.798  0.00  0.00    -0.422 OA
BRANCH  10  20
ATOM     15  C   UNL     1      -6.299   2.330  -9.088  0.00  0.00    +0.044 C 
ATOM     16  C   UNL     1      -5.752   3.620  -8.533  0.00  0.00    -0.050 A 
ATOM     17  C   UNL     1      -6.588   4.711  -8.370  0.00  0.00    +0.003 A 
ATOM     18  C   UNL     1      -6.094   5.898  -7.862  0.00  0.00    +0.001 A 
ATOM     19  C   UNL     1      -4.764   6.001  -7.508  0.00  0.00    +0.013 A 
ATOM     20  C   UNL     1      -3.915   4.906  -7.675  0.00  0.00    +0.039 A 
ATOM     21  C   UNL     1      -4.420   3.711  -8.188  0.00  0.00    +0.016 A 
ENDBRANCH  10  20
ENDBRANCH   8  13
ENDBRANCH   1   8
BRANCH   4  22
ATOM     22  N   UNL     1       3.076   4.326  -1.587  0.00  0.00    -0.187 NA
ATOM     23  H   UNL     1       3.887   3.735  -2.037  0.00  0.00    +0.148 HD
BRANCH  22  24
ATOM     24  S   UNL     1       2.670   4.067  -0.002  0.00  0.00    +0.059 S 
ATOM     25  O   UNL     1       2.387   5.342   0.558  0.00  0.00    -0.153 OA
ATOM     26  O   UNL     1       3.661   3.202   0.535  0.00  0.00    -0.153 OA
BRANCH  24  27
ATOM     27  C   UNL     1       1.156   3.165   0.008  0.00  0.00    +0.105 A 
ATOM     28  C   UNL     1       1.175   1.783   0.000  0.00  0.00    +0.028 A 
ATOM     29  C   UNL     1      -0.013   1.076   0.008  0.00  0.00    +0.002 A 
ATOM     30  C   UNL     1      -1.219   1.751   0.017  0.00  0.00    +0.000 A 
ATOM     31  C   UNL     1      -1.238   3.133   0.030  0.00  0.00    +0.002 A 
ATOM     32  C   UNL     1      -0.050   3.840   0.023  0.00  0.00    +0.028 A 
ENDBRANCH  24  27
ENDBRANCH  22  24
ENDBRANCH   4  22
TORSDOF 6
