REMARK  Name = ZINC39654230
REMARK  8 active torsions:
REMARK  status: ('A' for Active; 'I' for Inactive)
REMARK    1  A    between atoms: C_1  and  C_2
REMARK    2  A    between atoms: C_2  and  C_3
REMARK    3  A    between atoms: C_6  and  C_9
REMARK    4  A    between atoms: C_9  and  C_10
REMARK    5  A    between atoms: C_10  and  N_11
REMARK    6  A    between atoms: C_12  and  C_14
REMARK    7  A    between atoms: C_25  and  C_27
REMARK    8  A    between atoms: C_30  and  C_33
REMARK                            x       y       z     vdW  Elec       q    Type
REMARK                         _______ _______ _______ _____ _____    ______ ____
ROOT
ATOM      1  C   UNL     1       5.431  -0.494  -8.370  0.00  0.00    +0.100 C 
ATOM      2  C   UNL     1       6.676  -1.404  -8.268  0.00  0.00    +0.121 C 
ATOM      3  N   UNL     1       7.533  -0.996  -9.405  0.00  0.00    -0.296 N 
ATOM      4  C   UNL     1       7.397   0.480  -9.459  0.00  0.00    +0.115 C 
ATOM      5  C   UNL     1       5.909   0.741  -9.152  0.00  0.00    -0.004 C 
ATOM      6  C   UNL     1       5.760   1.997  -8.298  0.00  0.00    -0.010 C 
ATOM      7  C   UNL     1       6.185   3.219  -9.116  0.00  0.00    -0.082 C 
ATOM      8  N   UNL     1       5.351   3.319 -10.320  0.00  0.00    +0.379 N 
ATOM      9  C   UNL     1       5.571   2.151 -11.181  0.00  0.00    -0.082 C 
ATOM     10  C   UNL     1       5.119   0.883 -10.449  0.00  0.00    -0.010 C 
ATOM     11  C   UNL     1       8.270  -1.787 -10.210  0.00  0.00    +0.247 C 
ATOM     12  O   UNL     1       8.180  -2.996 -10.123  0.00  0.00    -0.270 OA
ATOM     13  H   UNL     1       4.379   3.359 -10.051  0.00  0.00    -0.086 HD
ATOM     14  H   UNL     1       5.592   4.158 -10.826  0.00  0.00    -0.086 HD
ENDROOT
BRANCH  11  15
ATOM     15  C   UNL     1       9.189  -1.184 -11.200  0.00  0.00    +0.037 A 
ATOM     16  C   UNL     1       9.630   0.131 -11.037  0.00  0.00    +0.013 A 
ATOM     17  C   UNL     1      10.487   0.687 -11.963  0.00  0.00    +0.013 A 
ATOM     18  C   UNL     1      10.910  -0.055 -13.052  0.00  0.00    +0.055 A 
ATOM     19  C   UNL     1      10.477  -1.358 -13.219  0.00  0.00    +0.013 A 
ATOM     20  C   UNL     1       9.624  -1.929 -12.297  0.00  0.00    +0.013 A 
BRANCH  18  21
ATOM     21  C   UNL     1      11.847   0.559 -14.060  0.00  0.00    +0.417 C 
ATOM     22  F   UNL     1      13.170   0.317 -13.676  0.00  0.00    -0.166 F 
ATOM     23  F   UNL     1      11.615  -0.008 -15.318  0.00  0.00    -0.166 F 
ATOM     24  F   UNL     1      11.624   1.939 -14.123  0.00  0.00    -0.166 F 
ENDBRANCH  18  21
ENDBRANCH  11  15
BRANCH   1  26
ATOM     25  N   UNL     1       3.651   0.148  -6.778  0.00  0.00    -0.315 N 
ATOM     26  C   UNL     1       4.958  -0.096  -6.996  0.00  0.00    +0.218 C 
ATOM     27  O   UNL     1       5.754   0.006  -6.087  0.00  0.00    -0.275 OA
ATOM     28  H   UNL     1       3.014   0.066  -7.505  0.00  0.00    +0.149 HD
BRANCH  25  29
ATOM     29  C   UNL     1       3.191   0.535  -5.442  0.00  0.00    +0.109 C 
BRANCH  29  30
ATOM     30  C   UNL     1       1.676   0.751  -5.467  0.00  0.00    +0.054 C 
BRANCH  30  34
ATOM     31  C   UNL     1       0.333   1.881  -1.573  0.00  0.00    -0.048 A 
ATOM     32  C   UNL     1       0.720   2.851  -2.479  0.00  0.00    +0.004 A 
ATOM     33  C   UNL     1       1.155   2.485  -3.739  0.00  0.00    +0.004 A 
ATOM     34  C   UNL     1       1.203   1.150  -4.093  0.00  0.00    -0.046 A 
ATOM     35  C   UNL     1       0.818   0.180  -3.186  0.00  0.00    +0.004 A 
ATOM     36  C   UNL     1       0.387   0.545  -1.925  0.00  0.00    +0.004 A 
BRANCH  31  38
ATOM     37  C   UNL     1       1.054   2.340   0.755  0.00  0.00    +0.009 C 
ATOM     38  C   UNL     1      -0.141   2.280  -0.199  0.00  0.00    +0.032 C 
ENDBRANCH  31  38
ENDBRANCH  30  34
ENDBRANCH  29  30
ENDBRANCH  25  29
ENDBRANCH   1  26
TORSDOF 7
