REMARK  Name = ZINC63751792
REMARK  6 active torsions:
REMARK  status: ('A' for Active; 'I' for Inactive)
REMARK    1  A    between atoms: C_8  and  C_13
REMARK    2  A    between atoms: C_13  and  S_14
REMARK    3  A    between atoms: S_14  and  C_15
REMARK    4  A    between atoms: C_18  and  N_21
REMARK    5  A    between atoms: C_22  and  C_24
REMARK    6  A    between atoms: C_24  and  C_25
REMARK                            x       y       z     vdW  Elec       q    Type
REMARK                         _______ _______ _______ _____ _____    ______ ____
ROOT
ATOM      1  C   UNL     1       1.668  -5.704   2.618  0.00  0.00    +0.008 A 
ATOM      2  C   UNL     1       2.825  -5.545   3.371  0.00  0.00    +0.016 A 
ATOM      3  C   UNL     1       3.011  -6.294   4.516  0.00  0.00    +0.024 A 
ATOM      4  C   UNL     1       2.042  -7.205   4.915  0.00  0.00    +0.033 A 
ATOM      5  C   UNL     1       0.885  -7.363   4.162  0.00  0.00    +0.024 A 
ATOM      6  C   UNL     1       0.696  -6.611   3.021  0.00  0.00    +0.016 A 
ENDROOT
BRANCH   4   7
ATOM      7  N   UNL     1       2.231  -7.965   6.077  0.00  0.00    -0.285 N 
ATOM      8  C   UNL     1       2.897  -7.440   7.125  0.00  0.00    +0.222 C 
ATOM      9  O   UNL     1       3.249  -6.279   7.100  0.00  0.00    -0.275 OA
ATOM     10  H   UNL     1       1.883  -8.869   6.127  0.00  0.00    +0.155 HD
BRANCH   8  11
ATOM     11  C   UNL     1       3.204  -8.295   8.327  0.00  0.00    +0.131 C 
BRANCH  11  12
ATOM     12  C   UNL     1       3.950  -7.475   9.349  0.00  0.00    -0.039 A 
ATOM     13  C   UNL     1       5.331  -7.421   9.316  0.00  0.00    +0.005 A 
ATOM     14  C   UNL     1       6.015  -6.670  10.253  0.00  0.00    +0.020 A 
ATOM     15  C   UNL     1       5.318  -5.972  11.223  0.00  0.00    +0.041 A 
ATOM     16  C   UNL     1       3.936  -6.027  11.255  0.00  0.00    +0.020 A 
ATOM     17  C   UNL     1       3.252  -6.774  10.314  0.00  0.00    +0.005 A 
ATOM     18 CL   UNL     1       6.177  -5.028  12.400  0.00  0.00    -0.084 Cl
ENDBRANCH  11  12
ENDBRANCH   8  11
ENDBRANCH   4   7
BRANCH   1  19
ATOM     19  S   UNL     1       1.431  -4.748   1.156  0.00  0.00    -0.123 S 
BRANCH  19  20
ATOM     20  C   UNL     1       2.931  -3.734   1.046  0.00  0.00    +0.108 C 
BRANCH  20  28
ATOM     21  C   UNL     1       0.676   1.447  -0.052  0.00  0.00    +0.002 A 
ATOM     22  C   UNL     1       1.940   2.048  -0.169  0.00  0.00    +0.002 A 
ATOM     23  C   UNL     1       3.085   1.331  -0.261  0.00  0.00    +0.025 A 
ATOM     24  C   UNL     1       3.049  -0.081  -0.243  0.00  0.00    +0.057 A 
ATOM     25  N   UNL     1       4.171  -0.775  -0.333  0.00  0.00    -0.282 N 
ATOM     26  C   UNL     1       4.170  -2.110  -0.319  0.00  0.00    +0.240 C 
ATOM     27  O   UNL     1       5.214  -2.727  -0.402  0.00  0.00    -0.273 OA
ATOM     28  C   UNL     1       2.854  -2.844  -0.196  0.00  0.00    +0.176 C 
ATOM     29  N   UNL     1       1.625  -2.042  -0.098  0.00  0.00    -0.372 N 
ATOM     30  C   UNL     1       1.727  -0.745  -0.120  0.00  0.00    +0.057 A 
ATOM     31  C   UNL     1       0.528   0.104  -0.025  0.00  0.00    +0.027 A 
ATOM     32  H   UNL     1       0.758  -2.470  -0.018  0.00  0.00    +0.160 HD
ATOM     33  H   UNL     1       5.014  -0.303  -0.412  0.00  0.00    +0.155 HD
ENDBRANCH  20  28
ENDBRANCH  19  20
ENDBRANCH   1  19
TORSDOF 6
