REMARK  Name = ZINC21585114
REMARK  16 active torsions:
REMARK  status: ('A' for Active; 'I' for Inactive)
REMARK    1  A    between atoms: C_1  and  C_2
REMARK    2  A    between atoms: C_2  and  C_3
REMARK    3  A    between atoms: C_5  and  C_30
REMARK    4  A    between atoms: C_6  and  C_11
REMARK    5  A    between atoms: C_11  and  N_12
REMARK    6  A    between atoms: N_12  and  C_13
REMARK    7  A    between atoms: N_12  and  C_27
REMARK    8  A    between atoms: C_13  and  C_14
REMARK    9  A    between atoms: C_17  and  O_23
REMARK   10  A    between atoms: C_18  and  O_20
REMARK   11  A    between atoms: O_20  and  C_21
REMARK   12  A    between atoms: C_21  and  C_22
REMARK   13  A    between atoms: O_23  and  C_24
REMARK   14  A    between atoms: C_30  and  O_32
REMARK   15  A    between atoms: O_32  and  C_33
REMARK   16  A    between atoms: C_33  and  C_34
REMARK                            x       y       z     vdW  Elec       q    Type
REMARK                         _______ _______ _______ _____ _____    ______ ____
ROOT
ATOM      1  N   UNL     1      -0.191  -0.242   0.213  0.00  0.00    +0.388 N 
ATOM      2  H   UNL     1       0.576  -0.235   1.002  0.00  0.00    -0.080 HD
ENDROOT
BRANCH   1   3
ATOM      3  C   UNL     1       0.417  -0.800  -1.003  0.00  0.00    -0.068 C 
ATOM      4  C   UNL     1       1.635  -1.710  -0.830  0.00  0.00    -0.017 C 
ATOM      5  C   UNL     1       1.808  -0.296  -1.392  0.00  0.00    -0.017 C 
ENDBRANCH   1   3
BRANCH   1   6
ATOM      6  C   UNL     1      -1.306  -1.079   0.676  0.00  0.00    -0.026 C 
BRANCH   6   9
ATOM      7  C   UNL     1      -0.261  -4.095   2.837  0.00  0.00    +0.113 C 
ATOM      8  C   UNL     1      -0.797  -2.736   2.434  0.00  0.00    +0.072 C 
ATOM      9  C   UNL     1      -0.778  -2.418   1.121  0.00  0.00    +0.007 C 
ATOM     10  N   UNL     1      -0.284  -3.288   0.192  0.00  0.00    -0.274 N 
ATOM     11  C   UNL     1       0.205  -4.497   0.493  0.00  0.00    +0.304 C 
ATOM     12  O   UNL     1       0.624  -5.202  -0.404  0.00  0.00    -0.253 OA
ATOM     13  N   UNL     1       0.249  -4.958   1.759  0.00  0.00    -0.292 N 
ATOM     14  H   UNL     1      -0.273  -3.009  -0.872  0.00  0.00    +0.156 HD
ATOM     15  H   UNL     1       0.653  -5.954   1.996  0.00  0.00    +0.151 HD
BRANCH   7  17
ATOM     16  C   UNL     1       1.241  -5.200   4.500  0.00  0.00    +0.006 C 
ATOM     17  C   UNL     1       0.874  -3.870   3.839  0.00  0.00    +0.024 C 
ENDBRANCH   7  17
BRANCH   8  18
ATOM     18  C   UNL     1      -1.303  -1.833   3.398  0.00  0.00    +0.338 C 
ATOM     19  O   UNL     1      -2.388  -2.036   3.910  0.00  0.00    -0.245 OA
BRANCH  18  20
ATOM     20  O   UNL     1      -0.583  -0.748   3.749  0.00  0.00    -0.462 OA
BRANCH  20  21
ATOM     21  C   UNL     1      -1.156   0.121   4.729  0.00  0.00    +0.229 C 
ATOM     22  C   UNL     1      -0.202   1.287   4.996  0.00  0.00    +0.048 C 
ENDBRANCH  20  21
ENDBRANCH  18  20
ENDBRANCH   8  18
ENDBRANCH   6   9
ENDBRANCH   1   6
BRANCH   1  23
ATOM     23  C   UNL     1      -0.627   1.144  -0.005  0.00  0.00    -0.042 C 
BRANCH  23  24
ATOM     24  C   UNL     1       0.579   2.043  -0.086  0.00  0.00    -0.060 A 
ATOM     25  C   UNL     1       1.161   2.522   1.073  0.00  0.00    +0.005 A 
ATOM     26  C   UNL     1       2.271   3.343   1.005  0.00  0.00    +0.050 A 
ATOM     27  C   UNL     1       2.796   3.697  -0.228  0.00  0.00    +0.168 A 
ATOM     28  C   UNL     1       2.206   3.221  -1.395  0.00  0.00    +0.162 A 
ATOM     29  C   UNL     1       1.097   2.393  -1.319  0.00  0.00    +0.051 A 
BRANCH  28  30
ATOM     30  O   UNL     1       2.717   3.566  -2.607  0.00  0.00    -0.489 OA
BRANCH  30  31
ATOM     31  C   UNL     1       2.061   3.038  -3.761  0.00  0.00    +0.226 C 
ATOM     32  C   UNL     1       2.773   3.532  -5.022  0.00  0.00    +0.048 C 
ENDBRANCH  30  31
ENDBRANCH  28  30
BRANCH  27  33
ATOM     33  O   UNL     1       3.884   4.509  -0.297  0.00  0.00    -0.431 OA
BRANCH  33  34
ATOM     34  C   UNL     1       4.437   4.961   0.941  0.00  0.00    +0.541 C 
ATOM     35  F   UNL     1       3.471   5.687   1.646  0.00  0.00    -0.166 F 
ATOM     36  F   UNL     1       4.838   3.858   1.702  0.00  0.00    -0.166 F 
ENDBRANCH  33  34
ENDBRANCH  27  33
ENDBRANCH  23  24
ENDBRANCH   1  23
TORSDOF 13
