REMARK  Name = ZINC03456788
REMARK  7 active torsions:
REMARK  status: ('A' for Active; 'I' for Inactive)
REMARK    1  A    between atoms: C_1  and  C_2
REMARK    2  A    between atoms: C_2  and  C_4
REMARK    3  A    between atoms: C_2  and  N_11
REMARK    4  A    between atoms: C_12  and  C_14
REMARK    5  A    between atoms: C_14  and  N_15
REMARK    6  A    between atoms: C_18  and  C_22
REMARK    7  A    between atoms: C_18  and  C_23
REMARK                            x       y       z     vdW  Elec       q    Type
REMARK                         _______ _______ _______ _____ _____    ______ ____
ROOT
ATOM      1  N   UNL     1       2.494   4.164   0.001  0.00  0.00    -0.215 N 
ATOM      2  C   UNL     1       3.194   4.432  -1.120  0.00  0.00    +0.251 C 
ATOM      3  O   UNL     1       2.819   4.303  -2.265  0.00  0.00    -0.272 OA
ATOM      4  C   UNL     1       4.547   4.928  -0.649  0.00  0.00    +0.135 C 
ATOM      5  N   UNL     1       4.442   4.877   0.820  0.00  0.00    -0.281 N 
ATOM      6  C   UNL     1       3.208   4.424   1.102  0.00  0.00    +0.310 C 
ATOM      7  O   UNL     1       2.789   4.265   2.232  0.00  0.00    -0.252 OA
ATOM      8  C   UNL     1       5.660   4.003  -1.142  0.00  0.00    +0.047 C 
ATOM      9  H   UNL     1       5.129   5.126   1.458  0.00  0.00    +0.152 HD
ENDROOT
BRANCH   4  10
ATOM     10  C   UNL     1       4.785   6.342  -1.115  0.00  0.00    -0.015 A 
ATOM     11  C   UNL     1       4.222   6.783  -2.298  0.00  0.00    +0.007 A 
ATOM     12  C   UNL     1       4.436   8.081  -2.723  0.00  0.00    +0.020 A 
ATOM     13  C   UNL     1       5.221   8.935  -1.970  0.00  0.00    +0.041 A 
ATOM     14  C   UNL     1       5.789   8.491  -0.789  0.00  0.00    +0.020 A 
ATOM     15  C   UNL     1       5.570   7.194  -0.362  0.00  0.00    +0.007 A 
ATOM     16 CL   UNL     1       5.496  10.562  -2.507  0.00  0.00    -0.084 Cl
ENDBRANCH   4  10
BRANCH   1  17
ATOM     17  C   UNL     1       1.120   3.657   0.011  0.00  0.00    +0.213 C 
BRANCH  17  19
ATOM     18  N   UNL     1      -0.018   1.461   0.010  0.00  0.00    -0.307 N 
ATOM     19  C   UNL     1       1.140   2.151   0.003  0.00  0.00    +0.231 C 
ATOM     20  O   UNL     1       2.199   1.558  -0.011  0.00  0.00    -0.274 OA
ATOM     21  H   UNL     1      -0.864   1.934   0.017  0.00  0.00    +0.149 HD
BRANCH  18  23
ATOM     22  C   UNL     1       0.148  -0.520   1.435  0.00  0.00    +0.033 C 
ATOM     23  C   UNL     1       0.002  -0.004   0.002  0.00  0.00    +0.100 C 
BRANCH  23  24
ATOM     24  C   UNL     1      -1.284  -0.521  -0.589  0.00  0.00    -0.027 A 
ATOM     25  C   UNL     1      -2.483   0.093  -0.277  0.00  0.00    +0.008 A 
ATOM     26  C   UNL     1      -3.663  -0.377  -0.822  0.00  0.00    +0.038 A 
ATOM     27  C   UNL     1      -3.645  -1.469  -1.673  0.00  0.00    +0.123 A 
ATOM     28  C   UNL     1      -2.444  -2.086  -1.981  0.00  0.00    +0.038 A 
ATOM     29  C   UNL     1      -1.265  -1.611  -1.439  0.00  0.00    +0.008 A 
ATOM     30  F   UNL     1      -4.798  -1.932  -2.203  0.00  0.00    -0.205 F 
ENDBRANCH  23  24
ENDBRANCH  18  23
ENDBRANCH  17  19
ENDBRANCH   1  17
TORSDOF 5
