REMARK  Name = ZINC17014005
REMARK  6 active torsions:
REMARK  status: ('A' for Active; 'I' for Inactive)
REMARK    1  A    between atoms: C_4  and  S_7
REMARK    2  A    between atoms: S_7  and  N_10
REMARK    3  A    between atoms: N_13  and  S_30
REMARK    4  A    between atoms: C_14  and  C_24
REMARK    5  A    between atoms: C_16  and  C_18
REMARK    6  A    between atoms: S_30  and  C_33
REMARK                            x       y       z     vdW  Elec       q    Type
REMARK                         _______ _______ _______ _____ _____    ______ ____
ROOT
ATOM      1  N   UNL     1      -0.593   3.357  -3.731  0.00  0.00    -0.170 NA
ATOM      2  C   UNL     1       0.619   3.895  -4.366  0.00  0.00    +0.127 C 
ATOM      3  C   UNL     1       0.556   5.427  -4.324  0.00  0.00    +0.127 C 
ATOM      4  N   UNL     1       0.228   5.846  -2.954  0.00  0.00    -0.170 NA
ATOM      5  C   UNL     1      -0.983   5.308  -2.319  0.00  0.00    +0.102 C 
ATOM      6  C   UNL     1      -0.920   3.776  -2.361  0.00  0.00    +0.102 C 
ENDROOT
BRANCH   6   7
ATOM      7  C   UNL     1       0.162   3.280  -1.400  0.00  0.00    +0.009 C 
ATOM      8  C   UNL     1       0.237   1.753  -1.461  0.00  0.00    +0.005 C 
ATOM      9  C   UNL     1       1.319   1.257  -0.500  0.00  0.00    +0.000 C 
ATOM     10  C   UNL     1       0.976   1.695   0.925  0.00  0.00    +0.000 C 
ATOM     11  C   UNL     1       0.901   3.222   0.986  0.00  0.00    +0.000 C 
ATOM     12  C   UNL     1      -0.182   3.718   0.025  0.00  0.00    +0.005 C 
ENDBRANCH   6   7
BRANCH   5  13
ATOM     13  C   UNL     1      -2.219   5.792  -3.080  0.00  0.00    +0.009 C 
ATOM     14  C   UNL     1      -2.198   7.319  -3.169  0.00  0.00    +0.005 C 
ATOM     15  C   UNL     1      -3.434   7.803  -3.929  0.00  0.00    +0.000 C 
ATOM     16  C   UNL     1      -4.696   7.353  -3.191  0.00  0.00    +0.000 C 
ATOM     17  C   UNL     1      -4.718   5.826  -3.102  0.00  0.00    +0.000 C 
ATOM     18  C   UNL     1      -3.481   5.342  -2.341  0.00  0.00    +0.005 C 
ENDBRANCH   5  13
BRANCH   1  19
ATOM     19  S   UNL     1      -1.571   2.298  -4.545  0.00  0.00    +0.061 S 
ATOM     20  O   UNL     1      -0.723   1.520  -5.379  0.00  0.00    -0.153 OA
ATOM     21  O   UNL     1      -2.431   1.713  -3.577  0.00  0.00    -0.153 OA
BRANCH  19  25
ATOM     22  C   UNL     1      -4.199   4.748  -7.298  0.00  0.00    +0.000 A 
ATOM     23  C   UNL     1      -2.917   4.409  -7.688  0.00  0.00    +0.002 A 
ATOM     24  C   UNL     1      -2.115   3.660  -6.848  0.00  0.00    +0.028 A 
ATOM     25  C   UNL     1      -2.594   3.252  -5.617  0.00  0.00    +0.105 A 
ATOM     26  C   UNL     1      -3.878   3.587  -5.230  0.00  0.00    +0.028 A 
ATOM     27  C   UNL     1      -4.679   4.339  -6.068  0.00  0.00    +0.002 A 
ENDBRANCH  19  25
ENDBRANCH   1  19
BRANCH   4  28
ATOM     28  S   UNL     1       1.207   6.905  -2.139  0.00  0.00    +0.061 S 
ATOM     29  O   UNL     1       0.981   6.684  -0.754  0.00  0.00    -0.153 OA
ATOM     30  O   UNL     1       2.496   6.801  -2.728  0.00  0.00    -0.153 OA
BRANCH  28  31
ATOM     31  C   UNL     1       0.623   8.530  -2.491  0.00  0.00    +0.105 A 
ATOM     32  C   UNL     1       1.125   9.226  -3.575  0.00  0.00    +0.028 A 
ATOM     33  C   UNL     1       0.664  10.498  -3.853  0.00  0.00    +0.002 A 
ATOM     34  C   UNL     1      -0.294  11.079  -3.043  0.00  0.00    +0.000 A 
ATOM     35  C   UNL     1      -0.793  10.385  -1.957  0.00  0.00    +0.002 A 
ATOM     36  C   UNL     1      -0.335   9.111  -1.681  0.00  0.00    +0.028 A 
ENDBRANCH  28  31
ENDBRANCH   4  28
TORSDOF 6
