REMARK  Name = ZINC02241485
REMARK  10 active torsions:
REMARK  status: ('A' for Active; 'I' for Inactive)
REMARK    1  A    between atoms: C_1  and  C_2
REMARK    2  A    between atoms: C_4  and  O_37
REMARK    3  A    between atoms: C_5  and  C_9
REMARK    4  A    between atoms: N_17  and  C_33
REMARK    5  A    between atoms: C_18  and  C_20
REMARK    6  A    between atoms: C_24  and  O_26
REMARK    7  A    between atoms: O_26  and  C_27
REMARK    8  A    between atoms: C_33  and  C_34
REMARK    9  A    between atoms: C_34  and  C_35
REMARK   10  A    between atoms: C_35  and  O_36
REMARK                            x       y       z     vdW  Elec       q    Type
REMARK                         _______ _______ _______ _____ _____    ______ ____
ROOT
ATOM      1  C   UNL     1       0.236  -4.199  -0.202  0.00  0.00    +0.102 A 
ATOM      2  C   UNL     1       0.210  -4.995   0.949  0.00  0.00    +0.035 A 
ATOM      3  C   UNL     1       0.131  -6.300   0.502  0.00  0.00    +0.126 A 
ATOM      4  N   UNL     1       0.114  -6.234  -0.863  0.00  0.00    -0.272 N 
ATOM      5  H   UNL     1       0.062  -6.999  -1.457  0.00  0.00    +0.189 HD
ATOM      6  N   UNL     1       0.170  -5.007  -1.242  0.00  0.00    -0.173 NA
ATOM      7  C   UNL     1       0.100  -7.191   1.667  0.00  0.00    +0.265 C 
ATOM      8  O   UNL     1       0.032  -8.404   1.612  0.00  0.00    -0.268 OA
ATOM      9  N   UNL     1       0.156  -6.476   2.805  0.00  0.00    -0.285 N 
ATOM     10  C   UNL     1       0.230  -5.053   2.451  0.00  0.00    +0.141 C 
ENDROOT
BRANCH   1  15
ATOM     11  C   UNL     1       0.546   1.554  -0.363  0.00  0.00    +0.045 C 
ATOM     12  C   UNL     1       0.467   0.049  -0.323  0.00  0.00    -0.029 A 
ATOM     13  C   UNL     1       1.274  -0.705  -1.154  0.00  0.00    +0.050 A 
ATOM     14  C   UNL     1       1.204  -2.088  -1.121  0.00  0.00    +0.126 A 
ATOM     15  C   UNL     1       0.317  -2.718  -0.243  0.00  0.00    +0.045 A 
ATOM     16  C   UNL     1      -0.491  -1.950   0.591  0.00  0.00    +0.034 A 
ATOM     17  C   UNL     1      -0.408  -0.571   0.552  0.00  0.00    +0.045 A 
ATOM     18 CL   UNL     1      -1.411   0.386   1.597  0.00  0.00    -0.083 Cl
BRANCH  14  19
ATOM     19  O   UNL     1       1.996  -2.830  -1.939  0.00  0.00    -0.506 OA
ATOM     20  H   UNL     1       2.852  -3.061  -1.554  0.00  0.00    +0.292 HD
ENDBRANCH  14  19
ENDBRANCH   1  15
BRANCH  10  21
ATOM     21  C   UNL     1       1.508  -4.453   2.977  0.00  0.00    -0.019 A 
ATOM     22  C   UNL     1       2.708  -5.117   2.797  0.00  0.00    +0.006 A 
ATOM     23  C   UNL     1       3.883  -4.569   3.277  0.00  0.00    +0.004 A 
ATOM     24  C   UNL     1       3.861  -3.357   3.939  0.00  0.00    +0.046 A 
ATOM     25  C   UNL     1       2.659  -2.688   4.121  0.00  0.00    +0.129 A 
ATOM     26  C   UNL     1       1.482  -3.238   3.633  0.00  0.00    +0.052 A 
BRANCH  25  27
ATOM     27  O   UNL     1       2.635  -1.496   4.771  0.00  0.00    -0.456 OA
BRANCH  27  28
ATOM     28  C   UNL     1       2.226  -1.484   6.067  0.00  0.00    +0.128 A 
ATOM     29  C   UNL     1       1.782  -2.654   6.666  0.00  0.00    +0.046 A 
ATOM     30  C   UNL     1       1.367  -2.639   7.984  0.00  0.00    +0.004 A 
ATOM     31  C   UNL     1       1.391  -1.459   8.704  0.00  0.00    +0.000 A 
ATOM     32  C   UNL     1       1.833  -0.292   8.109  0.00  0.00    +0.004 A 
ATOM     33  C   UNL     1       2.256  -0.302   6.794  0.00  0.00    +0.046 A 
ENDBRANCH  27  28
ENDBRANCH  25  27
ENDBRANCH  10  21
BRANCH   9  34
ATOM     34  C   UNL     1       0.146  -7.024   4.164  0.00  0.00    +0.111 C 
BRANCH  34  35
ATOM     35  C   UNL     1       1.583  -7.294   4.616  0.00  0.00    +0.047 C 
BRANCH  35  36
ATOM     36  C   UNL     1       1.572  -7.865   6.035  0.00  0.00    +0.157 C 
BRANCH  36  37
ATOM     37  O   UNL     1       2.914  -8.117   6.457  0.00  0.00    -0.395 OA
ATOM     38  H   UNL     1       2.983  -8.482   7.350  0.00  0.00    +0.209 HD
ENDBRANCH  36  37
ENDBRANCH  35  36
ENDBRANCH  34  35
ENDBRANCH   9  34
TORSDOF 9
