REMARK  Name = ZINC34788096
REMARK  6 active torsions:
REMARK  status: ('A' for Active; 'I' for Inactive)
REMARK    1  A    between atoms: C_1  and  C_2
REMARK    2  A    between atoms: C_12  and  S_26
REMARK    3  A    between atoms: N_18  and  C_19
REMARK    4  A    between atoms: C_19  and  C_20
REMARK    5  A    between atoms: S_26  and  C_27
REMARK    6  A    between atoms: C_27  and  C_28
REMARK                            x       y       z     vdW  Elec       q    Type
REMARK                         _______ _______ _______ _____ _____    ______ ____
ROOT
ATOM      1  C   UNL     1       0.073   1.657   0.148  0.00  0.00    +0.008 C 
ATOM      2  C   UNL     1      -0.037   0.131   0.143  0.00  0.00    -0.009 C 
ATOM      3  C   UNL     1       0.568  -0.418  -1.152  0.00  0.00    +0.009 C 
ATOM      4  C   UNL     1       0.221  -1.910  -1.264  0.00  0.00    +0.043 C 
ATOM      5  C   UNL     1       0.525  -2.565   0.049  0.00  0.00    -0.004 A 
ATOM      6  C   UNL     1       0.751  -1.958   1.234  0.00  0.00    -0.024 A 
ATOM      7  C   UNL     1       1.028  -2.822   2.379  0.00  0.00    +0.054 A 
ATOM      8  C   UNL     1       1.308  -2.438   3.781  0.00  0.00    +0.151 A 
ATOM      9  N   UNL     1       1.391  -1.278   4.390  0.00  0.00    -0.234 NA
ATOM     10  C   UNL     1       1.672  -1.480   5.688  0.00  0.00    +0.146 A 
ATOM     11  C   UNL     1       1.771  -2.813   5.904  0.00  0.00    +0.103 A 
ATOM     12  N   UNL     1       1.542  -3.434   4.699  0.00  0.00    -0.259 N 
ATOM     13  C   UNL     1       1.514  -4.750   4.318  0.00  0.00    +0.203 A 
ATOM     14  N   UNL     1       1.267  -5.097   3.078  0.00  0.00    -0.208 NA
ATOM     15  C   UNL     1       1.030  -4.199   2.125  0.00  0.00    +0.116 A 
ATOM     16  S   UNL     1       0.667  -4.299   0.390  0.00  0.00    -0.073 S 
ATOM     17  N   UNL     1       1.752  -5.728   5.257  0.00  0.00    -0.310 N 
ATOM     18  C   UNL     1       0.716  -0.436   1.348  0.00  0.00    +0.040 C 
ATOM     19  H   UNL     1       1.862  -5.488   6.190  0.00  0.00    +0.149 HD
ENDROOT
BRANCH  17  20
ATOM     20  C   UNL     1       1.841  -7.131   4.846  0.00  0.00    +0.139 C 
BRANCH  20  21
ATOM     21  C   UNL     1       2.106  -7.993   6.054  0.00  0.00    -0.030 A 
ATOM     22  C   UNL     1       3.405  -8.259   6.441  0.00  0.00    +0.005 A 
ATOM     23  C   UNL     1       3.648  -9.049   7.550  0.00  0.00    +0.000 A 
ATOM     24  C   UNL     1       2.591  -9.572   8.270  0.00  0.00    +0.000 A 
ATOM     25  C   UNL     1       1.291  -9.305   7.883  0.00  0.00    +0.000 A 
ATOM     26  C   UNL     1       1.048  -8.511   6.778  0.00  0.00    +0.005 A 
ENDBRANCH  20  21
ENDBRANCH  17  20
BRANCH  11  27
ATOM     27  S   UNL     1       2.127  -3.603   7.439  0.00  0.00    -0.101 S 
BRANCH  27  28
ATOM     28  C   UNL     1       1.857  -2.302   8.675  0.00  0.00    +0.111 C 
BRANCH  28  29
ATOM     29  C   UNL     1       2.247  -2.814  10.037  0.00  0.00    -0.037 A 
ATOM     30  C   UNL     1       1.309  -3.449  10.831  0.00  0.00    +0.006 A 
ATOM     31  C   UNL     1       1.666  -3.919  12.080  0.00  0.00    +0.020 A 
ATOM     32  C   UNL     1       2.962  -3.755  12.537  0.00  0.00    +0.041 A 
ATOM     33  C   UNL     1       3.899  -3.120  11.742  0.00  0.00    +0.020 A 
ATOM     34  C   UNL     1       3.543  -2.655  10.491  0.00  0.00    +0.006 A 
ATOM     35 CL   UNL     1       3.410  -4.345  14.107  0.00  0.00    -0.084 Cl
ENDBRANCH  28  29
ENDBRANCH  27  28
ENDBRANCH  11  27
TORSDOF 5
