REMARK  Name = ZINC35808948
REMARK  11 active torsions:
REMARK  status: ('A' for Active; 'I' for Inactive)
REMARK    1  A    between atoms: C_1  and  C_2
REMARK    2  A    between atoms: C_2  and  C_3
REMARK    3  A    between atoms: C_3  and  C_4
REMARK    4  A    between atoms: C_4  and  C_5
REMARK    5  A    between atoms: C_5  and  N_6
REMARK    6  A    between atoms: N_6  and  C_7
REMARK    7  A    between atoms: C_7  and  C_8
REMARK    8  A    between atoms: C_18  and  C_20
REMARK    9  A    between atoms: C_25  and  C_26
REMARK   10  A    between atoms: C_27  and  C_29
REMARK   11  A    between atoms: C_32  and  N_35
REMARK                            x       y       z     vdW  Elec       q    Type
REMARK                         _______ _______ _______ _____ _____    ______ ____
ROOT
ATOM      1  C   UNL     1      -1.263  -5.660  -3.220  0.00  0.00    +0.204 C 
ENDROOT
BRANCH   1   2
ATOM      2  C   UNL     1      -0.876  -5.803  -4.669  0.00  0.00    +0.234 C 
ATOM      3  O   UNL     1       0.065  -5.178  -5.110  0.00  0.00    -0.274 OA
ATOM      4  N   UNL     1      -1.575  -6.627  -5.474  0.00  0.00    -0.289 N 
ATOM      5  C   UNL     1      -2.782  -7.306  -4.980  0.00  0.00    +0.114 C 
ATOM      6  C   UNL     1      -3.989  -6.782  -5.774  0.00  0.00    +0.062 C 
ATOM      7  C   UNL     1      -3.614  -6.703  -7.219  0.00  0.00    -0.003 A 
ATOM      8  C   UNL     1      -2.366  -6.726  -7.761  0.00  0.00    -0.012 A 
ATOM      9  C   UNL     1      -2.285  -6.628  -9.149  0.00  0.00    +0.013 A 
ATOM     10  C   UNL     1      -3.414  -6.521  -9.887  0.00  0.00    +0.046 A 
ATOM     11  S   UNL     1      -4.681  -6.555  -8.627  0.00  0.00    -0.101 S 
ATOM     12  C   UNL     1      -1.144  -6.856  -6.861  0.00  0.00    +0.138 C 
BRANCH  12  13
ATOM     13  C   UNL     1      -0.562  -8.240  -6.993  0.00  0.00    -0.020 A 
ATOM     14  C   UNL     1      -1.366  -9.292  -7.391  0.00  0.00    +0.006 A 
ATOM     15  C   UNL     1      -0.832 -10.561  -7.513  0.00  0.00    +0.000 A 
ATOM     16  C   UNL     1       0.505 -10.778  -7.236  0.00  0.00    +0.000 A 
ATOM     17  C   UNL     1       1.308  -9.726  -6.838  0.00  0.00    +0.004 A 
ATOM     18  C   UNL     1       0.775  -8.456  -6.721  0.00  0.00    -0.045 A 
ATOM     19  C   UNL     1       1.653  -7.308  -6.293  0.00  0.00    +0.044 C 
ENDBRANCH  12  13
ENDBRANCH   1   2
BRANCH   1  20
ATOM     20  N   UNL     1      -0.271  -4.831  -2.529  0.00  0.00    -0.289 N 
ATOM     21  C   UNL     1       0.717  -5.413  -1.821  0.00  0.00    +0.247 C 
ATOM     22  O   UNL     1       1.500  -4.726  -1.193  0.00  0.00    -0.270 OA
BRANCH  21  23
ATOM     23  C   UNL     1       0.850  -6.885  -1.808  0.00  0.00    +0.037 A 
ATOM     24  C   UNL     1       0.730  -7.610  -2.995  0.00  0.00    +0.015 A 
ATOM     25  C   UNL     1       0.855  -8.983  -2.977  0.00  0.00    +0.033 A 
ATOM     26  C   UNL     1       1.099  -9.643  -1.785  0.00  0.00    +0.126 A 
ATOM     27  C   UNL     1       1.218  -8.931  -0.605  0.00  0.00    +0.033 A 
ATOM     28  C   UNL     1       1.101  -7.556  -0.611  0.00  0.00    +0.015 A 
BRANCH  26  29
ATOM     29  N   UNL     1       1.232 -11.117  -1.772  0.00  0.00    +0.056 N 
ATOM     30  O   UNL     1       1.127 -11.742  -2.802  0.00  0.00    -0.126 OA
ATOM     31  O   UNL     1       1.444 -11.696  -0.733  0.00  0.00    -0.126 OA
ENDBRANCH  26  29
ENDBRANCH  21  23
BRANCH  20  32
ATOM     32  C   UNL     1      -0.354  -3.371  -2.608  0.00  0.00    +0.108 C 
BRANCH  32  33
ATOM     33  C   UNL     1      -1.308  -2.855  -1.530  0.00  0.00    +0.019 C 
BRANCH  33  34
ATOM     34  C   UNL     1      -1.395  -1.329  -1.612  0.00  0.00    +0.001 C 
BRANCH  34  36
ATOM     35  C   UNL     1      -2.436   0.712  -0.616  0.00  0.00    +0.004 C 
ATOM     36  C   UNL     1      -2.349  -0.813  -0.533  0.00  0.00    -0.003 C 
ENDBRANCH  34  36
ENDBRANCH  33  34
ENDBRANCH  32  33
ENDBRANCH  20  32
ENDBRANCH   1  20
TORSDOF 9
