REMARK  Name = ZINC33058939
REMARK  11 active torsions:
REMARK  status: ('A' for Active; 'I' for Inactive)
REMARK    1  A    between atoms: C_1  and  C_2
REMARK    2  A    between atoms: C_3  and  S_16
REMARK    3  A    between atoms: C_4  and  C_7
REMARK    4  A    between atoms: C_8  and  C_9
REMARK    5  A    between atoms: S_16  and  N_19
REMARK    6  A    between atoms: C_22  and  C_25
REMARK    7  A    between atoms: N_27  and  C_28
REMARK    8  A    between atoms: C_28  and  C_29
REMARK    9  A    between atoms: C_29  and  C_30
REMARK   10  A    between atoms: C_30  and  N_31
REMARK   11  A    between atoms: C_35  and  C_38
REMARK                            x       y       z     vdW  Elec       q    Type
REMARK                         _______ _______ _______ _____ _____    ______ ____
ROOT
ATOM      1  N   UNL     1      -1.079   3.138   6.113  0.00  0.00    -0.176 NA
ATOM      2  C   UNL     1      -0.926   1.678   6.169  0.00  0.00    +0.110 C 
ATOM      3  C   UNL     1      -0.187   1.211   4.911  0.00  0.00    +0.030 C 
ATOM      4  C   UNL     1      -0.927   1.718   3.671  0.00  0.00    +0.077 C 
ATOM      5  C   UNL     1      -0.949   3.249   3.678  0.00  0.00    +0.030 C 
ATOM      6  C   UNL     1      -1.697   3.739   4.922  0.00  0.00    +0.110 C 
ENDROOT
BRANCH   4   7
ATOM      7  C   UNL     1      -0.222   1.232   2.431  0.00  0.00    +0.216 C 
ATOM      8  O   UNL     1       0.774   0.548   2.529  0.00  0.00    -0.276 OA
ATOM      9  N   UNL     1      -0.698   1.558   1.213  0.00  0.00    -0.315 N 
ATOM     10  H   UNL     1      -1.602   2.179   1.124  0.00  0.00    +0.149 HD
BRANCH   9  11
ATOM     11  C   UNL     1      -0.013   1.086   0.008  0.00  0.00    +0.102 C 
BRANCH  11  12
ATOM     12  C   UNL     1      -0.753   1.593  -1.232  0.00  0.00    +0.000 C 
BRANCH  12  13
ATOM     13  C   UNL     1      -0.037   1.099  -2.490  0.00  0.00    -0.077 C 
BRANCH  13  14
ATOM     14  N   UNL     1      -0.747   1.586  -3.680  0.00  0.00    +0.380 N 
ATOM     15  C   UNL     1      -0.664   3.049  -3.782  0.00  0.00    -0.079 C 
ATOM     16  C   UNL     1      -1.533   3.531  -4.946  0.00  0.00    -0.018 C 
ATOM     17  C   UNL     1      -1.044   2.882  -6.244  0.00  0.00    -0.001 C 
ATOM     18  C   UNL     1      -1.095   1.359  -6.095  0.00  0.00    -0.031 C 
ATOM     19  C   UNL     1      -0.239   0.940  -4.897  0.00  0.00    -0.076 C 
ATOM     20  C   UNL     1      -0.554   0.703  -7.366  0.00  0.00    +0.005 C 
ATOM     21  H   UNL     1      -1.808   1.317  -3.576  0.00  0.00    -0.082 HD
ENDBRANCH  13  14
ENDBRANCH  12  13
ENDBRANCH  11  12
ENDBRANCH   9  11
ENDBRANCH   4   7
BRANCH   1  22
ATOM     22  S   UNL     1      -0.565   4.090   7.367  0.00  0.00    +0.066 S 
ATOM     23  O   UNL     1      -1.315   5.295   7.297  0.00  0.00    -0.153 OA
ATOM     24  O   UNL     1      -0.555   3.265   8.524  0.00  0.00    -0.153 OA
BRANCH  22  27
ATOM     25  C   UNL     1       2.343   2.555   8.228  0.00  0.00    +0.071 C 
ATOM     26  C   UNL     1       2.277   3.833   7.431  0.00  0.00    +0.107 A 
ATOM     27  C   UNL     1       1.112   4.520   7.040  0.00  0.00    +0.174 A 
ATOM     28  C   UNL     1       1.589   5.609   6.350  0.00  0.00    +0.187 A 
ATOM     29  O   UNL     1       2.931   5.502   6.369  0.00  0.00    -0.353 OA
ATOM     30  N   UNL     1       3.287   4.514   6.967  0.00  0.00    -0.081 NA
BRANCH  28  31
ATOM     31  C   UNL     1       0.797   6.670   5.721  0.00  0.00    +0.052 C 
ATOM     32  C   UNL     1       1.414   7.678   5.076  0.00  0.00    +0.014 C 
BRANCH  32  33
ATOM     33  C   UNL     1       0.619   8.743   4.444  0.00  0.00    +0.010 A 
ATOM     34  C   UNL     1      -0.777   8.713   4.512  0.00  0.00    +0.011 A 
ATOM     35  C   UNL     1      -1.515   9.714   3.918  0.00  0.00    +0.001 A 
ATOM     36  C   UNL     1      -0.879  10.750   3.255  0.00  0.00    +0.003 A 
ATOM     37  C   UNL     1       0.502  10.789   3.183  0.00  0.00    +0.039 A 
ATOM     38  C   UNL     1       1.257   9.796   3.777  0.00  0.00    +0.131 A 
ATOM     39  F   UNL     1       2.606   9.839   3.711  0.00  0.00    -0.205 F 
ENDBRANCH  32  33
ENDBRANCH  28  31
ENDBRANCH  22  27
ENDBRANCH   1  22
TORSDOF 9
