REMARK  Name = ZINC01329629
REMARK  8 active torsions:
REMARK  status: ('A' for Active; 'I' for Inactive)
REMARK    1  A    between atoms: C_7  and  C_11
REMARK    2  A    between atoms: C_11  and  C_12
REMARK    3  A    between atoms: N_14  and  C_15
REMARK    4  A    between atoms: N_14  and  C_21
REMARK    5  A    between atoms: C_15  and  C_16
REMARK    6  A    between atoms: C_21  and  C_23
REMARK    7  A    between atoms: C_21  and  C_30
REMARK    8  A    between atoms: N_32  and  C_33
REMARK                            x       y       z     vdW  Elec       q    Type
REMARK                         _______ _______ _______ _____ _____    ______ ____
ROOT
ATOM      1  C   UNL     1      -1.913   2.192   1.721  0.00  0.00    +0.221 C 
ATOM      2  O   UNL     1      -1.615   1.016   1.720  0.00  0.00    -0.275 OA
ATOM      3  N   UNL     1      -1.454   3.003   0.747  0.00  0.00    -0.281 N 
ENDROOT
BRANCH   1   4
ATOM      4  C   UNL     1      -2.796   2.745   2.809  0.00  0.00    +0.133 C 
BRANCH   4  11
ATOM      5  C   UNL     1      -0.675   0.899   6.559  0.00  0.00    +0.001 A 
ATOM      6  C   UNL     1      -1.406  -0.127   7.144  0.00  0.00    +0.002 A 
ATOM      7  C   UNL     1      -2.622  -0.509   6.622  0.00  0.00    +0.026 A 
ATOM      8  C   UNL     1      -3.125   0.137   5.497  0.00  0.00    +0.047 A 
ATOM      9  C   UNL     1      -2.380   1.175   4.908  0.00  0.00    +0.003 A 
ATOM     10  C   UNL     1      -1.150   1.547   5.454  0.00  0.00    +0.010 A 
ATOM     11  C   UNL     1      -3.168   1.640   3.764  0.00  0.00    -0.014 A 
ATOM     12  C   UNL     1      -4.287   0.900   3.732  0.00  0.00    +0.087 A 
ATOM     13  N   UNL     1      -4.276  -0.007   4.756  0.00  0.00    -0.360 N 
ATOM     14  H   UNL     1      -4.977  -0.654   4.936  0.00  0.00    +0.165 HD
ENDBRANCH   4  11
ENDBRANCH   1   4
BRANCH   3  15
ATOM     15  C   UNL     1      -1.814   4.423   0.747  0.00  0.00    +0.151 C 
BRANCH  15  16
ATOM     16  C   UNL     1      -3.309   4.563   0.619  0.00  0.00    +0.007 A 
ATOM     17  C   UNL     1      -4.215   4.941   1.554  0.00  0.00    +0.013 A 
ATOM     18  C   UNL     1      -5.551   4.999   1.208  0.00  0.00    +0.008 A 
ATOM     19  C   UNL     1      -5.918   4.676  -0.056  0.00  0.00    +0.045 A 
ATOM     20  S   UNL     1      -4.347   4.279  -0.806  0.00  0.00    -0.100 S 
ENDBRANCH  15  16
ENDBRANCH   3  15
BRANCH   3  21
ATOM     21  C   UNL     1      -0.596   2.465  -0.311  0.00  0.00    +0.193 C 
BRANCH  21  22
ATOM     22  C   UNL     1       0.795   3.028  -0.164  0.00  0.00    -0.018 A 
ATOM     23  C   UNL     1       0.974   4.385   0.026  0.00  0.00    +0.009 A 
ATOM     24  C   UNL     1       2.249   4.903   0.155  0.00  0.00    +0.038 A 
ATOM     25  C   UNL     1       3.347   4.062   0.094  0.00  0.00    +0.123 A 
ATOM     26  C   UNL     1       3.166   2.703  -0.097  0.00  0.00    +0.038 A 
ATOM     27  C   UNL     1       1.890   2.187  -0.226  0.00  0.00    +0.009 A 
ATOM     28  F   UNL     1       4.593   4.567   0.220  0.00  0.00    -0.205 F 
ENDBRANCH  21  22
BRANCH  21  29
ATOM     29  C   UNL     1      -1.154   2.852  -1.656  0.00  0.00    +0.238 C 
ATOM     30  O   UNL     1      -2.016   3.701  -1.734  0.00  0.00    -0.273 OA
ATOM     31  N   UNL     1      -0.696   2.253  -2.773  0.00  0.00    -0.311 N 
ATOM     32  H   UNL     1      -0.006   1.573  -2.711  0.00  0.00    +0.149 HD
BRANCH  31  33
ATOM     33  C   UNL     1      -1.239   2.628  -4.081  0.00  0.00    +0.073 C 
ATOM     34  C   UNL     1      -2.515   1.828  -4.352  0.00  0.00    +0.022 C 
ATOM     35  C   UNL     1      -3.082   2.220  -5.718  0.00  0.00    +0.002 C 
ATOM     36  C   UNL     1      -2.050   1.917  -6.805  0.00  0.00    +0.000 C 
ATOM     37  C   UNL     1      -0.774   2.717  -6.534  0.00  0.00    +0.002 C 
ATOM     38  C   UNL     1      -0.206   2.325  -5.168  0.00  0.00    +0.022 C 
ENDBRANCH  31  33
ENDBRANCH  21  29
ENDBRANCH   3  21
TORSDOF 8
