REMARK  Name = ZINC01327695
REMARK  6 active torsions:
REMARK  status: ('A' for Active; 'I' for Inactive)
REMARK    1  A    between atoms: C_3  and  S_17
REMARK    2  A    between atoms: C_6  and  S_7
REMARK    3  A    between atoms: S_7  and  N_10
REMARK    4  A    between atoms: N_10  and  C_11
REMARK    5  A    between atoms: S_17  and  N_20
REMARK    6  A    between atoms: C_23  and  C_26
REMARK                            x       y       z     vdW  Elec       q    Type
REMARK                         _______ _______ _______ _____ _____    ______ ____
ROOT
ATOM      1  S   UNL     1       3.891   2.312  -0.024  0.00  0.00    +0.061 S 
ATOM      2  O   UNL     1       4.872   1.453  -0.588  0.00  0.00    -0.153 OA
ATOM      3  O   UNL     1       3.597   3.593  -0.566  0.00  0.00    -0.153 OA
ENDROOT
BRANCH   1   6
ATOM      4  C   UNL     1      -0.017   1.378   0.010  0.00  0.00    +0.030 A 
ATOM      5  C   UNL     1       1.171   2.086   0.002  0.00  0.00    +0.030 A 
ATOM      6  C   UNL     1       2.377   1.411  -0.013  0.00  0.00    +0.106 A 
ATOM      7  C   UNL     1       2.396   0.029  -0.020  0.00  0.00    +0.030 A 
ATOM      8  C   UNL     1       1.208  -0.679  -0.012  0.00  0.00    +0.030 A 
ATOM      9  C   UNL     1       0.002  -0.004   0.002  0.00  0.00    +0.105 A 
BRANCH   9  10
ATOM     10  S   UNL     1      -1.512  -0.906   0.012  0.00  0.00    +0.059 S 
ATOM     11  O   UNL     1      -1.218  -2.186   0.553  0.00  0.00    -0.153 OA
ATOM     12  O   UNL     1      -2.492  -0.047   0.577  0.00  0.00    -0.153 OA
BRANCH  10  13
ATOM     13  N   UNL     1      -1.948  -1.148  -1.567  0.00  0.00    -0.187 NA
ATOM     14  H   UNL     1      -2.756  -0.739  -1.915  0.00  0.00    +0.148 HD
BRANCH  13  15
ATOM     15  C   UNL     1      -1.114  -1.980  -2.438  0.00  0.00    +0.077 C 
ATOM     16  C   UNL     1      -0.149  -1.089  -3.223  0.00  0.00    +0.020 C 
ATOM     17  C   UNL     1       0.722  -1.958  -4.133  0.00  0.00    +0.002 C 
ATOM     18  C   UNL     1      -0.170  -2.728  -5.109  0.00  0.00    +0.000 C 
ATOM     19  C   UNL     1      -1.135  -3.619  -4.324  0.00  0.00    +0.002 C 
ATOM     20  C   UNL     1      -2.006  -2.750  -3.414  0.00  0.00    +0.020 C 
ENDBRANCH  13  15
ENDBRANCH  10  13
ENDBRANCH   9  10
ENDBRANCH   1   6
BRANCH   1  21
ATOM     21  N   UNL     1       4.327   2.556   1.555  0.00  0.00    -0.177 NA
ATOM     22  C   UNL     1       3.873   3.749   2.282  0.00  0.00    +0.110 C 
ATOM     23  C   UNL     1       5.093   4.459   2.876  0.00  0.00    +0.028 C 
ATOM     24  C   UNL     1       5.890   3.469   3.729  0.00  0.00    +0.057 C 
ATOM     25  C   UNL     1       6.382   2.317   2.850  0.00  0.00    +0.028 C 
ATOM     26  C   UNL     1       5.171   1.579   2.257  0.00  0.00    +0.110 C 
BRANCH  24  27
ATOM     27  C   UNL     1       7.073   4.173   4.342  0.00  0.00    +0.111 A 
ATOM     28  N   UNL     1       8.273   4.359   3.729  0.00  0.00    -0.342 N 
ATOM     29  H   UNL     1       8.513   4.067   2.836  0.00  0.00    +0.167 HD
ATOM     30  C   UNL     1       9.085   5.041   4.614  0.00  0.00    +0.066 A 
ATOM     31  C   UNL     1      10.391   5.506   4.563  0.00  0.00    +0.029 A 
ATOM     32  C   UNL     1      10.927   6.169   5.646  0.00  0.00    +0.022 A 
ATOM     33  C   UNL     1      10.167   6.375   6.791  0.00  0.00    +0.043 A 
ATOM     34  C   UNL     1       8.870   5.920   6.860  0.00  0.00    +0.050 A 
ATOM     35  C   UNL     1       8.312   5.246   5.769  0.00  0.00    +0.090 A 
ATOM     36  N   UNL     1       7.093   4.697   5.533  0.00  0.00    -0.232 NA
ATOM     37 CL   UNL     1      10.860   7.211   8.145  0.00  0.00    -0.083 Cl
ENDBRANCH  24  27
ENDBRANCH   1  21
TORSDOF 6
