REMARK  Name = ZINC08843862
REMARK  6 active torsions:
REMARK  status: ('A' for Active; 'I' for Inactive)
REMARK    1  A    between atoms: C_1  and  C_2
REMARK    2  A    between atoms: C_3  and  C_18
REMARK    3  A    between atoms: C_4  and  C_10
REMARK    4  A    between atoms: C_13  and  O_16
REMARK    5  A    between atoms: O_16  and  C_17
REMARK    6  A    between atoms: N_20  and  C_21
REMARK                            x       y       z     vdW  Elec       q    Type
REMARK                         _______ _______ _______ _____ _____    ______ ____
ROOT
ATOM      1  C   UNL     1       0.176   4.487  -0.713  0.00  0.00    +0.061 C 
ATOM      2  C   UNL     1      -0.058   3.135  -0.088  0.00  0.00    +0.017 C 
ATOM      3  C   UNL     1      -1.303   2.793   0.305  0.00  0.00    +0.056 C 
ATOM      4  C   UNL     1      -1.496   1.423   0.922  0.00  0.00    +0.139 C 
ATOM      5  N   UNL     1      -0.299   0.576   1.054  0.00  0.00    -0.315 N 
ATOM      6  C   UNL     1       0.880   1.058   0.613  0.00  0.00    +0.135 C 
ATOM      7  S   UNL     1       2.279   0.082   0.754  0.00  0.00    -0.019 S 
ATOM      8  N   UNL     1       0.992   2.277   0.070  0.00  0.00    -0.300 N 
ATOM      9  H   UNL     1      -0.358  -0.310   1.444  0.00  0.00    +0.149 HD
ATOM     10  H   UNL     1       1.869   2.567  -0.228  0.00  0.00    +0.154 HD
ENDROOT
BRANCH   4  11
ATOM     11  C   UNL     1      -2.082   1.616   2.297  0.00  0.00    -0.022 A 
ATOM     12  C   UNL     1      -1.271   2.019   3.342  0.00  0.00    +0.009 A 
ATOM     13  C   UNL     1      -1.807   2.202   4.602  0.00  0.00    +0.046 A 
ATOM     14  C   UNL     1      -3.157   1.970   4.821  0.00  0.00    +0.120 A 
ATOM     15  C   UNL     1      -3.967   1.560   3.772  0.00  0.00    +0.046 A 
ATOM     16  C   UNL     1      -3.428   1.384   2.513  0.00  0.00    +0.009 A 
BRANCH  14  17
ATOM     17  O   UNL     1      -3.685   2.143   6.062  0.00  0.00    -0.495 OA
ATOM     18  C   UNL     1      -2.792   2.567   7.093  0.00  0.00    +0.277 C 
ENDBRANCH  14  17
ENDBRANCH   4  11
BRANCH   3  19
ATOM     19  C   UNL     1      -2.393   3.683   0.142  0.00  0.00    +0.248 C 
ATOM     20  O   UNL     1      -3.207   3.492  -0.743  0.00  0.00    -0.270 OA
ATOM     21  N   UNL     1      -2.529   4.740   0.967  0.00  0.00    -0.282 N 
ATOM     22  H   UNL     1      -1.842   4.935   1.623  0.00  0.00    +0.155 HD
BRANCH  21  23
ATOM     23  C   UNL     1      -3.663   5.555   0.878  0.00  0.00    +0.034 A 
ATOM     24  C   UNL     1      -4.240   5.810  -0.359  0.00  0.00    +0.024 A 
ATOM     25  C   UNL     1      -5.362   6.611  -0.444  0.00  0.00    +0.017 A 
ATOM     26  C   UNL     1      -5.904   7.169   0.701  0.00  0.00    +0.018 A 
ATOM     27  C   UNL     1      -5.327   6.921   1.934  0.00  0.00    +0.017 A 
ATOM     28  C   UNL     1      -4.208   6.116   2.025  0.00  0.00    +0.024 A 
ATOM     29 BR   UNL     1      -7.435   8.271   0.580  0.00  0.00    -0.050 Br
ENDBRANCH  21  23
ENDBRANCH   3  19
TORSDOF 4
