REMARK  Name = ZINC40314782
REMARK  12 active torsions:
REMARK  status: ('A' for Active; 'I' for Inactive)
REMARK    1  A    between atoms: C_1  and  O_2
REMARK    2  A    between atoms: O_2  and  C_3
REMARK    3  A    between atoms: C_8  and  O_9
REMARK    4  A    between atoms: O_9  and  C_10
REMARK    5  A    between atoms: C_10  and  C_11
REMARK    6  A    between atoms: C_11  and  C_13
REMARK    7  A    between atoms: C_11  and  O_36
REMARK    8  A    between atoms: C_13  and  N_14
REMARK    9  A    between atoms: N_14  and  C_15
REMARK   10  A    between atoms: N_14  and  C_28
REMARK   11  A    between atoms: C_15  and  C_16
REMARK   12  A    between atoms: C_19  and  C_21
REMARK                            x       y       z     vdW  Elec       q    Type
REMARK                         _______ _______ _______ _____ _____    ______ ____
ROOT
ATOM      1  N   UNL     1       2.110  -7.043   0.408  0.00  0.00    +0.389 N 
ATOM      2  H   UNL     1       2.494  -7.195   1.329  0.00  0.00    -0.081 HD
ENDROOT
BRANCH   1   3
ATOM      3  C   UNL     1       2.900  -6.020  -0.290  0.00  0.00    -0.045 C 
ATOM      4  C   UNL     1       4.392  -6.391  -0.238  0.00  0.00    +0.009 C 
ATOM      5  C   UNL     1       5.252  -5.182  -0.679  0.00  0.00    +0.164 C 
ATOM      6  S   UNL     1       4.199  -3.747  -0.213  0.00  0.00    -0.033 S 
ATOM      7  O   UNL     1       3.844  -3.033  -1.390  0.00  0.00    -0.174 OA
ATOM      8  O   UNL     1       4.813  -3.055   0.866  0.00  0.00    -0.174 OA
ATOM      9  C   UNL     1       2.718  -4.645   0.413  0.00  0.00    +0.151 C 
ENDBRANCH   1   3
BRANCH   1  10
ATOM     10  C   UNL     1       0.718  -6.590   0.527  0.00  0.00    -0.043 C 
BRANCH  10  11
ATOM     11  C   UNL     1       0.376  -6.375   2.003  0.00  0.00    +0.135 C 
BRANCH  11  12
ATOM     12  O   UNL     1       0.412  -7.630   2.687  0.00  0.00    -0.390 OA
ATOM     13  H   UNL     1      -0.211  -8.284   2.342  0.00  0.00    +0.210 HD
ENDBRANCH  11  12
BRANCH  11  14
ATOM     14  C   UNL     1      -1.025  -5.771   2.119  0.00  0.00    +0.258 C 
BRANCH  14  15
ATOM     15  O   UNL     1      -1.298  -5.463   3.487  0.00  0.00    -0.486 OA
BRANCH  15  21
ATOM     16  C   UNL     1      -2.845  -4.589   5.077  0.00  0.00    +0.161 A 
ATOM     17  C   UNL     1      -4.080  -4.025   5.355  0.00  0.00    +0.049 A 
ATOM     18  C   UNL     1      -4.979  -3.791   4.332  0.00  0.00    +0.004 A 
ATOM     19  C   UNL     1      -4.650  -4.119   3.030  0.00  0.00    +0.004 A 
ATOM     20  C   UNL     1      -3.420  -4.683   2.745  0.00  0.00    +0.049 A 
ATOM     21  C   UNL     1      -2.511  -4.914   3.766  0.00  0.00    +0.162 A 
BRANCH  16  23
ATOM     22  C   UNL     1      -2.369  -4.460   7.404  0.00  0.00    +0.277 C 
ATOM     23  O   UNL     1      -1.959  -4.819   6.083  0.00  0.00    -0.491 OA
ENDBRANCH  16  23
ENDBRANCH  15  21
ENDBRANCH  14  15
ENDBRANCH  11  14
ENDBRANCH  10  11
ENDBRANCH   1  10
BRANCH   1  24
ATOM     24  C   UNL     1       2.153  -8.299  -0.353  0.00  0.00    -0.003 C 
BRANCH  24  25
ATOM     25  C   UNL     1       3.559  -8.841  -0.349  0.00  0.00    +0.089 A 
ATOM     26  C   UNL     1       4.231  -9.273   0.736  0.00  0.00    +0.043 A 
ATOM     27  C   UNL     1       5.502  -9.693   0.295  0.00  0.00    +0.050 A 
ATOM     28  C   UNL     1       5.535  -9.493  -1.049  0.00  0.00    +0.135 A 
ATOM     29  O   UNL     1       4.348  -8.981  -1.427  0.00  0.00    -0.462 OA
BRANCH  28  30
ATOM     30  C   UNL     1       6.674  -9.791  -1.942  0.00  0.00    +0.019 A 
ATOM     31  C   UNL     1       7.851 -10.333  -1.421  0.00  0.00    +0.011 A 
ATOM     32  C   UNL     1       8.911 -10.608  -2.260  0.00  0.00    +0.002 A 
ATOM     33  C   UNL     1       8.811 -10.349  -3.615  0.00  0.00    +0.020 A 
ATOM     34  C   UNL     1       7.648  -9.811  -4.139  0.00  0.00    +0.042 A 
ATOM     35  C   UNL     1       6.577  -9.537  -3.311  0.00  0.00    +0.031 A 
ATOM     36 CL   UNL     1       7.532  -9.488  -5.841  0.00  0.00    -0.084 Cl
ENDBRANCH  28  30
ENDBRANCH  24  25
ENDBRANCH   1  24
TORSDOF 11
