REMARK  Name = ZINC34954621
REMARK  9 active torsions:
REMARK  status: ('A' for Active; 'I' for Inactive)
REMARK    1  A    between atoms: C_1  and  C_2
REMARK    2  A    between atoms: C_2  and  C_3
REMARK    3  A    between atoms: C_3  and  C_4
REMARK    4  A    between atoms: C_9  and  C_24
REMARK    5  A    between atoms: C_14  and  C_22
REMARK    6  A    between atoms: C_15  and  N_21
REMARK    7  A    between atoms: C_16  and  C_17
REMARK    8  A    between atoms: C_16  and  C_19
REMARK    9  A    between atoms: C_24  and  C_25
REMARK                            x       y       z     vdW  Elec       q    Type
REMARK                         _______ _______ _______ _____ _____    ______ ____
ROOT
ATOM      1  C   UNL     1       0.850  -2.021  -1.205  0.00  0.00    +0.036 C 
ATOM      2  C   UNL     1       1.571  -2.516  -2.461  0.00  0.00    +0.026 C 
ATOM      3  C   UNL     1       0.720  -2.356  -3.699  0.00  0.00    +0.012 C 
ATOM      4  C   UNL     1       1.093  -1.102  -4.488  0.00  0.00    -0.007 C 
ATOM      5  C   UNL     1       2.571  -1.204  -4.887  0.00  0.00    +0.031 C 
ATOM      6  C   UNL     1       3.385  -1.269  -3.620  0.00  0.00    -0.021 C 
ATOM      7  C   UNL     1       2.898  -1.824  -2.545  0.00  0.00    -0.029 C 
ATOM      8  C   UNL     1       3.697  -1.746  -1.294  0.00  0.00    +0.074 C 
ATOM      9  C   UNL     1       3.101  -2.018  -0.106  0.00  0.00    +0.054 C 
ATOM     10  C   UNL     1       1.661  -2.424   0.026  0.00  0.00    +0.184 C 
ENDROOT
BRANCH   9  11
ATOM     11  N   UNL     1       3.851  -1.919   1.032  0.00  0.00    -0.358 N 
ATOM     12  H   UNL     1       4.784  -1.659   0.977  0.00  0.00    +0.142 HD
ATOM     13  H   UNL     1       3.450  -2.108   1.895  0.00  0.00    +0.142 HD
ENDBRANCH   9  11
BRANCH  10  14
ATOM     14  C   UNL     1       1.587  -3.884   0.194  0.00  0.00    +0.091 C 
ATOM     15  N   UNL     1       1.530  -5.011   0.323  0.00  0.00    -0.195 NA
ENDBRANCH  10  14
BRANCH  10  16
ATOM     16  C   UNL     1       1.084  -1.776   1.215  0.00  0.00    +0.091 C 
ATOM     17  N   UNL     1       0.638  -1.275   2.132  0.00  0.00    -0.195 NA
ENDBRANCH  10  16
BRANCH   8  18
ATOM     18  C   UNL     1       5.083  -1.388  -1.342  0.00  0.00    +0.101 C 
ATOM     19  N   UNL     1       6.182  -1.104  -1.380  0.00  0.00    -0.191 NA
ENDBRANCH   8  18
BRANCH   4  20
ATOM     20  C   UNL     1       0.225  -1.007  -5.744  0.00  0.00    +0.000 C 
ATOM     21  C   UNL     1       0.514   0.311  -6.465  0.00  0.00    +0.004 C 
ENDBRANCH   4  20
BRANCH   1  22
ATOM     22  C   UNL     1       0.718  -0.497  -1.257  0.00  0.00    +0.007 C 
BRANCH  22  24
ATOM     23  C   UNL     1      -0.636   1.453  -0.480  0.00  0.00    +0.004 C 
ATOM     24  C   UNL     1      -0.403  -0.050  -0.317  0.00  0.00    -0.003 C 
ENDBRANCH  22  24
ENDBRANCH   1  22
TORSDOF 7
