REMARK  Name = ZINC14547139
REMARK  4 active torsions:
REMARK  status: ('A' for Active; 'I' for Inactive)
REMARK    1  A    between atoms: C_3  and  C_7
REMARK    2  A    between atoms: C_18  and  S_23
REMARK    3  A    between atoms: S_23  and  N_26
REMARK    4  A    between atoms: N_26  and  C_27
REMARK                            x       y       z     vdW  Elec       q    Type
REMARK                         _______ _______ _______ _____ _____    ______ ____
ROOT
ATOM      1  C   UNL     1      -2.397  -0.049   0.519  0.00  0.00    +0.106 C 
ATOM      2  C   UNL     1      -2.540   1.299  -0.163  0.00  0.00    +0.029 C 
ATOM      3  C   UNL     1      -2.549   1.144  -1.702  0.00  0.00    +0.033 C 
ATOM      4  C   UNL     1      -1.988   2.474  -2.183  0.00  0.00    -0.030 C 
ATOM      5  C   UNL     1      -1.296   3.048  -1.231  0.00  0.00    -0.023 C 
ATOM      6  C   UNL     1      -1.291   2.180   0.020  0.00  0.00    +0.049 C 
ATOM      7  C   UNL     1      -0.017   1.379   0.010  0.00  0.00    -0.018 A 
ATOM      8  C   UNL     1       1.188   2.070   0.002  0.00  0.00    +0.034 A 
ATOM      9  C   UNL     1       2.387   1.387  -0.016  0.00  0.00    +0.106 A 
ATOM     10  C   UNL     1       2.401   0.004  -0.026  0.00  0.00    +0.030 A 
ATOM     11  C   UNL     1       1.209  -0.693  -0.018  0.00  0.00    +0.025 A 
ATOM     12  C   UNL     1       0.002  -0.004   0.002  0.00  0.00    +0.031 A 
ATOM     13  N   UNL     1      -1.196  -0.728   0.019  0.00  0.00    -0.336 N 
ATOM     14  H   UNL     1      -1.231  -1.647  -0.289  0.00  0.00    +0.147 HD
ENDROOT
BRANCH   1  17
ATOM     15  C   UNL     1      -3.218   0.167   4.196  0.00  0.00    +0.020 A 
ATOM     16  C   UNL     1      -3.377  -0.024   2.832  0.00  0.00    +0.008 A 
ATOM     17  C   UNL     1      -2.276   0.152   2.008  0.00  0.00    -0.009 A 
ATOM     18  C   UNL     1      -1.067   0.520   2.569  0.00  0.00    +0.116 A 
ATOM     19  N   UNL     1      -0.954   0.698   3.871  0.00  0.00    -0.263 NA
ATOM     20  C   UNL     1      -1.979   0.534   4.685  0.00  0.00    +0.111 A 
ENDBRANCH   1  17
BRANCH   9  21
ATOM     21  S   UNL     1       3.906   2.280  -0.024  0.00  0.00    +0.059 S 
ATOM     22  O   UNL     1       3.630   3.555   0.539  0.00  0.00    -0.153 OA
ATOM     23  O   UNL     1       4.892   1.408   0.510  0.00  0.00    -0.153 OA
BRANCH  21  24
ATOM     24  N   UNL     1       4.312   2.540  -1.608  0.00  0.00    -0.187 NA
ATOM     25  H   UNL     1       5.110   2.131  -1.978  0.00  0.00    +0.148 HD
BRANCH  24  26
ATOM     26  C   UNL     1       3.466   3.388  -2.452  0.00  0.00    +0.077 C 
ATOM     27  C   UNL     1       2.480   2.513  -3.229  0.00  0.00    +0.020 C 
ATOM     28  C   UNL     1       1.597   3.398  -4.110  0.00  0.00    +0.002 C 
ATOM     29  C   UNL     1       2.473   4.175  -5.093  0.00  0.00    +0.000 C 
ATOM     30  C   UNL     1       3.459   5.051  -4.316  0.00  0.00    +0.002 C 
ATOM     31  C   UNL     1       4.343   4.165  -3.435  0.00  0.00    +0.020 C 
ENDBRANCH  24  26
ENDBRANCH  21  24
ENDBRANCH   9  21
TORSDOF 4
