REMARK  Name = ZINC38970913
REMARK  9 active torsions:
REMARK  status: ('A' for Active; 'I' for Inactive)
REMARK    1  A    between atoms: C_1  and  C_2
REMARK    2  A    between atoms: C_2  and  C_3
REMARK    3  A    between atoms: C_3  and  C_5
REMARK    4  A    between atoms: C_3  and  C_6
REMARK    5  A    between atoms: C_9  and  N_12
REMARK    6  A    between atoms: N_12  and  C_13
REMARK    7  A    between atoms: N_16  and  S_17
REMARK    8  A    between atoms: S_17  and  C_20
REMARK    9  A    between atoms: C_23  and  C_26
REMARK                            x       y       z     vdW  Elec       q    Type
REMARK                         _______ _______ _______ _____ _____    ______ ____
ROOT
ATOM      1  C   UNL     1      -0.349  -6.793  -2.612  0.00  0.00    +0.237 C 
ATOM      2  C   UNL     1       0.484  -7.947  -3.122  0.00  0.00    +0.192 C 
ATOM      3  N   UNL     1       1.688  -7.744  -3.569  0.00  0.00    -0.110 NA
ATOM      4  N   UNL     1      -0.037  -9.184  -3.106  0.00  0.00    -0.226 NA
ATOM      5  C   UNL     1      -1.253  -9.415  -2.658  0.00  0.00    +0.089 A 
ATOM      6  C   UNL     1      -1.772 -10.735  -2.656  0.00  0.00    +0.030 A 
ATOM      7  C   UNL     1      -3.019 -10.978  -2.197  0.00  0.00    +0.002 A 
ATOM      8  C   UNL     1      -3.859  -9.965  -1.707  0.00  0.00    +0.002 A 
ATOM      9  C   UNL     1      -3.464  -8.673  -1.664  0.00  0.00    +0.027 A 
ATOM     10  C   UNL     1      -2.119  -8.325  -2.145  0.00  0.00    +0.063 A 
ATOM     11  N   UNL     1      -1.703  -7.090  -2.118  0.00  0.00    -0.359 N 
ATOM     12  H   UNL     1      -2.274  -6.383  -1.781  0.00  0.00    +0.162 HD
ENDROOT
BRANCH   3  13
ATOM     13  S   UNL     1       2.590  -9.016  -4.125  0.00  0.00    +0.100 S 
ATOM     14  O   UNL     1       2.852  -9.850  -3.005  0.00  0.00    -0.146 OA
ATOM     15  O   UNL     1       1.940  -9.495  -5.295  0.00  0.00    -0.146 OA
BRANCH  13  16
ATOM     16  C   UNL     1       4.144  -8.367  -4.643  0.00  0.00    +0.113 A 
ATOM     17  C   UNL     1       4.314  -7.936  -5.945  0.00  0.00    +0.029 A 
ATOM     18  C   UNL     1       5.533  -7.426  -6.351  0.00  0.00    +0.005 A 
ATOM     19  C   UNL     1       6.582  -7.346  -5.454  0.00  0.00    -0.050 A 
ATOM     20  C   UNL     1       6.412  -7.776  -4.152  0.00  0.00    +0.005 A 
ATOM     21  C   UNL     1       5.192  -8.282  -3.745  0.00  0.00    +0.029 A 
ATOM     22  C   UNL     1       7.912  -6.792  -5.897  0.00  0.00    +0.044 C 
ENDBRANCH  13  16
ENDBRANCH   3  13
BRANCH   1  23
ATOM     23  N   UNL     1       0.393  -6.153  -1.523  0.00  0.00    -0.318 N 
ATOM     24  H   UNL     1       0.740  -6.688  -0.792  0.00  0.00    +0.148 HD
BRANCH  23  28
ATOM     25  C   UNL     1       1.010  -2.035  -1.565  0.00  0.00    -0.044 A 
ATOM     26  C   UNL     1       0.168  -2.616  -2.495  0.00  0.00    +0.006 A 
ATOM     27  C   UNL     1      -0.039  -3.981  -2.485  0.00  0.00    +0.023 A 
ATOM     28  C   UNL     1       0.600  -4.771  -1.538  0.00  0.00    +0.029 A 
ATOM     29  C   UNL     1       1.446  -4.185  -0.604  0.00  0.00    +0.023 A 
ATOM     30  C   UNL     1       1.653  -2.820  -0.625  0.00  0.00    +0.006 A 
BRANCH  25  31
ATOM     31  C   UNL     1       1.234  -0.545  -1.580  0.00  0.00    +0.016 C 
ATOM     32  C   UNL     1      -0.100   0.173  -1.364  0.00  0.00    +0.012 C 
BRANCH  31  34
ATOM     33  C   UNL     1       2.166   1.360  -2.902  0.00  0.00    +0.004 C 
ATOM     34  C   UNL     1       1.823  -0.131  -2.931  0.00  0.00    +0.004 C 
ENDBRANCH  31  34
ENDBRANCH  25  31
ENDBRANCH  23  28
ENDBRANCH   1  23
TORSDOF 6
