REMARK  Name = ZINC40947197
REMARK  11 active torsions:
REMARK  status: ('A' for Active; 'I' for Inactive)
REMARK    1  A    between atoms: C_1  and  C_2
REMARK    2  A    between atoms: C_2  and  O_3
REMARK    3  A    between atoms: O_3  and  C_4
REMARK    4  A    between atoms: C_6  and  C_20
REMARK    5  A    between atoms: C_9  and  O_10
REMARK    6  A    between atoms: O_10  and  C_11
REMARK    7  A    between atoms: C_11  and  C_12
REMARK    8  A    between atoms: N_21  and  N_22
REMARK    9  A    between atoms: C_23  and  C_25
REMARK   10  A    between atoms: C_25  and  S_26
REMARK   11  A    between atoms: S_26  and  C_27
REMARK                            x       y       z     vdW  Elec       q    Type
REMARK                         _______ _______ _______ _____ _____    ______ ____
ROOT
ATOM      1  C   UNL     1       0.777  -1.811  -1.336  0.00  0.00    +0.163 A 
ATOM      2  C   UNL     1       0.244  -2.665  -0.389  0.00  0.00    +0.059 A 
ATOM      3  C   UNL     1       0.354  -4.048  -0.560  0.00  0.00    -0.002 A 
ATOM      4  C   UNL     1       1.002  -4.560  -1.687  0.00  0.00    +0.013 A 
ATOM      5  C   UNL     1       1.531  -3.701  -2.627  0.00  0.00    +0.050 A 
ATOM      6  C   UNL     1       1.417  -2.329  -2.460  0.00  0.00    +0.162 A 
ENDROOT
BRANCH   3   7
ATOM      7  C   UNL     1      -0.211  -4.964   0.447  0.00  0.00    +0.138 C 
ATOM      8  N   UNL     1      -0.108  -6.248   0.287  0.00  0.00    -0.188 NA
BRANCH   8   9
ATOM      9  N   UNL     1      -0.645  -7.119   1.244  0.00  0.00    -0.206 N 
ATOM     10  C   UNL     1      -0.538  -8.452   1.078  0.00  0.00    +0.242 C 
ATOM     11  O   UNL     1       0.024  -8.898   0.100  0.00  0.00    -0.273 OA
ATOM     12  H   UNL     1      -1.095  -6.762   2.026  0.00  0.00    +0.177 HD
BRANCH  10  13
ATOM     13  C   UNL     1      -1.117  -9.388   2.108  0.00  0.00    +0.173 C 
BRANCH  13  14
ATOM     14  S   UNL     1      -0.812 -11.104   1.603  0.00  0.00    -0.088 S 
BRANCH  14  15
ATOM     15  C   UNL     1      -1.538 -12.062   2.891  0.00  0.00    +0.160 A 
ATOM     16  N   UNL     1      -2.168 -11.661   3.978  0.00  0.00    -0.133 NA
ATOM     17  N   UNL     1      -2.664 -12.589   4.864  0.00  0.00    -0.125 NA
ATOM     18  C   UNL     1      -2.507 -13.876   4.623  0.00  0.00    +0.180 A 
ATOM     19  S   UNL     1      -1.624 -13.837   3.070  0.00  0.00    -0.025 S 
ATOM     20  N   UNL     1      -2.922 -14.970   5.373  0.00  0.00    -0.336 N 
ATOM     21  H   UNL     1      -3.402 -14.834   6.205  0.00  0.00    +0.144 HD
ATOM     22  H   UNL     1      -2.731 -15.870   5.065  0.00  0.00    +0.144 HD
ENDBRANCH  14  15
ENDBRANCH  13  14
ENDBRANCH  10  13
ENDBRANCH   8   9
ENDBRANCH   3   7
BRANCH   1  23
ATOM     23  O   UNL     1       0.671  -0.465  -1.174  0.00  0.00    -0.489 OA
BRANCH  23  25
ATOM     24  C   UNL     1      -0.019   1.526   0.010  0.00  0.00    +0.048 C 
ATOM     25  C   UNL     1       0.002  -0.004   0.002  0.00  0.00    +0.226 C 
ENDBRANCH  23  25
ENDBRANCH   1  23
BRANCH   6  26
ATOM     26  O   UNL     1       1.935  -1.487  -3.393  0.00  0.00    -0.484 OA
BRANCH  26  27
ATOM     27  C   UNL     1       2.578  -2.084  -4.521  0.00  0.00    +0.266 C 
BRANCH  27  28
ATOM     28  C   UNL     1       3.086  -1.004  -5.440  0.00  0.00    +0.008 A 
ATOM     29  C   UNL     1       2.896   0.326  -5.115  0.00  0.00    +0.010 A 
ATOM     30  C   UNL     1       3.361   1.317  -5.958  0.00  0.00    +0.020 A 
ATOM     31  C   UNL     1       4.019   0.979  -7.128  0.00  0.00    +0.042 A 
ATOM     32  C   UNL     1       4.211  -0.351  -7.453  0.00  0.00    +0.040 A 
ATOM     33  C   UNL     1       3.749  -1.343  -6.606  0.00  0.00    +0.049 A 
ATOM     34 CL   UNL     1       3.994  -3.014  -7.011  0.00  0.00    -0.083 Cl
ATOM     35 CL   UNL     1       4.604   2.224  -8.187  0.00  0.00    -0.083 Cl
ENDBRANCH  27  28
ENDBRANCH  26  27
ENDBRANCH   6  26
TORSDOF 10
