REMARK  Name = ZINC12402069
REMARK  5 active torsions:
REMARK  status: ('A' for Active; 'I' for Inactive)
REMARK    1  A    between atoms: C_1  and  C_2
REMARK    2  A    between atoms: C_2  and  C_30
REMARK    3  A    between atoms: C_7  and  C_10
REMARK    4  A    between atoms: C_15  and  O_16
REMARK    5  A    between atoms: N_20  and  C_23
REMARK                            x       y       z     vdW  Elec       q    Type
REMARK                         _______ _______ _______ _____ _____    ______ ____
ROOT
ATOM      1  C   UNL     1      -0.219   1.638  -0.402  0.00  0.00    +0.002 C 
ATOM      2  C   UNL     1      -0.098   0.120  -0.257  0.00  0.00    +0.045 C 
ATOM      3  C   UNL     1      -1.465  -0.496   0.108  0.00  0.00    +0.086 C 
ATOM      4  C   UNL     1      -1.132  -1.644   1.099  0.00  0.00    +0.077 C 
ATOM      5  C   UNL     1       0.405  -1.623   1.226  0.00  0.00    -0.023 C 
ATOM      6  N   UNL     1       0.787  -0.222   0.885  0.00  0.00    +0.395 N 
ATOM      7  C   UNL     1      -1.759  -1.179   2.395  0.00  0.00    +0.229 C 
ATOM      8  O   UNL     1      -1.734  -1.788   3.443  0.00  0.00    -0.275 OA
ATOM      9  N   UNL     1      -2.345   0.008   2.204  0.00  0.00    -0.210 N 
ATOM     10  C   UNL     1      -2.248   0.492   0.944  0.00  0.00    +0.229 C 
ATOM     11  O   UNL     1      -2.706   1.540   0.543  0.00  0.00    -0.275 OA
ATOM     12  H   UNL     1       1.756  -0.184   0.604  0.00  0.00    -0.083 HD
ATOM     13  H   UNL     1       0.618   0.399   1.661  0.00  0.00    -0.083 HD
ENDROOT
BRANCH   5  14
ATOM     14  C   UNL     1       0.819  -1.937   2.641  0.00  0.00    -0.018 A 
ATOM     15  C   UNL     1       1.062  -0.910   3.534  0.00  0.00    +0.020 A 
ATOM     16  C   UNL     1       1.442  -1.197   4.832  0.00  0.00    +0.018 A 
ATOM     17  C   UNL     1       1.580  -2.512   5.240  0.00  0.00    +0.019 A 
ATOM     18  C   UNL     1       1.337  -3.541   4.351  0.00  0.00    +0.047 A 
ATOM     19  C   UNL     1       0.951  -3.256   3.050  0.00  0.00    +0.119 A 
ATOM     20 BR   UNL     1       1.774   0.209   6.052  0.00  0.00    -0.050 Br
BRANCH  19  21
ATOM     21  O   UNL     1       0.708  -4.267   2.175  0.00  0.00    -0.507 OA
ATOM     22  H   UNL     1       1.486  -4.551   1.676  0.00  0.00    +0.292 HD
ENDBRANCH  19  21
ENDBRANCH   5  14
BRANCH   9  23
ATOM     23  C   UNL     1      -3.014   0.696   3.226  0.00  0.00    +0.045 A 
ATOM     24  C   UNL     1      -2.505   1.896   3.705  0.00  0.00    +0.024 A 
ATOM     25  C   UNL     1      -3.167   2.572   4.712  0.00  0.00    +0.003 A 
ATOM     26  C   UNL     1      -4.335   2.057   5.242  0.00  0.00    +0.020 A 
ATOM     27  C   UNL     1      -4.845   0.861   4.766  0.00  0.00    +0.043 A 
ATOM     28  C   UNL     1      -4.190   0.183   3.756  0.00  0.00    +0.044 A 
ATOM     29 CL   UNL     1      -6.311   0.217   5.435  0.00  0.00    -0.083 Cl
ENDBRANCH   9  23
BRANCH   2  30
ATOM     30  C   UNL     1       0.430  -0.487  -1.532  0.00  0.00    +0.346 C 
ATOM     31  O   UNL     1       1.481  -1.104  -1.523  0.00  0.00    -0.248 OA
ATOM     32  O   UNL     1      -0.194  -0.361  -2.571  0.00  0.00    -0.248 OA
ENDBRANCH   2  30
TORSDOF 4
