REMARK  Name = ZINC12050575
REMARK  11 active torsions:
REMARK  status: ('A' for Active; 'I' for Inactive)
REMARK    1  A    between atoms: C_1  and  C_2
REMARK    2  A    between atoms: C_2  and  N_3
REMARK    3  A    between atoms: C_12  and  S_13
REMARK    4  A    between atoms: S_13  and  C_14
REMARK    5  A    between atoms: C_14  and  C_15
REMARK    6  A    between atoms: N_17  and  C_18
REMARK    7  A    between atoms: N_17  and  C_23
REMARK    8  A    between atoms: C_18  and  C_19
REMARK    9  A    between atoms: C_19  and  C_20
REMARK   10  A    between atoms: C_23  and  C_24
REMARK   11  A    between atoms: C_31  and  C_35
REMARK                            x       y       z     vdW  Elec       q    Type
REMARK                         _______ _______ _______ _____ _____    ______ ____
ROOT
ATOM      1  S   UNL     1      -0.374   4.825   3.501  0.00  0.00    -0.078 S 
ENDROOT
BRANCH   1  11
ATOM      2  N   UNL     1      -1.154   6.297   5.638  0.00  0.00    -0.288 N 
ATOM      3  C   UNL     1      -1.882   6.578   6.734  0.00  0.00    +0.263 A 
ATOM      4  O   UNL     1      -1.693   7.611   7.354  0.00  0.00    -0.267 OA
ATOM      5  C   UNL     1      -2.881   5.648   7.163  0.00  0.00    +0.076 A 
ATOM      6  C   UNL     1      -3.780   5.748   8.314  0.00  0.00    -0.023 A 
ATOM      7  C   UNL     1      -4.641   4.729   8.508  0.00  0.00    -0.004 A 
ATOM      8  S   UNL     1      -4.313   3.590   7.190  0.00  0.00    -0.073 S 
ATOM      9  C   UNL     1      -3.016   4.490   6.378  0.00  0.00    +0.117 A 
ATOM     10  N   UNL     1      -2.268   4.275   5.302  0.00  0.00    -0.216 NA
ATOM     11  C   UNL     1      -1.352   5.146   4.931  0.00  0.00    +0.173 A 
ATOM     12  C   UNL     1      -5.655   4.593   9.603  0.00  0.00    +0.046 C 
ATOM     13  C   UNL     1      -5.835   5.965  10.270  0.00  0.00    -0.009 C 
ATOM     14  C   UNL     1      -4.451   6.548  10.569  0.00  0.00    +0.008 C 
ATOM     15  C   UNL     1      -3.760   6.943   9.263  0.00  0.00    +0.037 C 
ATOM     16  C   UNL     1      -6.616   5.802  11.575  0.00  0.00    +0.008 C 
BRANCH   2  18
ATOM     17  C   UNL     1      -0.751   8.248   4.218  0.00  0.00    +0.027 C 
ATOM     18  C   UNL     1      -0.130   7.246   5.193  0.00  0.00    +0.124 C 
ENDBRANCH   2  18
ENDBRANCH   1  11
BRANCH   1  19
ATOM     19  C   UNL     1      -1.058   3.224   3.006  0.00  0.00    +0.173 C 
BRANCH  19  20
ATOM     20  C   UNL     1      -0.353   2.738   1.767  0.00  0.00    +0.226 C 
ATOM     21  O   UNL     1       0.526   3.408   1.267  0.00  0.00    -0.275 OA
ATOM     22  N   UNL     1      -0.698   1.558   1.213  0.00  0.00    -0.296 N 
BRANCH  22  23
ATOM     23  C   UNL     1      -1.760   0.749   1.817  0.00  0.00    +0.117 C 
BRANCH  23  24
ATOM     24  C   UNL     1      -1.150  -0.204   2.847  0.00  0.00    +0.114 C 
BRANCH  24  25
ATOM     25  C   UNL     1      -2.242  -1.037   3.469  0.00  0.00    +0.212 C 
ATOM     26  O   UNL     1      -3.394  -0.883   3.122  0.00  0.00    -0.276 OA
ATOM     27  N   UNL     1      -1.938  -1.953   4.410  0.00  0.00    -0.329 N 
ATOM     28  H   UNL     1      -1.017  -2.076   4.687  0.00  0.00    +0.145 HD
ATOM     29  H   UNL     1      -2.641  -2.489   4.810  0.00  0.00    +0.145 HD
ENDBRANCH  24  25
ENDBRANCH  23  24
ENDBRANCH  22  23
BRANCH  22  30
ATOM     30  C   UNL     1      -0.013   1.086   0.008  0.00  0.00    +0.142 C 
BRANCH  30  31
ATOM     31  C   UNL     1      -0.742   1.585  -1.213  0.00  0.00    -0.030 A 
ATOM     32  C   UNL     1      -1.750   0.825  -1.775  0.00  0.00    +0.005 A 
ATOM     33  C   UNL     1      -2.422   1.285  -2.892  0.00  0.00    +0.000 A 
ATOM     34  C   UNL     1      -2.079   2.501  -3.453  0.00  0.00    +0.000 A 
ATOM     35  C   UNL     1      -1.066   3.259  -2.894  0.00  0.00    +0.000 A 
ATOM     36  C   UNL     1      -0.398   2.801  -1.774  0.00  0.00    +0.005 A 
ENDBRANCH  30  31
ENDBRANCH  22  30
ENDBRANCH  19  20
ENDBRANCH   1  19
TORSDOF 9
