REMARK  Name = ZINC63135204
REMARK  10 active torsions:
REMARK  status: ('A' for Active; 'I' for Inactive)
REMARK    1  A    between atoms: C_1  and  O_2
REMARK    2  A    between atoms: O_2  and  C_3
REMARK    3  A    between atoms: C_7  and  C_11
REMARK    4  A    between atoms: C_8  and  O_9
REMARK    5  A    between atoms: O_9  and  C_10
REMARK    6  A    between atoms: C_11  and  C_13
REMARK    7  A    between atoms: C_11  and  C_28
REMARK    8  A    between atoms: C_13  and  N_14
REMARK    9  A    between atoms: N_14  and  S_15
REMARK   10  A    between atoms: S_15  and  C_18
REMARK                            x       y       z     vdW  Elec       q    Type
REMARK                         _______ _______ _______ _____ _____    ______ ____
ROOT
ATOM      1  C   UNL     1       1.394  -4.134   2.219  0.00  0.00    +0.066 C 
ENDROOT
BRANCH   1   2
ATOM      2  C   UNL     1       2.837  -4.570   2.229  0.00  0.00    -0.033 C 
ATOM      3  C   UNL     1       3.455  -5.356   1.318  0.00  0.00    -0.000 A 
ATOM      4  C   UNL     1       2.986  -6.016   0.093  0.00  0.00    +0.010 A 
ATOM      5  C   UNL     1       3.859  -6.756  -0.628  0.00  0.00    +0.001 A 
ATOM      6  C   UNL     1       5.196  -6.910  -0.235  0.00  0.00    +0.002 A 
ATOM      7  C   UNL     1       5.699  -6.335   0.877  0.00  0.00    +0.026 A 
ATOM      8  C   UNL     1       4.871  -5.533   1.710  0.00  0.00    +0.043 A 
ATOM      9  N   UNL     1       5.119  -4.882   2.821  0.00  0.00    -0.380 N 
ATOM     10  C   UNL     1       3.888  -4.212   3.255  0.00  0.00    +0.145 C 
ATOM     11  H   UNL     1       5.974  -4.846   3.276  0.00  0.00    +0.160 HD
ENDBRANCH   1   2
BRANCH   1  16
ATOM     12  C   UNL     1       0.626  -0.619   1.042  0.00  0.00    +0.162 A 
ATOM     13  C   UNL     1       1.202   0.137   2.051  0.00  0.00    +0.049 A 
ATOM     14  C   UNL     1       1.836  -0.490   3.108  0.00  0.00    +0.004 A 
ATOM     15  C   UNL     1       1.897  -1.870   3.161  0.00  0.00    +0.008 A 
ATOM     16  C   UNL     1       1.325  -2.630   2.158  0.00  0.00    +0.006 A 
ATOM     17  C   UNL     1       0.683  -2.008   1.099  0.00  0.00    +0.165 A 
BRANCH  12  19
ATOM     18  C   UNL     1      -0.017   1.425   0.010  0.00  0.00    +0.277 C 
ATOM     19  O   UNL     1       0.002  -0.004   0.002  0.00  0.00    -0.491 OA
ENDBRANCH  12  19
BRANCH  17  20
ATOM     20  O   UNL     1       0.115  -2.754   0.114  0.00  0.00    -0.491 OA
ATOM     21  C   UNL     1       0.940  -3.091  -1.003  0.00  0.00    +0.277 C 
ENDBRANCH  17  20
ENDBRANCH   1  16
BRANCH   1  22
ATOM     22  C   UNL     1       0.704  -4.625   3.493  0.00  0.00    +0.118 C 
BRANCH  22  23
ATOM     23  N   UNL     1      -0.724  -4.305   3.430  0.00  0.00    -0.189 NA
ATOM     24  H   UNL     1      -1.050  -3.668   2.774  0.00  0.00    +0.148 HD
BRANCH  23  25
ATOM     25  S   UNL     1      -1.782  -5.030   4.477  0.00  0.00    +0.058 S 
ATOM     26  O   UNL     1      -3.068  -4.500   4.186  0.00  0.00    -0.153 OA
ATOM     27  O   UNL     1      -1.505  -6.423   4.435  0.00  0.00    -0.153 OA
BRANCH  25  28
ATOM     28  C   UNL     1      -1.367  -4.482   6.099  0.00  0.00    +0.106 A 
ATOM     29  C   UNL     1      -0.448  -5.187   6.855  0.00  0.00    +0.030 A 
ATOM     30  C   UNL     1      -0.119  -4.764   8.126  0.00  0.00    +0.025 A 
ATOM     31  C   UNL     1      -0.711  -3.620   8.658  0.00  0.00    +0.037 A 
ATOM     32  C   UNL     1      -1.632  -2.920   7.888  0.00  0.00    -0.016 A 
ATOM     33  C   UNL     1      -1.955  -3.342   6.618  0.00  0.00    +0.034 A 
ATOM     34  C   UNL     1      -2.086  -1.749   8.729  0.00  0.00    +0.133 C 
ATOM     35  C   UNL     1      -1.312  -1.902  10.021  0.00  0.00    +0.222 C 
ATOM     36  O   UNL     1      -1.371  -1.170  10.987  0.00  0.00    -0.275 OA
ATOM     37  N   UNL     1      -0.547  -2.999   9.897  0.00  0.00    -0.285 N 
ATOM     38  H   UNL     1       0.051  -3.323  10.588  0.00  0.00    +0.155 HD
ENDBRANCH  25  28
ENDBRANCH  23  25
ENDBRANCH  22  23
ENDBRANCH   1  22
TORSDOF 8
