REMARK  Name = ZINC67473466
REMARK  7 active torsions:
REMARK  status: ('A' for Active; 'I' for Inactive)
REMARK    1  A    between atoms: C_1  and  C_2
REMARK    2  A    between atoms: C_3  and  C_8
REMARK    3  A    between atoms: C_4  and  C_7
REMARK    4  A    between atoms: C_10  and  C_17
REMARK    5  A    between atoms: C_13  and  C_14
REMARK    6  A    between atoms: C_20  and  O_24
REMARK    7  A    between atoms: O_24  and  C_25
REMARK                            x       y       z     vdW  Elec       q    Type
REMARK                         _______ _______ _______ _____ _____    ______ ____
ROOT
ATOM      1  C   UNL     1      -0.005  -0.370  -2.556  0.00  0.00    +0.010 A 
ATOM      2  C   UNL     1       1.185  -0.136  -3.244  0.00  0.00    +0.038 A 
ATOM      3  C   UNL     1       1.133   0.296  -4.565  0.00  0.00    +0.076 A 
ATOM      4  N   UNL     1      -0.030   0.490  -5.180  0.00  0.00    -0.231 NA
ATOM      5  C   UNL     1      -1.185   0.283  -4.573  0.00  0.00    +0.135 A 
ATOM      6  C   UNL     1      -1.223  -0.161  -3.240  0.00  0.00    +0.099 A 
ATOM      7  N   UNL     1      -2.368   0.499  -5.258  0.00  0.00    -0.342 N 
ATOM      8  H   UNL     1      -2.347   0.802  -6.179  0.00  0.00    +0.144 HD
ATOM      9  H   UNL     1      -3.219   0.348  -4.816  0.00  0.00    +0.144 HD
ENDROOT
BRANCH   1  12
ATOM     10  C   UNL     1      -0.018   1.503   0.010  0.00  0.00    +0.070 C 
ATOM     11  C   UNL     1       0.002  -0.004   0.002  0.00  0.00    +0.089 A 
ATOM     12  C   UNL     1       0.008  -0.831  -1.149  0.00  0.00    +0.048 A 
ATOM     13  C   UNL     1       0.028  -2.125  -0.728  0.00  0.00    +0.142 A 
ATOM     14  O   UNL     1       0.034  -2.120   0.612  0.00  0.00    -0.359 OA
ATOM     15  N   UNL     1       0.023  -0.774   1.050  0.00  0.00    -0.083 NA
ATOM     16  C   UNL     1       0.040  -3.346  -1.611  0.00  0.00    +0.090 C 
ENDBRANCH   1  12
BRANCH   3  17
ATOM     17  C   UNL     1       2.395   0.546  -5.299  0.00  0.00    +0.036 A 
ATOM     18  C   UNL     1       3.623   0.342  -4.669  0.00  0.00    +0.016 A 
ATOM     19  C   UNL     1       4.795   0.575  -5.354  0.00  0.00    +0.046 A 
ATOM     20  C   UNL     1       4.757   1.013  -6.673  0.00  0.00    +0.123 A 
ATOM     21  C   UNL     1       3.539   1.217  -7.305  0.00  0.00    +0.084 A 
ATOM     22  C   UNL     1       2.359   0.981  -6.626  0.00  0.00    +0.136 A 
ATOM     23  F   UNL     1       1.173   1.174  -7.243  0.00  0.00    -0.205 F 
BRANCH  20  24
ATOM     24  O   UNL     1       5.915   1.241  -7.344  0.00  0.00    -0.495 OA
ATOM     25  C   UNL     1       5.804   1.690  -8.696  0.00  0.00    +0.277 C 
ENDBRANCH  20  24
ENDBRANCH   3  17
BRANCH   6  26
ATOM     26  C   UNL     1      -2.475  -0.392  -2.584  0.00  0.00    +0.103 C 
ATOM     27  N   UNL     1      -3.469  -0.575  -2.064  0.00  0.00    -0.191 NA
ENDBRANCH   6  26
TORSDOF 4
