REMARK  Name = ZINC39675230
REMARK  11 active torsions:
REMARK  status: ('A' for Active; 'I' for Inactive)
REMARK    1  A    between atoms: C_1  and  C_2
REMARK    2  A    between atoms: C_2  and  C_4
REMARK    3  A    between atoms: C_2  and  N_14
REMARK    4  A    between atoms: C_4  and  C_5
REMARK    5  A    between atoms: C_5  and  C_6
REMARK    6  A    between atoms: C_9  and  O_12
REMARK    7  A    between atoms: O_12  and  C_13
REMARK    8  A    between atoms: C_15  and  C_17
REMARK    9  A    between atoms: C_28  and  C_30
REMARK   10  A    between atoms: C_30  and  C_31
REMARK   11  A    between atoms: C_31  and  C_32
REMARK                            x       y       z     vdW  Elec       q    Type
REMARK                         _______ _______ _______ _____ _____    ______ ____
ROOT
ATOM      1  C   UNL     1      -3.465  -1.164  -1.134  0.00  0.00    +0.100 C 
ATOM      2  C   UNL     1      -3.486  -2.652  -0.717  0.00  0.00    +0.121 C 
ATOM      3  N   UNL     1      -4.545  -3.261  -1.556  0.00  0.00    -0.300 N 
ATOM      4  C   UNL     1      -4.383  -2.614  -2.881  0.00  0.00    +0.115 C 
ATOM      5  C   UNL     1      -4.054  -1.143  -2.554  0.00  0.00    -0.004 C 
ATOM      6  C   UNL     1      -5.324  -0.298  -2.587  0.00  0.00    -0.010 C 
ATOM      7  C   UNL     1      -5.859  -0.246  -4.021  0.00  0.00    -0.082 C 
ATOM      8  N   UNL     1      -4.840   0.331  -4.905  0.00  0.00    +0.379 N 
ATOM      9  C   UNL     1      -3.656  -0.537  -4.939  0.00  0.00    -0.082 C 
ATOM     10  C   UNL     1      -3.028  -0.601  -3.545  0.00  0.00    -0.010 C 
ATOM     11  C   UNL     1      -5.450  -4.192  -1.197  0.00  0.00    +0.216 C 
ATOM     12  O   UNL     1      -6.260  -4.595  -2.006  0.00  0.00    -0.276 OA
ATOM     13  H   UNL     1      -5.216   0.421  -5.837  0.00  0.00    -0.086 HD
ATOM     14  H   UNL     1      -4.576   1.243  -4.563  0.00  0.00    -0.086 HD
ENDROOT
BRANCH   1  16
ATOM     15  N   UNL     1      -1.812   0.661  -0.903  0.00  0.00    -0.312 N 
ATOM     16  C   UNL     1      -2.051  -0.643  -1.145  0.00  0.00    +0.218 C 
ATOM     17  O   UNL     1      -1.128  -1.397  -1.371  0.00  0.00    -0.275 OA
ATOM     18  H   UNL     1      -2.550   1.264  -0.722  0.00  0.00    +0.149 HD
BRANCH  15  20
ATOM     19  C   UNL     1      -0.031   1.511  -2.348  0.00  0.00    +0.028 C 
ATOM     20  C   UNL     1      -0.438   1.169  -0.913  0.00  0.00    +0.070 C 
BRANCH  20  21
ATOM     21  C   UNL     1      -0.351   2.425  -0.045  0.00  0.00    +0.026 C 
BRANCH  21  22
ATOM     22  C   UNL     1      -0.636   2.058   1.413  0.00  0.00    +0.037 C 
BRANCH  22  23
ATOM     23  C   UNL     1      -0.551   3.296   2.268  0.00  0.00    -0.047 A 
ATOM     24  C   UNL     1       0.657   3.663   2.833  0.00  0.00    +0.007 A 
ATOM     25  C   UNL     1       0.738   4.798   3.617  0.00  0.00    +0.046 A 
ATOM     26  C   UNL     1      -0.395   5.568   3.839  0.00  0.00    +0.120 A 
ATOM     27  C   UNL     1      -1.605   5.198   3.271  0.00  0.00    +0.046 A 
ATOM     28  C   UNL     1      -1.679   4.066   2.483  0.00  0.00    +0.007 A 
BRANCH  26  29
ATOM     29  O   UNL     1      -0.318   6.684   4.611  0.00  0.00    -0.495 OA
ATOM     30  C   UNL     1      -1.523   7.429   4.795  0.00  0.00    +0.277 C 
ENDBRANCH  26  29
ENDBRANCH  22  23
ENDBRANCH  21  22
ENDBRANCH  20  21
ENDBRANCH  15  20
ENDBRANCH   1  16
BRANCH  11  31
ATOM     31  C   UNL     1      -5.457  -4.734   0.209  0.00  0.00    +0.096 C 
BRANCH  31  32
ATOM     32  C   UNL     1      -6.574  -5.769   0.352  0.00  0.00    +0.013 C 
BRANCH  32  33
ATOM     33  C   UNL     1      -6.581  -6.319   1.780  0.00  0.00    -0.011 C 
ATOM     34  C   UNL     1      -5.309  -7.156   2.030  0.00  0.00    +0.003 C 
ATOM     35  C   UNL     1      -5.793  -8.325   2.922  0.00  0.00    +0.000 C 
ATOM     36  C   UNL     1      -7.190  -8.648   2.335  0.00  0.00    +0.000 C 
ATOM     37  C   UNL     1      -7.777  -7.268   1.974  0.00  0.00    +0.003 C 
ENDBRANCH  32  33
ENDBRANCH  31  32
ENDBRANCH  11  31
TORSDOF 9
