REMARK  Name = ZINC46757806
REMARK  10 active torsions:
REMARK  status: ('A' for Active; 'I' for Inactive)
REMARK    1  A    between atoms: C_1  and  C_2
REMARK    2  A    between atoms: C_5  and  N_8
REMARK    3  A    between atoms: C_9  and  C_33
REMARK    4  A    between atoms: C_11  and  C_16
REMARK    5  A    between atoms: N_18  and  C_19
REMARK    6  A    between atoms: C_19  and  C_20
REMARK    7  A    between atoms: C_23  and  N_26
REMARK    8  A    between atoms: N_29  and  C_30
REMARK    9  A    between atoms: C_30  and  C_31
REMARK   10  A    between atoms: C_30  and  C_32
REMARK                            x       y       z     vdW  Elec       q    Type
REMARK                         _______ _______ _______ _____ _____    ______ ____
ROOT
ATOM      1  C   UNL     1       0.643  -7.530   1.625  0.00  0.00    +0.219 C 
ATOM      2  O   UNL     1       1.488  -7.248   2.448  0.00  0.00    -0.275 OA
ATOM      3  N   UNL     1       0.379  -8.822   1.347  0.00  0.00    -0.311 N 
ATOM      4  H   UNL     1      -0.296  -9.048   0.688  0.00  0.00    +0.149 HD
ENDROOT
BRANCH   1   7
ATOM      5  N   UNL     1       0.319  -4.189   0.196  0.00  0.00    -0.263 N 
ATOM      6  C   UNL     1       0.357  -5.043   1.388  0.00  0.00    +0.130 C 
ATOM      7  C   UNL     1      -0.110  -6.437   0.912  0.00  0.00    +0.109 C 
ATOM      8  C   UNL     1       0.259  -6.397  -0.589  0.00  0.00    +0.111 C 
ATOM      9  C   UNL     1       0.263  -4.923  -0.929  0.00  0.00    +0.221 C 
ATOM     10  O   UNL     1       0.225  -4.469  -2.053  0.00  0.00    -0.275 OA
BRANCH   5  15
ATOM     11  C   UNL     1       0.372   1.483   0.318  0.00  0.00    +0.044 C 
ATOM     12  C   UNL     1       0.358  -0.024   0.285  0.00  0.00    -0.050 A 
ATOM     13  C   UNL     1       0.165  -0.686  -0.913  0.00  0.00    +0.005 A 
ATOM     14  C   UNL     1       0.152  -2.067  -0.946  0.00  0.00    +0.024 A 
ATOM     15  C   UNL     1       0.332  -2.790   0.226  0.00  0.00    +0.037 A 
ATOM     16  C   UNL     1       0.526  -2.122   1.427  0.00  0.00    +0.024 A 
ATOM     17  C   UNL     1       0.543  -0.741   1.453  0.00  0.00    +0.005 A 
ENDBRANCH   5  15
BRANCH   6  18
ATOM     18  C   UNL     1      -0.579  -4.510   2.442  0.00  0.00    +0.011 A 
ATOM     19  C   UNL     1      -0.409  -4.455   3.786  0.00  0.00    +0.013 A 
ATOM     20  C   UNL     1      -1.414  -3.916   4.567  0.00  0.00    +0.008 A 
ATOM     21  C   UNL     1      -2.540  -3.458   3.966  0.00  0.00    +0.045 A 
ATOM     22  S   UNL     1      -2.196  -3.778   2.244  0.00  0.00    -0.100 S 
ENDBRANCH   6  18
ENDBRANCH   1   7
BRANCH   3  23
ATOM     23  C   UNL     1       1.112  -9.885   2.039  0.00  0.00    +0.139 C 
BRANCH  23  24
ATOM     24  C   UNL     1       0.631 -11.227   1.550  0.00  0.00    -0.030 A 
ATOM     25  C   UNL     1      -0.427 -11.854   2.183  0.00  0.00    +0.007 A 
ATOM     26  C   UNL     1      -0.870 -13.084   1.737  0.00  0.00    +0.023 A 
ATOM     27  C   UNL     1      -0.252 -13.691   0.652  0.00  0.00    +0.035 A 
ATOM     28  C   UNL     1       0.810 -13.060   0.019  0.00  0.00    +0.023 A 
ATOM     29  C   UNL     1       1.245 -11.827   0.466  0.00  0.00    +0.007 A 
BRANCH  27  30
ATOM     30  N   UNL     1      -0.698 -14.938   0.199  0.00  0.00    -0.269 N 
ATOM     31  C   UNL     1      -1.998 -15.273   0.319  0.00  0.00    +0.304 C 
ATOM     32  O   UNL     1      -2.806 -14.447   0.699  0.00  0.00    -0.253 OA
ATOM     33  N   UNL     1      -2.403 -16.522   0.017  0.00  0.00    -0.297 N 
ATOM     34  H   UNL     1      -0.072 -15.560  -0.202  0.00  0.00    +0.156 HD
ATOM     35  H   UNL     1      -1.758 -17.181  -0.286  0.00  0.00    +0.151 HD
BRANCH  33  36
ATOM     36  C   UNL     1      -3.816 -16.886   0.148  0.00  0.00    +0.068 C 
ATOM     37  C   UNL     1      -4.563 -16.494  -1.128  0.00  0.00    +0.027 C 
ATOM     38  C   UNL     1      -3.936 -18.396   0.365  0.00  0.00    +0.027 C 
ENDBRANCH  33  36
ENDBRANCH  27  30
ENDBRANCH  23  24
ENDBRANCH   3  23
TORSDOF 7
