REMARK  Name = ZINC03661032
REMARK  8 active torsions:
REMARK  status: ('A' for Active; 'I' for Inactive)
REMARK    1  A    between atoms: C_1  and  N_2
REMARK    2  A    between atoms: C_3  and  C_28
REMARK    3  A    between atoms: C_5  and  C_15
REMARK    4  A    between atoms: C_15  and  N_17
REMARK    5  A    between atoms: C_31  and  O_36
REMARK    6  A    between atoms: C_32  and  O_34
REMARK    7  A    between atoms: O_34  and  C_35
REMARK    8  A    between atoms: O_36  and  C_37
REMARK                            x       y       z     vdW  Elec       q    Type
REMARK                         _______ _______ _______ _____ _____    ______ ____
ROOT
ATOM      1  C   UNL     1      -0.018   1.461   0.010  0.00  0.00    +0.133 C 
ATOM      2  N   UNL     1       0.002  -0.004   0.002  0.00  0.00    -0.292 N 
ATOM      3  C   UNL     1      -1.260  -0.740   0.004  0.00  0.00    +0.123 C 
ATOM      4  C   UNL     1      -1.179  -1.962   0.916  0.00  0.00    +0.132 C 
ATOM      5  C   UNL     1       0.049  -2.770   0.591  0.00  0.00    -0.021 A 
ATOM      6  C   UNL     1       0.041  -4.143   0.716  0.00  0.00    +0.005 A 
ATOM      7  C   UNL     1       1.182  -4.870   0.427  0.00  0.00    +0.000 A 
ATOM      8  C   UNL     1       2.336  -4.228   0.013  0.00  0.00    +0.001 A 
ATOM      9  C   UNL     1       2.356  -2.854  -0.121  0.00  0.00    +0.013 A 
ATOM     10  C   UNL     1       1.206  -2.119   0.162  0.00  0.00    +0.041 A 
ATOM     11  C   UNL     1       1.183  -0.651  -0.013  0.00  0.00    +0.247 C 
ATOM     12  O   UNL     1       2.219  -0.033  -0.164  0.00  0.00    -0.270 OA
ENDROOT
BRANCH   3  13
ATOM     13  C   UNL     1      -1.572  -1.192  -1.399  0.00  0.00    -0.022 A 
ATOM     14  C   UNL     1      -0.560  -1.666  -2.213  0.00  0.00    +0.009 A 
ATOM     15  C   UNL     1      -0.841  -2.081  -3.501  0.00  0.00    +0.050 A 
ATOM     16  C   UNL     1      -2.140  -2.023  -3.980  0.00  0.00    +0.162 A 
ATOM     17  C   UNL     1      -3.159  -1.546  -3.161  0.00  0.00    +0.162 A 
ATOM     18  C   UNL     1      -2.871  -1.136  -1.869  0.00  0.00    +0.055 A 
BRANCH  17  19
ATOM     19  O   UNL     1      -4.436  -1.487  -3.626  0.00  0.00    -0.491 OA
ATOM     20  C   UNL     1      -5.430  -0.987  -2.730  0.00  0.00    +0.277 C 
ENDBRANCH  17  19
BRANCH  16  21
ATOM     21  O   UNL     1      -2.418  -2.430  -5.247  0.00  0.00    -0.491 OA
ATOM     22  C   UNL     1      -1.322  -2.908  -6.030  0.00  0.00    +0.277 C 
ENDBRANCH  16  21
ENDBRANCH   3  13
BRANCH   4  23
ATOM     23  C   UNL     1      -1.111  -1.510   2.352  0.00  0.00    +0.248 C 
ATOM     24  O   UNL     1      -1.126  -0.323   2.617  0.00  0.00    -0.273 OA
BRANCH  23  25
ATOM     25  N   UNL     1      -1.034  -2.408   3.328  0.00  0.00    -0.156 NA
ATOM     26  C   UNL     1      -0.974  -2.008   4.597  0.00  0.00    +0.164 A 
ATOM     27  N   UNL     1      -0.888  -2.780   5.709  0.00  0.00    -0.335 N 
ATOM     28  H   UNL     1      -0.864  -3.747   5.630  0.00  0.00    +0.168 HD
ATOM     29  C   UNL     1      -0.834  -2.186   6.956  0.00  0.00    +0.055 A 
ATOM     30  C   UNL     1      -0.744  -2.787   8.220  0.00  0.00    +0.027 A 
ATOM     31  C   UNL     1      -0.702  -2.017   9.359  0.00  0.00    +0.002 A 
ATOM     32  C   UNL     1      -0.747  -0.635   9.293  0.00  0.00    +0.001 A 
ATOM     33  C   UNL     1      -0.835  -0.018   8.057  0.00  0.00    +0.017 A 
ATOM     34  C   UNL     1      -0.877  -0.785   6.918  0.00  0.00    +0.039 A 
ATOM     35  S   UNL     1      -0.980  -0.433   5.183  0.00  0.00    -0.052 S 
ENDBRANCH  23  25
ENDBRANCH   4  23
TORSDOF 5
