REMARK  Name = ZINC08644728
REMARK  7 active torsions:
REMARK  status: ('A' for Active; 'I' for Inactive)
REMARK    1  A    between atoms: C_1  and  C_2
REMARK    2  A    between atoms: C_2  and  C_4
REMARK    3  A    between atoms: C_2  and  S_13
REMARK    4  A    between atoms: N_6  and  C_7
REMARK    5  A    between atoms: S_13  and  C_14
REMARK    6  A    between atoms: C_17  and  C_20
REMARK    7  A    between atoms: N_18  and  N_19
REMARK                            x       y       z     vdW  Elec       q    Type
REMARK                         _______ _______ _______ _____ _____    ______ ____
ROOT
ATOM      1  C   UNL     1       2.697  -0.115   0.805  0.00  0.00    +0.209 A 
ATOM      2  N   UNL     1       3.038   0.605  -0.240  0.00  0.00    -0.121 NA
ATOM      3  N   UNL     1       4.304   0.821  -0.233  0.00  0.00    -0.127 NA
ATOM      4  C   UNL     1       4.850   0.252   0.817  0.00  0.00    +0.183 A 
ATOM      5  N   UNL     1       3.836  -0.360   1.517  0.00  0.00    -0.224 N 
ENDROOT
BRANCH   4   6
ATOM      6  C   UNL     1       6.283   0.271   1.181  0.00  0.00    +0.039 A 
ATOM      7  C   UNL     1       6.940  -0.918   1.503  0.00  0.00    +0.014 A 
ATOM      8  C   UNL     1       8.276  -0.894   1.841  0.00  0.00    +0.021 A 
ATOM      9  C   UNL     1       8.968   0.306   1.863  0.00  0.00    +0.042 A 
ATOM     10  C   UNL     1       8.322   1.489   1.545  0.00  0.00    +0.040 A 
ATOM     11  C   UNL     1       6.986   1.478   1.199  0.00  0.00    +0.053 A 
ATOM     12 CL   UNL     1       6.179   2.961   0.794  0.00  0.00    -0.083 Cl
ATOM     13 CL   UNL     1      10.650   0.327   2.291  0.00  0.00    -0.083 Cl
ENDBRANCH   4   6
BRANCH   5  14
ATOM     14  N   UNL     1       3.947  -1.069   2.679  0.00  0.00    -0.295 N 
ATOM     15  H   UNL     1       4.035  -2.056   2.494  0.00  0.00    +0.163 HD
ATOM     16  H   UNL     1       4.721  -0.734   3.234  0.00  0.00    +0.163 HD
ENDBRANCH   5  14
BRANCH   1  17
ATOM     17  S   UNL     1       1.071  -0.658   1.214  0.00  0.00    -0.072 S 
BRANCH  17  19
ATOM     18  C   UNL     1       0.049   1.528  -0.074  0.00  0.00    +0.029 C 
ATOM     19  C   UNL     1       0.039  -0.002  -0.125  0.00  0.00    +0.137 C 
BRANCH  19  20
ATOM     20  C   UNL     1      -1.374  -0.500   0.039  0.00  0.00    +0.230 C 
ATOM     21  O   UNL     1      -1.780  -0.823   1.136  0.00  0.00    -0.274 OA
ATOM     22  N   UNL     1      -2.186  -0.588  -1.032  0.00  0.00    -0.285 N 
ATOM     23  H   UNL     1      -1.883  -0.272  -1.898  0.00  0.00    +0.155 HD
BRANCH  22  24
ATOM     24  C   UNL     1      -3.467  -1.136  -0.897  0.00  0.00    +0.033 A 
ATOM     25  C   UNL     1      -4.012  -1.893  -1.925  0.00  0.00    +0.023 A 
ATOM     26  C   UNL     1      -5.276  -2.432  -1.788  0.00  0.00    +0.002 A 
ATOM     27  C   UNL     1      -5.999  -2.219  -0.629  0.00  0.00    +0.000 A 
ATOM     28  C   UNL     1      -5.458  -1.465   0.397  0.00  0.00    +0.002 A 
ATOM     29  C   UNL     1      -4.192  -0.928   0.269  0.00  0.00    +0.023 A 
ENDBRANCH  22  24
ENDBRANCH  19  20
ENDBRANCH  17  19
ENDBRANCH   1  17
TORSDOF 6
