REMARK  Name = ZINC66430080
REMARK  4 active torsions:
REMARK  status: ('A' for Active; 'I' for Inactive)
REMARK    1  A    between atoms: C_3  and  C_6
REMARK    2  A    between atoms: C_8  and  C_12
REMARK    3  A    between atoms: C_12  and  N_13
REMARK    4  A    between atoms: C_14  and  C_16
REMARK                            x       y       z     vdW  Elec       q    Type
REMARK                         _______ _______ _______ _____ _____    ______ ____
ROOT
ATOM      1  N   UNL     1       7.773   1.057   1.298  0.00  0.00    -0.308 N 
ATOM      2  C   UNL     1       9.024   0.611   1.526  0.00  0.00    +0.220 C 
ATOM      3  O   UNL     1       9.786   0.443   0.597  0.00  0.00    -0.275 OA
ATOM      4  H   UNL     1       7.164   1.191   2.041  0.00  0.00    +0.149 HD
ENDROOT
BRANCH   2   5
ATOM      5  C   UNL     1       9.477   0.320   2.933  0.00  0.00    +0.048 C 
ATOM      6  C   UNL     1       9.381   1.595   3.773  0.00  0.00    +0.019 C 
ATOM      7  C   UNL     1       9.840   1.300   5.203  0.00  0.00    -0.009 C 
ATOM      8  C   UNL     1      11.289   0.810   5.182  0.00  0.00    +0.007 C 
ATOM      9  C   UNL     1      11.385  -0.465   4.342  0.00  0.00    -0.009 C 
ATOM     10  C   UNL     1      10.926  -0.169   2.913  0.00  0.00    +0.019 C 
ATOM     11  C   UNL     1      10.491  -1.546   4.952  0.00  0.00    +0.007 C 
ATOM     12  C   UNL     1       9.041  -1.057   4.973  0.00  0.00    -0.009 C 
ATOM     13  C   UNL     1       8.945   0.218   5.813  0.00  0.00    +0.007 C 
ATOM     14  C   UNL     1       8.582  -0.761   3.543  0.00  0.00    +0.019 C 
ENDBRANCH   2   5
BRANCH   1  15
ATOM     15  C   UNL     1       7.333   1.339  -0.070  0.00  0.00    +0.180 C 
BRANCH  15  18
ATOM     16  C   UNL     1       3.740   1.825  -0.024  0.00  0.00    +0.188 A 
ATOM     17  N   UNL     1       4.842   1.062  -0.044  0.00  0.00    -0.209 NA
ATOM     18  C   UNL     1       5.906   1.821  -0.050  0.00  0.00    +0.143 A 
ATOM     19  N   UNL     1       5.508   3.106  -0.033  0.00  0.00    -0.261 N 
ATOM     20  H   UNL     1       6.080   3.890  -0.033  0.00  0.00    +0.190 HD
ATOM     21  N   UNL     1       4.104   3.091  -0.022  0.00  0.00    -0.152 NA
BRANCH  16  24
ATOM     22  C   UNL     1      -0.016   1.353   0.009  0.00  0.00    +0.008 A 
ATOM     23  C   UNL     1       1.178   2.041   0.002  0.00  0.00    +0.019 A 
ATOM     24  C   UNL     1       2.347   1.329  -0.013  0.00  0.00    +0.058 A 
ATOM     25  S   UNL     1       1.752  -0.354  -0.017  0.00  0.00    -0.093 S 
ATOM     26  C   UNL     1       0.002  -0.004   0.002  0.00  0.00    +0.046 A 
ENDBRANCH  16  24
ENDBRANCH  15  18
ENDBRANCH   1  15
TORSDOF 4
