REMARK  Name = ZINC39670107
REMARK  6 active torsions:
REMARK  status: ('A' for Active; 'I' for Inactive)
REMARK    1  A    between atoms: C_1  and  C_2
REMARK    2  A    between atoms: C_7  and  C_11
REMARK    3  A    between atoms: C_11  and  N_12
REMARK    4  A    between atoms: C_13  and  C_15
REMARK    5  A    between atoms: C_26  and  C_28
REMARK    6  A    between atoms: C_32  and  C_34
REMARK                            x       y       z     vdW  Elec       q    Type
REMARK                         _______ _______ _______ _____ _____    ______ ____
ROOT
ATOM      1  C   UNL     1       3.844  -7.310   3.707  0.00  0.00    +0.100 C 
ATOM      2  C   UNL     1       4.141  -6.092   4.610  0.00  0.00    +0.121 C 
ATOM      3  N   UNL     1       3.875  -6.573   5.986  0.00  0.00    -0.296 N 
ATOM      4  C   UNL     1       4.402  -7.959   6.001  0.00  0.00    +0.115 C 
ATOM      5  C   UNL     1       4.019  -8.533   4.622  0.00  0.00    -0.004 C 
ATOM      6  C   UNL     1       5.135  -9.431   4.096  0.00  0.00    -0.010 C 
ATOM      7  C   UNL     1       5.251 -10.670   4.989  0.00  0.00    -0.082 C 
ATOM      8  N   UNL     1       3.974 -11.393   4.994  0.00  0.00    +0.379 N 
ATOM      9  C   UNL     1       2.926 -10.555   5.588  0.00  0.00    -0.082 C 
ATOM     10  C   UNL     1       2.711  -9.312   4.720  0.00  0.00    -0.010 C 
ATOM     11  C   UNL     1       3.288  -5.902   6.997  0.00  0.00    +0.247 C 
ATOM     12  O   UNL     1       2.793  -4.811   6.794  0.00  0.00    -0.270 OA
ATOM     13  H   UNL     1       3.719 -11.629   4.047  0.00  0.00    -0.086 HD
ATOM     14  H   UNL     1       4.072 -12.241   5.534  0.00  0.00    -0.086 HD
ENDROOT
BRANCH  11  15
ATOM     15  C   UNL     1       3.246  -6.493   8.351  0.00  0.00    +0.037 A 
ATOM     16  C   UNL     1       4.151  -7.495   8.706  0.00  0.00    +0.014 A 
ATOM     17  C   UNL     1       4.106  -8.043   9.971  0.00  0.00    +0.016 A 
ATOM     18  C   UNL     1       3.167  -7.601  10.887  0.00  0.00    +0.021 A 
ATOM     19  C   UNL     1       2.267  -6.608  10.541  0.00  0.00    -0.036 A 
ATOM     20  C   UNL     1       2.305  -6.048   9.281  0.00  0.00    +0.017 A 
ATOM     21  C   UNL     1       1.248  -6.133  11.544  0.00  0.00    +0.045 C 
ATOM     22 BR   UNL     1       3.112  -8.359  12.619  0.00  0.00    -0.050 Br
ENDBRANCH  11  15
BRANCH   1  24
ATOM     23  N   UNL     1       2.101  -7.890   2.049  0.00  0.00    -0.309 N 
ATOM     24  C   UNL     1       2.431  -7.244   3.185  0.00  0.00    +0.219 C 
ATOM     25  O   UNL     1       1.592  -6.608   3.787  0.00  0.00    -0.275 OA
ATOM     26  H   UNL     1       2.773  -8.398   1.568  0.00  0.00    +0.149 HD
BRANCH  23  27
ATOM     27  C   UNL     1       0.728  -7.825   1.542  0.00  0.00    +0.159 C 
BRANCH  27  34
ATOM     28  C   UNL     1       0.712 -10.469  -5.376  0.00  0.00    +0.044 C 
ATOM     29  C   UNL     1       0.560 -10.380  -3.880  0.00  0.00    -0.046 A 
ATOM     30  C   UNL     1       0.113 -11.492  -3.148  0.00  0.00    +0.021 A 
ATOM     31  C   UNL     1      -0.024 -11.415  -1.807  0.00  0.00    +0.093 A 
ATOM     32  N   UNL     1       0.269 -10.258  -1.144  0.00  0.00    -0.308 N 
ATOM     33  C   UNL     1       0.221  -9.912   0.179  0.00  0.00    +0.115 A 
ATOM     34  C   UNL     1       0.625  -8.626   0.270  0.00  0.00    +0.051 A 
ATOM     35  N   UNL     1       0.916  -8.183  -0.955  0.00  0.00    -0.342 N 
ATOM     36  C   UNL     1       0.708  -9.156  -1.831  0.00  0.00    +0.116 A 
ATOM     37  C   UNL     1       0.861  -9.223  -3.230  0.00  0.00    +0.048 A 
ATOM     38  H   UNL     1       1.230  -7.291  -1.171  0.00  0.00    +0.167 HD
ENDBRANCH  27  34
ENDBRANCH  23  27
ENDBRANCH   1  24
TORSDOF 4
