REMARK  Name = ZINC30286392
REMARK  12 active torsions:
REMARK  status: ('A' for Active; 'I' for Inactive)
REMARK    1  A    between atoms: C_1  and  C_2
REMARK    2  A    between atoms: C_9  and  N_17
REMARK    3  A    between atoms: C_10  and  C_11
REMARK    4  A    between atoms: C_11  and  O_13
REMARK    5  A    between atoms: O_13  and  C_14
REMARK    6  A    between atoms: C_14  and  C_15
REMARK    7  A    between atoms: C_14  and  C_16
REMARK    8  A    between atoms: C_18  and  C_20
REMARK    9  A    between atoms: C_20  and  C_22
REMARK   10  A    between atoms: C_20  and  N_23
REMARK   11  A    between atoms: C_26  and  N_29
REMARK   12  A    between atoms: C_30  and  C_32
REMARK                            x       y       z     vdW  Elec       q    Type
REMARK                         _______ _______ _______ _____ _____    ______ ____
ROOT
ATOM      1  N   UNL     1      -2.202  -6.165  -0.196  0.00  0.00    -0.281 N 
ATOM      2  C   UNL     1      -3.505  -6.274   0.128  0.00  0.00    +0.204 C 
ATOM      3  O   UNL     1      -4.215  -5.291   0.124  0.00  0.00    -0.277 OA
ATOM      4  H   UNL     1      -1.558  -7.057  -0.193  0.00  0.00    +0.155 HD
ENDROOT
BRANCH   1  12
ATOM      5  C   UNL     1       0.370   0.965  -2.126  0.00  0.00    +0.008 C 
ATOM      6  C   UNL     1       0.180  -0.553  -2.117  0.00  0.00    -0.009 C 
ATOM      7  C   UNL     1       1.366  -1.215  -1.409  0.00  0.00    +0.008 C 
ATOM      8  C   UNL     1       1.311  -2.730  -1.609  0.00  0.00    +0.037 C 
ATOM      9  C   UNL     1      -0.069  -3.230  -1.200  0.00  0.00    -0.021 A 
ATOM     10  C   UNL     1      -1.115  -2.381  -1.102  0.00  0.00    -0.004 A 
ATOM     11  S   UNL     1      -2.478  -3.397  -0.608  0.00  0.00    -0.077 S 
ATOM     12  C   UNL     1      -1.672  -4.929  -0.532  0.00  0.00    +0.086 A 
ATOM     13  C   UNL     1      -0.367  -4.619  -0.891  0.00  0.00    +0.091 A 
ATOM     14  C   UNL     1      -1.108  -0.906  -1.359  0.00  0.00    +0.046 C 
BRANCH  13  15
ATOM     15  C   UNL     1       0.670  -5.651  -0.956  0.00  0.00    +0.342 C 
ATOM     16  O   UNL     1       1.337  -5.905   0.029  0.00  0.00    -0.245 OA
BRANCH  15  17
ATOM     17  O   UNL     1       0.885  -6.319  -2.107  0.00  0.00    -0.458 OA
BRANCH  17  18
ATOM     18  C   UNL     1       1.929  -7.329  -2.098  0.00  0.00    +0.171 C 
ATOM     19  C   UNL     1       1.578  -8.433  -3.098  0.00  0.00    +0.052 C 
ATOM     20  C   UNL     1       3.261  -6.688  -2.492  0.00  0.00    +0.052 C 
ENDBRANCH  17  18
ENDBRANCH  15  17
ENDBRANCH  13  15
ENDBRANCH   1  12
BRANCH   2  21
ATOM     21  C   UNL     1      -4.081  -7.618   0.494  0.00  0.00    +0.016 C 
ATOM     22  C   UNL     1      -3.911  -7.854   1.996  0.00  0.00    -0.004 C 
BRANCH  21  23
ATOM     23  N   UNL     1      -5.510  -7.649   0.152  0.00  0.00    +0.387 N 
ATOM     24  C   UNL     1      -6.285  -6.788   1.055  0.00  0.00    -0.076 C 
ATOM     25  C   UNL     1      -7.778  -6.956   0.765  0.00  0.00    +0.004 C 
ATOM     26  C   UNL     1      -8.055  -6.579  -0.693  0.00  0.00    +0.069 C 
ATOM     27  C   UNL     1      -7.199  -7.457  -1.611  0.00  0.00    +0.004 C 
ATOM     28  C   UNL     1      -5.723  -7.274  -1.252  0.00  0.00    -0.076 C 
ATOM     29  H   UNL     1      -5.868  -8.680   0.282  0.00  0.00    -0.081 HD
BRANCH  26  30
ATOM     30  N   UNL     1      -9.473  -6.793  -0.994  0.00  0.00    -0.312 N 
ATOM     31  C   UNL     1     -10.374  -5.830  -0.715  0.00  0.00    +0.216 C 
ATOM     32  O   UNL     1     -10.011  -4.786  -0.216  0.00  0.00    -0.276 OA
ATOM     33  H   UNL     1      -9.802  -7.740  -1.446  0.00  0.00    +0.149 HD
BRANCH  31  34
ATOM     34  C   UNL     1     -11.832  -6.051  -1.024  0.00  0.00    +0.075 C 
ATOM     35  C   UNL     1     -12.451  -5.215  -2.146  0.00  0.00    +0.013 C 
ATOM     36  C   UNL     1     -12.805  -4.919  -0.686  0.00  0.00    +0.013 C 
ENDBRANCH  31  34
ENDBRANCH  26  30
ENDBRANCH  21  23
ENDBRANCH   2  21
TORSDOF 8
