REMARK  Name = ZINC26112674
REMARK  7 active torsions:
REMARK  status: ('A' for Active; 'I' for Inactive)
REMARK    1  A    between atoms: C_1  and  C_2
REMARK    2  A    between atoms: C_2  and  C_4
REMARK    3  A    between atoms: C_2  and  O_16
REMARK    4  A    between atoms: N_6  and  C_7
REMARK    5  A    between atoms: C_10  and  C_13
REMARK    6  A    between atoms: O_16  and  C_17
REMARK    7  A    between atoms: C_17  and  C_19
REMARK                            x       y       z     vdW  Elec       q    Type
REMARK                         _______ _______ _______ _____ _____    ______ ____
ROOT
ATOM      1  C   UNL     1       0.025  -0.669  -1.512  0.00  0.00    +0.062 C 
ATOM      2  C   UNL     1      -0.092  -0.011  -0.135  0.00  0.00    +0.259 C 
ENDROOT
BRANCH   2   3
ATOM      3  C   UNL     1      -1.305  -0.550   0.578  0.00  0.00    +0.258 C 
ATOM      4  O   UNL     1      -2.234   0.185   0.837  0.00  0.00    -0.271 OA
ATOM      5  N   UNL     1      -1.358  -1.851   0.927  0.00  0.00    -0.282 N 
ATOM      6  H   UNL     1      -0.557  -2.537   0.617  0.00  0.00    +0.155 HD
BRANCH   5   7
ATOM      7  C   UNL     1      -2.430  -2.327   1.683  0.00  0.00    +0.034 A 
ATOM      8  C   UNL     1      -3.027  -1.506   2.634  0.00  0.00    +0.024 A 
ATOM      9  C   UNL     1      -4.088  -1.971   3.378  0.00  0.00    +0.015 A 
ATOM     10  C   UNL     1      -4.558  -3.272   3.184  0.00  0.00    +0.037 A 
ATOM     11  C   UNL     1      -3.952  -4.096   2.232  0.00  0.00    +0.015 A 
ATOM     12  C   UNL     1      -2.895  -3.623   1.487  0.00  0.00    +0.024 A 
BRANCH  10  13
ATOM     13  C   UNL     1      -5.692  -3.776   3.984  0.00  0.00    +0.242 C 
ATOM     14  O   UNL     1      -6.100  -4.909   3.814  0.00  0.00    -0.270 OA
ATOM     15  N   UNL     1      -6.275  -2.980   4.902  0.00  0.00    -0.325 N 
ATOM     16  H   UNL     1      -7.120  -3.356   5.498  0.00  0.00    +0.145 HD
ATOM     17  H   UNL     1      -5.906  -1.956   5.056  0.00  0.00    +0.145 HD
ENDBRANCH  10  13
ENDBRANCH   5   7
ENDBRANCH   2   3
BRANCH   2  18
ATOM     18  O   UNL     1      -0.225   1.426  -0.295  0.00  0.00    -0.452 OA
BRANCH  18  19
ATOM     19  C   UNL     1       0.909   2.144  -0.316  0.00  0.00    +0.311 C 
ATOM     20  O   UNL     1       1.977   1.590  -0.204  0.00  0.00    -0.251 OA
BRANCH  19  21
ATOM     21  C   UNL     1       0.850   3.653  -0.480  0.00  0.00    +0.098 C 
ATOM     22  C   UNL     1       0.105   3.961  -1.770  0.00  0.00    +0.020 C 
ATOM     23  C   UNL     1       0.247   5.416  -2.205  0.00  0.00    +0.016 C 
ATOM     24  C   UNL     1      -0.470   6.354  -1.239  0.00  0.00    +0.006 C 
ATOM     25  C   UNL     1       0.194   6.423   0.125  0.00  0.00    +0.001 C 
ATOM     26  C   UNL     1       1.704   6.580   0.071  0.00  0.00    +0.006 C 
ATOM     27  C   UNL     1       2.367   5.638  -0.929  0.00  0.00    +0.016 C 
ATOM     28  C   UNL     1       2.275   4.188  -0.467  0.00  0.00    +0.020 C 
ATOM     29  C   UNL     1       1.715   5.791  -2.290  0.00  0.00    +0.068 C 
ATOM     30  S   UNL     1       2.577   4.776  -3.545  0.00  0.00    -0.142 S 
ATOM     31  C   UNL     1       2.594   5.881  -5.013  0.00  0.00    +0.081 C 
ATOM     32  C   UNL     1       2.912   7.292  -4.455  0.00  0.00    +0.081 C 
ATOM     33  S   UNL     1       1.922   7.489  -2.929  0.00  0.00    -0.142 S 
ENDBRANCH  19  21
ENDBRANCH  18  19
ENDBRANCH   2  18
TORSDOF 6
