REMARK  Name = ZINC22059326
REMARK  8 active torsions:
REMARK  status: ('A' for Active; 'I' for Inactive)
REMARK    1  A    between atoms: C_1  and  C_2
REMARK    2  A    between atoms: C_13  and  C_15
REMARK    3  A    between atoms: N_17  and  C_18
REMARK    4  A    between atoms: C_18  and  C_19
REMARK    5  A    between atoms: C_18  and  C_20
REMARK    6  A    between atoms: C_18  and  C_21
REMARK    7  A    between atoms: C_21  and  O_22
REMARK    8  A    between atoms: C_27  and  C_33
REMARK                            x       y       z     vdW  Elec       q    Type
REMARK                         _______ _______ _______ _____ _____    ______ ____
ROOT
ATOM      1  C   UNL     1      -2.041  -0.229  -0.989  0.00  0.00    +0.012 C 
ATOM      2  C   UNL     1      -2.486   0.962  -0.138  0.00  0.00    -0.018 C 
ATOM      3  C   UNL     1      -3.152   0.465   1.130  0.00  0.00    +0.008 C 
ATOM      4  C   UNL     1      -4.291  -0.479   0.709  0.00  0.00    +0.005 C 
ATOM      5  C   UNL     1      -5.283   0.224  -0.211  0.00  0.00    +0.004 C 
ATOM      6  C   UNL     1      -4.582   0.818  -1.445  0.00  0.00    -0.003 C 
ATOM      7  C   UNL     1      -3.535   1.800  -0.918  0.00  0.00    -0.001 C 
ATOM      8  C   UNL     1      -2.662   2.477  -1.980  0.00  0.00    +0.005 C 
ATOM      9  C   UNL     1      -1.393   2.886  -1.180  0.00  0.00    +0.013 C 
ATOM     10  C   UNL     1      -1.323   1.933   0.039  0.00  0.00    +0.081 C 
ATOM     11  C   UNL     1      -5.603   1.561  -2.305  0.00  0.00    +0.006 C 
ATOM     12  C   UNL     1      -6.688   0.583  -2.765  0.00  0.00    +0.023 C 
ATOM     13  C   UNL     1      -7.377  -0.009  -1.537  0.00  0.00    +0.083 C 
ATOM     14  C   UNL     1      -6.346  -0.761  -0.693  0.00  0.00    +0.008 C 
ATOM     15  C   UNL     1      -7.040  -1.412   0.474  0.00  0.00    -0.013 C 
ATOM     16  C   UNL     1      -8.255  -1.934   0.287  0.00  0.00    +0.063 C 
ATOM     17  C   UNL     1      -8.865  -1.867  -1.053  0.00  0.00    +0.237 C 
ATOM     18  O   UNL     1      -9.734  -2.655  -1.371  0.00  0.00    -0.271 OA
ATOM     19  N   UNL     1      -8.451  -0.920  -1.925  0.00  0.00    -0.308 N 
ATOM     20  C   UNL     1      -5.684  -1.844  -1.547  0.00  0.00    +0.017 C 
ATOM     21  H   UNL     1      -8.915  -0.833  -2.918  0.00  0.00    +0.149 HD
ENDROOT
BRANCH  10  22
ATOM     22  C   UNL     1      -0.014   1.185   0.042  0.00  0.00    +0.217 C 
ATOM     23  O   UNL     1       0.584   1.004  -0.997  0.00  0.00    -0.275 OA
ATOM     24  N   UNL     1       0.494   0.721   1.201  0.00  0.00    -0.308 N 
ATOM     25  H   UNL     1      -0.049   0.885   2.144  0.00  0.00    +0.149 HD
BRANCH  24  26
ATOM     26  C   UNL     1       1.769  -0.001   1.205  0.00  0.00    +0.052 C 
ATOM     27  C   UNL     1       1.651  -1.249   0.328  0.00  0.00    +0.033 C 
ATOM     28  C   UNL     1       2.871   0.907   0.655  0.00  0.00    +0.033 C 
BRANCH  26  29
ATOM     29  C   UNL     1       2.116  -0.415   2.637  0.00  0.00    +0.181 C 
BRANCH  29  30
ATOM     30  O   UNL     1       3.359  -1.119   2.641  0.00  0.00    -0.393 OA
ATOM     31  H   UNL     1       3.774  -1.497   3.587  0.00  0.00    +0.209 HD
ENDBRANCH  29  30
ENDBRANCH  26  29
ENDBRANCH  24  26
ENDBRANCH  10  22
TORSDOF 4
