REMARK  Name = ZINC39639272
REMARK  8 active torsions:
REMARK  status: ('A' for Active; 'I' for Inactive)
REMARK    1  A    between atoms: C_1  and  C_2
REMARK    2  A    between atoms: C_5  and  C_8
REMARK    3  A    between atoms: C_8  and  C_10
REMARK    4  A    between atoms: C_8  and  N_11
REMARK    5  A    between atoms: C_12  and  C_14
REMARK    6  A    between atoms: C_25  and  C_27
REMARK    7  A    between atoms: C_30  and  O_33
REMARK    8  A    between atoms: O_33  and  C_34
REMARK                            x       y       z     vdW  Elec       q    Type
REMARK                         _______ _______ _______ _____ _____    ______ ____
ROOT
ATOM      1  C   UNL     1       2.828  -6.451   2.576  0.00  0.00    +0.100 C 
ATOM      2  C   UNL     1       1.805  -6.476   3.734  0.00  0.00    +0.121 C 
ATOM      3  N   UNL     1       1.314  -7.874   3.770  0.00  0.00    -0.296 N 
ATOM      4  C   UNL     1       2.520  -8.695   3.507  0.00  0.00    +0.115 C 
ATOM      5  C   UNL     1       3.297  -7.909   2.433  0.00  0.00    -0.004 C 
ATOM      6  C   UNL     1       4.798  -8.008   2.688  0.00  0.00    -0.010 C 
ATOM      7  C   UNL     1       5.252  -9.456   2.482  0.00  0.00    -0.082 C 
ATOM      8  N   UNL     1       4.939  -9.879   1.112  0.00  0.00    +0.379 N 
ATOM      9  C   UNL     1       3.486  -9.869   0.904  0.00  0.00    -0.082 C 
ATOM     10  C   UNL     1       2.958  -8.439   1.043  0.00  0.00    -0.010 C 
ATOM     11  C   UNL     1       0.055  -8.302   3.992  0.00  0.00    +0.247 C 
ATOM     12  O   UNL     1      -0.855  -7.499   4.069  0.00  0.00    -0.270 OA
ATOM     13  H   UNL     1       5.375  -9.245   0.459  0.00  0.00    -0.086 HD
ATOM     14  H   UNL     1       5.293 -10.811   0.960  0.00  0.00    -0.086 HD
ENDROOT
BRANCH  11  15
ATOM     15  C   UNL     1      -0.218  -9.744   4.143  0.00  0.00    +0.037 A 
ATOM     16  C   UNL     1       0.813 -10.620   4.495  0.00  0.00    +0.016 A 
ATOM     17  C   UNL     1       0.554 -11.965   4.635  0.00  0.00    +0.047 A 
ATOM     18  C   UNL     1      -0.731 -12.452   4.427  0.00  0.00    +0.130 A 
ATOM     19  C   UNL     1      -1.759 -11.585   4.077  0.00  0.00    +0.047 A 
ATOM     20  C   UNL     1      -1.509 -10.238   3.941  0.00  0.00    +0.016 A 
BRANCH  18  21
ATOM     21  O   UNL     1      -0.982 -13.779   4.565  0.00  0.00    -0.406 OA
BRANCH  21  22
ATOM     22  C   UNL     1      -2.324 -14.212   4.337  0.00  0.00    +0.575 C 
ATOM     23  F   UNL     1      -2.701 -13.893   3.028  0.00  0.00    -0.133 F 
ATOM     24  F   UNL     1      -2.405 -15.597   4.521  0.00  0.00    -0.133 F 
ATOM     25  F   UNL     1      -3.181 -13.572   5.239  0.00  0.00    -0.133 F 
ENDBRANCH  21  22
ENDBRANCH  18  21
ENDBRANCH  11  15
BRANCH   1  27
ATOM     26  N   UNL     1       2.911  -5.436   0.322  0.00  0.00    -0.308 N 
ATOM     27  C   UNL     1       2.168  -5.985   1.304  0.00  0.00    +0.219 C 
ATOM     28  O   UNL     1       0.970  -6.103   1.163  0.00  0.00    -0.275 OA
ATOM     29  H   UNL     1       3.870  -5.341   0.435  0.00  0.00    +0.149 HD
BRANCH  26  30
ATOM     30  C   UNL     1       2.270  -4.982  -0.915  0.00  0.00    +0.100 C 
ATOM     31  C   UNL     1       1.739  -3.560  -0.722  0.00  0.00    +0.033 C 
BRANCH  30  36
ATOM     32  C   UNL     1       6.131  -5.026  -5.214  0.00  0.00    +0.044 C 
ATOM     33  C   UNL     1       5.124  -5.014  -4.093  0.00  0.00    -0.050 A 
ATOM     34  C   UNL     1       3.827  -5.433  -4.324  0.00  0.00    +0.004 A 
ATOM     35  C   UNL     1       2.904  -5.422  -3.296  0.00  0.00    +0.006 A 
ATOM     36  C   UNL     1       3.277  -4.994  -2.036  0.00  0.00    -0.027 A 
ATOM     37  C   UNL     1       4.575  -4.577  -1.804  0.00  0.00    +0.006 A 
ATOM     38  C   UNL     1       5.499  -4.591  -2.832  0.00  0.00    +0.004 A 
ENDBRANCH  30  36
ENDBRANCH  26  30
ENDBRANCH   1  27
TORSDOF 6
