REMARK  Name = ZINC45522054
REMARK  6 active torsions:
REMARK  status: ('A' for Active; 'I' for Inactive)
REMARK    1  A    between atoms: C_3  and  N_30
REMARK    2  A    between atoms: C_6  and  C_7
REMARK    3  A    between atoms: C_10  and  C_12
REMARK    4  A    between atoms: C_13  and  C_14
REMARK    5  A    between atoms: C_17  and  C_19
REMARK    6  A    between atoms: N_21  and  C_22
REMARK                            x       y       z     vdW  Elec       q    Type
REMARK                         _______ _______ _______ _____ _____    ______ ____
ROOT
ATOM      1  C   UNL     1      -4.781  -1.042  -0.000  0.00  0.00    +0.069 C 
ATOM      2  C   UNL     1      -5.335   0.247   0.016  0.00  0.00    +0.078 C 
ATOM      3 CL   UNL     1      -4.296   1.638   0.018  0.00  0.00    -0.081 Cl
ENDROOT
BRANCH   1   7
ATOM      4  C   UNL     1      -1.253  -0.759  -0.034  0.00  0.00    +0.136 A 
ATOM      5  C   UNL     1      -1.357  -2.166  -0.045  0.00  0.00    +0.050 A 
ATOM      6  C   UNL     1      -2.680  -2.480  -0.034  0.00  0.00    +0.050 A 
ATOM      7  C   UNL     1      -3.406  -1.204  -0.015  0.00  0.00    +0.130 A 
ATOM      8  O   UNL     1      -2.482  -0.218  -0.011  0.00  0.00    -0.455 OA
BRANCH   4  14
ATOM      9  C   UNL     1      -0.017   1.400  -0.024  0.00  0.00    +0.014 A 
ATOM     10  C   UNL     1       1.168   2.099  -0.030  0.00  0.00    +0.033 A 
ATOM     11  C   UNL     1       2.378   1.422  -0.054  0.00  0.00    +0.126 A 
ATOM     12  C   UNL     1       2.408   0.036  -0.072  0.00  0.00    +0.033 A 
ATOM     13  C   UNL     1       1.234  -0.682  -0.066  0.00  0.00    +0.014 A 
ATOM     14  C   UNL     1       0.002  -0.006  -0.041  0.00  0.00    +0.017 A 
BRANCH  11  15
ATOM     15  N   UNL     1       3.647   2.184  -0.061  0.00  0.00    +0.056 N 
ATOM     16  O   UNL     1       3.624   3.501  -0.045  0.00  0.00    -0.126 OA
ATOM     17  O   UNL     1       4.798   1.546  -0.084  0.00  0.00    -0.126 OA
ENDBRANCH  11  15
ENDBRANCH   4  14
ENDBRANCH   1   7
BRANCH   2  18
ATOM     18  C   UNL     1      -6.732   0.412   0.032  0.00  0.00    +0.144 A 
ATOM     19  N   UNL     1      -7.709  -0.513   0.040  0.00  0.00    -0.140 NA
ATOM     20  N   UNL     1      -8.910  -0.121   0.055  0.00  0.00    -0.136 NA
ATOM     21  C   UNL     1      -9.223   1.176   0.063  0.00  0.00    +0.187 A 
ATOM     22  S   UNL     1      -7.706   1.910   0.055  0.00  0.00    -0.040 S 
BRANCH  21  23
ATOM     23  C   UNL     1     -10.561   1.808   0.079  0.00  0.00    +0.275 C 
ATOM     24  O   UNL     1     -10.661   3.020   0.084  0.00  0.00    -0.268 OA
ATOM     25  N   UNL     1     -11.669   1.041   0.089  0.00  0.00    -0.280 N 
ATOM     26  H   UNL     1     -11.592   0.077   0.018  0.00  0.00    +0.155 HD
BRANCH  25  27
ATOM     27  C   UNL     1     -12.930   1.635   0.202  0.00  0.00    +0.034 A 
ATOM     28  C   UNL     1     -13.938   0.997   0.914  0.00  0.00    +0.026 A 
ATOM     29  C   UNL     1     -15.182   1.586   1.024  0.00  0.00    +0.040 A 
ATOM     30  C   UNL     1     -15.426   2.811   0.425  0.00  0.00    +0.124 A 
ATOM     31  C   UNL     1     -14.422   3.448  -0.285  0.00  0.00    +0.040 A 
ATOM     32  C   UNL     1     -13.175   2.866  -0.393  0.00  0.00    +0.026 A 
ATOM     33  F   UNL     1     -16.644   3.384   0.534  0.00  0.00    -0.205 F 
ENDBRANCH  25  27
ENDBRANCH  21  23
ENDBRANCH   2  18
TORSDOF 6
