REMARK  Name = ZINC37730339
REMARK  6 active torsions:
REMARK  status: ('A' for Active; 'I' for Inactive)
REMARK    1  A    between atoms: C_1  and  C_2
REMARK    2  A    between atoms: C_6  and  N_19
REMARK    3  A    between atoms: C_7  and  N_8
REMARK    4  A    between atoms: N_8  and  S_9
REMARK    5  A    between atoms: S_9  and  C_12
REMARK    6  A    between atoms: C_17  and  C_18
REMARK                            x       y       z     vdW  Elec       q    Type
REMARK                         _______ _______ _______ _____ _____    ______ ____
ROOT
ATOM      1  N   UNL     1       0.082  -0.467   2.785  0.00  0.00    -0.214 N 
ATOM      2  H   UNL     1       0.284   0.456   3.003  0.00  0.00    +0.174 HD
ENDROOT
BRANCH   1   9
ATOM      3  C   UNL     1      -2.435   0.499   1.882  0.00  0.00    +0.046 C 
ATOM      4  C   UNL     1      -1.552  -0.358   1.011  0.00  0.00    -0.025 A 
ATOM      5  C   UNL     1      -1.957  -0.690  -0.269  0.00  0.00    +0.020 A 
ATOM      6  C   UNL     1      -1.150  -1.476  -1.071  0.00  0.00    +0.020 A 
ATOM      7  C   UNL     1       0.067  -1.935  -0.597  0.00  0.00    +0.040 A 
ATOM      8  C   UNL     1       0.480  -1.605   0.684  0.00  0.00    +0.049 A 
ATOM      9  C   UNL     1      -0.332  -0.808   1.491  0.00  0.00    +0.072 A 
ATOM     10 BR   UNL     1      -1.712  -1.927  -2.820  0.00  0.00    -0.050 Br
BRANCH   8  11
ATOM     11  N   UNL     1       1.710  -2.068   1.166  0.00  0.00    -0.356 N 
ATOM     12  H   UNL     1       2.189  -2.762   0.686  0.00  0.00    +0.142 HD
ATOM     13  H   UNL     1       2.084  -1.695   1.980  0.00  0.00    +0.142 HD
ENDBRANCH   8  11
ENDBRANCH   1   9
BRANCH   1  14
ATOM     14  S   UNL     1       0.227  -1.641   3.944  0.00  0.00    +0.076 S 
ATOM     15  O   UNL     1       0.906  -2.731   3.336  0.00  0.00    -0.150 OA
ATOM     16  O   UNL     1       0.713  -0.999   5.115  0.00  0.00    -0.150 OA
BRANCH  14  17
ATOM     17  C   UNL     1      -1.399  -2.207   4.319  0.00  0.00    +0.148 A 
ATOM     18  C   UNL     1      -1.892  -3.498   4.101  0.00  0.00    +0.163 A 
ATOM     19  N   UNL     1      -3.135  -3.534   4.505  0.00  0.00    -0.180 NA
ATOM     20  N   UNL     1      -3.474  -2.266   4.994  0.00  0.00    -0.280 N 
ATOM     21  H   UNL     1      -4.335  -2.006   5.358  0.00  0.00    +0.189 HD
ATOM     22  C   UNL     1      -2.390  -1.472   4.873  0.00  0.00    +0.060 A 
ATOM     23  C   UNL     1      -2.300  -0.023   5.280  0.00  0.00    +0.067 C 
ENDBRANCH  14  17
ENDBRANCH   1  14
TORSDOF 4
