REMARK  Name = ZINC22687943
REMARK  6 active torsions:
REMARK  status: ('A' for Active; 'I' for Inactive)
REMARK    1  A    between atoms: C_4  and  C_7
REMARK    2  A    between atoms: C_7  and  C_8
REMARK    3  A    between atoms: C_14  and  C_16
REMARK    4  A    between atoms: C_21  and  N_22
REMARK    5  A    between atoms: N_22  and  S_23
REMARK    6  A    between atoms: S_23  and  C_26
REMARK                            x       y       z     vdW  Elec       q    Type
REMARK                         _______ _______ _______ _____ _____    ______ ____
ROOT
ATOM      1  C   UNL     1       3.213   2.861  -3.756  0.00  0.00    +0.059 A 
ATOM      2  C   UNL     1       3.100   4.026  -4.519  0.00  0.00    +0.015 A 
ATOM      3  C   UNL     1       2.414   5.111  -4.019  0.00  0.00    +0.001 A 
ATOM      4  C   UNL     1       1.834   5.054  -2.761  0.00  0.00    +0.002 A 
ATOM      5  C   UNL     1       1.932   3.909  -1.998  0.00  0.00    +0.025 A 
ATOM      6  C   UNL     1       2.625   2.806  -2.483  0.00  0.00    +0.060 A 
ENDROOT
BRANCH   1  13
ATOM      7  C   UNL     1       2.825   0.039  -7.872  0.00  0.00    -0.004 C 
ATOM      8  C   UNL     1       3.663  -0.722  -6.842  0.00  0.00    +0.023 C 
ATOM      9  C   UNL     1       4.617   0.254  -6.146  0.00  0.00    +0.108 C 
ATOM     10  N   UNL     1       3.834   1.364  -5.587  0.00  0.00    -0.297 N 
ATOM     11  C   UNL     1       2.922   2.102  -6.472  0.00  0.00    +0.108 C 
ATOM     12  C   UNL     1       1.991   1.109  -7.165  0.00  0.00    +0.023 C 
ATOM     13  C   UNL     1       3.946   1.696  -4.285  0.00  0.00    +0.248 C 
ATOM     14  O   UNL     1       4.651   1.035  -3.547  0.00  0.00    -0.270 OA
BRANCH   7  15
ATOM     15  C   UNL     1       1.895  -0.939  -8.594  0.00  0.00    +0.038 C 
BRANCH  15  19
ATOM     16  C   UNL     1      -0.192   1.113 -11.705  0.00  0.00    +0.000 A 
ATOM     17  C   UNL     1       1.024   0.512 -11.969  0.00  0.00    +0.000 A 
ATOM     18  C   UNL     1       1.699  -0.152 -10.962  0.00  0.00    +0.003 A 
ATOM     19  C   UNL     1       1.159  -0.214  -9.691  0.00  0.00    -0.047 A 
ATOM     20  C   UNL     1      -0.060   0.383  -9.429  0.00  0.00    +0.003 A 
ATOM     21  C   UNL     1      -0.733   1.051 -10.434  0.00  0.00    +0.000 A 
ENDBRANCH  15  19
ENDBRANCH   7  15
ENDBRANCH   1  13
BRANCH   6  22
ATOM     22  N   UNL     1       2.730   1.654  -1.714  0.00  0.00    -0.216 N 
ATOM     23  H   UNL     1       3.597   0.989  -1.836  0.00  0.00    +0.174 HD
BRANCH  22  24
ATOM     24  S   UNL     1       1.549   1.282  -0.615  0.00  0.00    +0.072 S 
ATOM     25  O   UNL     1       1.398   2.422   0.220  0.00  0.00    -0.150 OA
ATOM     26  O   UNL     1       1.865  -0.003  -0.099  0.00  0.00    -0.150 OA
BRANCH  24  27
ATOM     27  C   UNL     1       0.040   1.109  -1.509  0.00  0.00    +0.111 A 
ATOM     28  C   UNL     1      -0.774   2.211  -1.705  0.00  0.00    +0.031 A 
ATOM     29  C   UNL     1      -1.959   2.085  -2.404  0.00  0.00    +0.030 A 
ATOM     30  C   UNL     1      -2.333   0.850  -2.912  0.00  0.00    +0.067 A 
ATOM     31  C   UNL     1      -1.511  -0.261  -2.714  0.00  0.00    +0.069 A 
ATOM     32  C   UNL     1      -0.324  -0.125  -2.011  0.00  0.00    +0.056 A 
ATOM     33  N   UNL     1      -2.139  -1.342  -3.328  0.00  0.00    -0.306 N 
ATOM     34  H   UNL     1      -1.672  -2.337  -3.303  0.00  0.00    +0.170 HD
ATOM     35  C   UNL     1      -3.291  -0.908  -3.875  0.00  0.00    +0.325 A 
ATOM     36  O   UNL     1      -4.081  -1.602  -4.487  0.00  0.00    -0.247 OA
ATOM     37  N   UNL     1      -3.436   0.410  -3.640  0.00  0.00    -0.306 N 
ATOM     38  H   UNL     1      -4.229   1.119  -3.918  0.00  0.00    +0.170 HD
ENDBRANCH  24  27
ENDBRANCH  22  24
ENDBRANCH   6  22
TORSDOF 6
