REMARK  Name = ZINC45254634
REMARK  6 active torsions:
REMARK  status: ('A' for Active; 'I' for Inactive)
REMARK    1  A    between atoms: C_1  and  C_2
REMARK    2  A    between atoms: N_6  and  C_7
REMARK    3  A    between atoms: C_7  and  C_8
REMARK    4  A    between atoms: N_10  and  N_11
REMARK    5  A    between atoms: C_12  and  C_13
REMARK    6  A    between atoms: N_28  and  C_29
REMARK                            x       y       z     vdW  Elec       q    Type
REMARK                         _______ _______ _______ _____ _____    ______ ____
ROOT
ATOM      1  C   UNL     1      -0.018   1.503   0.010  0.00  0.00    +0.067 C 
ATOM      2  C   UNL     1       0.002  -0.004   0.002  0.00  0.00    +0.060 A 
ATOM      3  C   UNL     1       0.008  -0.792  -1.088  0.00  0.00    +0.099 A 
ATOM      4  C   UNL     1       0.022  -2.144  -0.655  0.00  0.00    +0.117 A 
ATOM      5  N   UNL     1       0.032  -2.146   0.655  0.00  0.00    -0.168 NA
ATOM      6  N   UNL     1       0.024  -0.815   1.097  0.00  0.00    -0.257 N 
ATOM      7  C   UNL     1       0.019  -3.306  -1.576  0.00  0.00    +0.031 A 
ATOM      8  C   UNL     1      -0.268  -4.585  -1.108  0.00  0.00    +0.012 A 
ATOM      9  C   UNL     1      -0.280  -5.650  -1.986  0.00  0.00    +0.001 A 
ATOM     10  C   UNL     1      -0.011  -5.448  -3.328  0.00  0.00    +0.002 A 
ATOM     11  C   UNL     1       0.281  -4.180  -3.799  0.00  0.00    +0.029 A 
ATOM     12  C   UNL     1       0.303  -3.110  -2.929  0.00  0.00    +0.118 A 
ATOM     13  S   UNL     1       0.712  -1.496  -3.514  0.00  0.00    +0.075 S 
ATOM     14  O   UNL     1       0.051  -1.332  -4.761  0.00  0.00    -0.150 OA
ATOM     15  O   UNL     1       2.118  -1.352  -3.369  0.00  0.00    -0.150 OA
ATOM     16  N   UNL     1       0.005  -0.424  -2.451  0.00  0.00    -0.202 N 
ATOM     17  C   UNL     1      -0.590   0.834  -2.908  0.00  0.00    +0.158 C 
ENDROOT
BRANCH   6  18
ATOM     18  C   UNL     1       0.034  -0.373   2.494  0.00  0.00    +0.241 C 
BRANCH  18  19
ATOM     19  C   UNL     1      -1.384  -0.239   2.988  0.00  0.00    +0.254 C 
ATOM     20  O   UNL     1      -2.311  -0.488   2.247  0.00  0.00    -0.272 OA
ATOM     21  N   UNL     1      -1.621   0.158   4.254  0.00  0.00    -0.205 N 
ATOM     22  H   UNL     1      -0.880   0.357   4.847  0.00  0.00    +0.177 HD
BRANCH  21  23
ATOM     23  N   UNL     1      -2.939   0.282   4.714  0.00  0.00    -0.186 NA
ATOM     24  C   UNL     1      -3.168   0.664   5.933  0.00  0.00    +0.158 C 
BRANCH  24  25
ATOM     25  C   UNL     1      -4.555   0.795   6.416  0.00  0.00    +0.083 A 
ATOM     26  C   UNL     1      -4.795   1.212   7.727  0.00  0.00    +0.029 A 
ATOM     27  C   UNL     1      -6.102   1.330   8.165  0.00  0.00    +0.004 A 
ATOM     28  C   UNL     1      -7.128   1.028   7.280  0.00  0.00    +0.020 A 
ATOM     29  C   UNL     1      -6.819   0.621   5.995  0.00  0.00    +0.111 A 
ATOM     30  N   UNL     1      -5.567   0.521   5.600  0.00  0.00    -0.254 NA
ENDBRANCH  24  25
ENDBRANCH  21  23
ENDBRANCH  18  19
ENDBRANCH   6  18
TORSDOF 4
