REMARK  Name = ZINC09652798
REMARK  7 active torsions:
REMARK  status: ('A' for Active; 'I' for Inactive)
REMARK    1  A    between atoms: C_1  and  C_2
REMARK    2  A    between atoms: C_13  and  C_15
REMARK    3  A    between atoms: C_15  and  O_16
REMARK    4  A    between atoms: O_16  and  C_17
REMARK    5  A    between atoms: C_17  and  C_19
REMARK    6  A    between atoms: C_22  and  N_28
REMARK    7  A    between atoms: C_23  and  N_25
REMARK                            x       y       z     vdW  Elec       q    Type
REMARK                         _______ _______ _______ _____ _____    ______ ____
ROOT
ATOM      1  O   UNL     1       1.390   0.844   4.484  0.00  0.00    -0.452 OA
ENDROOT
BRANCH   1   2
ATOM      2  C   UNL     1       2.107   0.557   5.588  0.00  0.00    +0.340 C 
ATOM      3  O   UNL     1       2.714  -0.493   5.663  0.00  0.00    -0.245 OA
BRANCH   2   4
ATOM      4  C   UNL     1       2.154   1.516   6.706  0.00  0.00    +0.061 A 
ATOM      5  C   UNL     1       1.451   2.723   6.624  0.00  0.00    +0.017 A 
ATOM      6  C   UNL     1       1.495   3.611   7.660  0.00  0.00    +0.026 A 
ATOM      7  C   UNL     1       2.239   3.321   8.801  0.00  0.00    +0.055 A 
ATOM      8  C   UNL     1       2.942   2.122   8.891  0.00  0.00    +0.147 A 
ATOM      9  C   UNL     1       2.897   1.220   7.853  0.00  0.00    +0.049 A 
BRANCH   8  10
ATOM     10  N   UNL     1       3.731   1.817  10.105  0.00  0.00    +0.058 N 
ATOM     11  O   UNL     1       4.793   1.245  10.008  0.00  0.00    -0.126 OA
ATOM     12  O   UNL     1       3.315   2.138  11.194  0.00  0.00    -0.126 OA
ENDBRANCH   8  10
BRANCH   7  13
ATOM     13  N   UNL     1       2.279   4.229   9.852  0.00  0.00    -0.356 N 
ATOM     14  H   UNL     1       1.844   5.092   9.765  0.00  0.00    +0.142 HD
ATOM     15  H   UNL     1       2.743   4.001  10.673  0.00  0.00    +0.142 HD
ENDBRANCH   7  13
ENDBRANCH   2   4
ENDBRANCH   1   2
BRANCH   1  16
ATOM     16  C   UNL     1       1.389  -0.132   3.439  0.00  0.00    +0.328 C 
BRANCH  16  28
ATOM     17  C   UNL     1       1.383  -2.214   2.422  0.00  0.00    +0.028 C 
ATOM     18  C   UNL     1       1.154  -1.640   1.022  0.00  0.00    +0.079 C 
ATOM     19  C   UNL     1       0.194  -2.546   0.240  0.00  0.00    +0.027 C 
ATOM     20  C   UNL     1       0.035  -1.991  -1.176  0.00  0.00    +0.039 C 
ATOM     21  C   UNL     1      -0.323  -0.529  -1.132  0.00  0.00    -0.026 A 
ATOM     22  C   UNL     1      -0.923   0.047  -2.239  0.00  0.00    +0.005 A 
ATOM     23  C   UNL     1      -1.261   1.386  -2.231  0.00  0.00    +0.000 A 
ATOM     24  C   UNL     1      -1.001   2.161  -1.116  0.00  0.00    +0.002 A 
ATOM     25  C   UNL     1      -0.404   1.595  -0.008  0.00  0.00    +0.024 A 
ATOM     26  C   UNL     1      -0.065   0.246  -0.013  0.00  0.00    +0.040 A 
ATOM     27  N   UNL     1       0.535  -0.311   1.125  0.00  0.00    -0.266 N 
ATOM     28  C   UNL     1       0.541   0.359   2.294  0.00  0.00    +0.258 C 
ATOM     29  O   UNL     1      -0.135   1.357   2.425  0.00  0.00    -0.272 OA
ENDBRANCH  16  28
ENDBRANCH   1  16
TORSDOF 6
