REMARK  Name = ZINC09694137
REMARK  12 active torsions:
REMARK  status: ('A' for Active; 'I' for Inactive)
REMARK    1  A    between atoms: C_1  and  C_2
REMARK    2  A    between atoms: C_4  and  C_38
REMARK    3  A    between atoms: C_5  and  O_37
REMARK    4  A    between atoms: C_6  and  C_8
REMARK    5  A    between atoms: N_16  and  C_33
REMARK    6  A    between atoms: C_17  and  C_19
REMARK    7  A    between atoms: C_22  and  O_25
REMARK    8  A    between atoms: O_25  and  C_26
REMARK    9  A    between atoms: C_26  and  C_27
REMARK   10  A    between atoms: C_33  and  C_34
REMARK   11  A    between atoms: C_34  and  C_35
REMARK   12  A    between atoms: C_35  and  O_36
REMARK                            x       y       z     vdW  Elec       q    Type
REMARK                         _______ _______ _______ _____ _____    ______ ____
ROOT
ATOM      1  C   UNL     1       0.123  -2.932   2.542  0.00  0.00    +0.102 A 
ATOM      2  C   UNL     1       0.176  -2.326   3.802  0.00  0.00    +0.035 A 
ATOM      3  C   UNL     1       0.143  -3.360   4.719  0.00  0.00    +0.126 A 
ATOM      4  N   UNL     1       0.073  -4.512   3.989  0.00  0.00    -0.272 N 
ATOM      5  H   UNL     1       0.037  -5.407   4.362  0.00  0.00    +0.189 HD
ATOM      6  N   UNL     1       0.059  -4.235   2.734  0.00  0.00    -0.173 NA
ATOM      7  C   UNL     1       0.196  -2.788   6.069  0.00  0.00    +0.265 C 
ATOM      8  O   UNL     1       0.184  -3.435   7.098  0.00  0.00    -0.268 OA
ATOM      9  N   UNL     1       0.260  -1.446   6.007  0.00  0.00    -0.285 N 
ATOM     10  C   UNL     1       0.253  -1.049   4.593  0.00  0.00    +0.141 C 
ENDROOT
BRANCH   1  16
ATOM     11  C   UNL     1      -1.573   0.702  -0.430  0.00  0.00    +0.044 C 
ATOM     12  C   UNL     1      -0.681  -0.490  -0.202  0.00  0.00    -0.049 A 
ATOM     13  C   UNL     1       0.147  -0.936  -1.217  0.00  0.00    +0.010 A 
ATOM     14  C   UNL     1       0.969  -2.029  -1.016  0.00  0.00    -0.008 A 
ATOM     15  C   UNL     1       0.968  -2.684   0.205  0.00  0.00    +0.129 A 
ATOM     16  C   UNL     1       0.132  -2.236   1.232  0.00  0.00    +0.044 A 
ATOM     17  C   UNL     1      -0.688  -1.131   1.021  0.00  0.00    +0.017 A 
ATOM     18  C   UNL     1       1.868  -2.509  -2.127  0.00  0.00    +0.047 C 
BRANCH  15  19
ATOM     19  O   UNL     1       1.775  -3.759   0.402  0.00  0.00    -0.506 OA
ATOM     20  H   UNL     1       2.650  -3.536   0.748  0.00  0.00    +0.292 HD
ENDBRANCH  15  19
ENDBRANCH   1  16
BRANCH  10  21
ATOM     21  C   UNL     1       1.520  -0.306   4.256  0.00  0.00    -0.022 A 
ATOM     22  C   UNL     1       2.742  -0.802   4.673  0.00  0.00    +0.009 A 
ATOM     23  C   UNL     1       3.905  -0.122   4.366  0.00  0.00    +0.046 A 
ATOM     24  C   UNL     1       3.847   1.058   3.639  0.00  0.00    +0.121 A 
ATOM     25  C   UNL     1       2.619   1.553   3.223  0.00  0.00    +0.046 A 
ATOM     26  C   UNL     1       1.460   0.867   3.527  0.00  0.00    +0.009 A 
BRANCH  24  27
ATOM     27  O   UNL     1       4.989   1.728   3.337  0.00  0.00    -0.487 OA
BRANCH  27  28
ATOM     28  C   UNL     1       4.853   2.937   2.586  0.00  0.00    +0.264 C 
BRANCH  28  29
ATOM     29  C   UNL     1       6.215   3.536   2.348  0.00  0.00    -0.010 A 
ATOM     30  C   UNL     1       6.747   4.429   3.259  0.00  0.00    +0.007 A 
ATOM     31  C   UNL     1       7.996   4.978   3.041  0.00  0.00    +0.000 A 
ATOM     32  C   UNL     1       8.714   4.635   1.910  0.00  0.00    +0.000 A 
ATOM     33  C   UNL     1       8.183   3.742   0.999  0.00  0.00    +0.000 A 
ATOM     34  C   UNL     1       6.935   3.189   1.220  0.00  0.00    +0.007 A 
ENDBRANCH  28  29
ENDBRANCH  27  28
ENDBRANCH  24  27
ENDBRANCH  10  21
BRANCH   9  35
ATOM     35  C   UNL     1       0.326  -0.536   7.153  0.00  0.00    +0.111 C 
BRANCH  35  36
ATOM     36  C   UNL     1       1.790  -0.289   7.525  0.00  0.00    +0.047 C 
BRANCH  36  37
ATOM     37  C   UNL     1       1.859   0.662   8.722  0.00  0.00    +0.157 C 
BRANCH  37  38
ATOM     38  O   UNL     1       3.226   0.892   9.069  0.00  0.00    -0.395 OA
ATOM     39  H   UNL     1       3.345   1.488   9.821  0.00  0.00    +0.209 HD
ENDBRANCH  37  38
ENDBRANCH  36  37
ENDBRANCH  35  36
ENDBRANCH   9  35
TORSDOF 10
