REMARK  Name = ZINC11652632
REMARK  6 active torsions:
REMARK  status: ('A' for Active; 'I' for Inactive)
REMARK    1  A    between atoms: C_4  and  C_7
REMARK    2  A    between atoms: C_7  and  C_9
REMARK    3  A    between atoms: C_7  and  N_53
REMARK    4  A    between atoms: C_9  and  N_10
REMARK    5  A    between atoms: C_11  and  C_13
REMARK    6  A    between atoms: C_13  and  C_14
REMARK                            x       y       z     vdW  Elec       q    Type
REMARK                         _______ _______ _______ _____ _____    ______ ____
ROOT
ATOM      1  N   UNL     1      -0.009   0.945   0.024  0.00  0.00    -0.316 N 
ATOM      2  C   UNL     1       1.159   1.615  -0.031  0.00  0.00    +0.215 C 
ATOM      3  O   UNL     1       1.161   2.821  -0.158  0.00  0.00    -0.276 OA
ATOM      4  H   UNL     1      -0.011  -0.019   0.125  0.00  0.00    +0.149 HD
ENDROOT
BRANCH   1   5
ATOM      5  C   UNL     1      -1.277   1.673  -0.077  0.00  0.00    +0.093 C 
BRANCH   5   6
ATOM      6  C   UNL     1      -2.437   0.676  -0.108  0.00  0.00    -0.020 C 
BRANCH   6  10
ATOM      7  C   UNL     1      -2.640  -1.388   3.626  0.00  0.00    +0.000 A 
ATOM      8  C   UNL     1      -2.047  -1.992   2.533  0.00  0.00    +0.000 A 
ATOM      9  C   UNL     1      -1.981  -1.324   1.325  0.00  0.00    +0.002 A 
ATOM     10  C   UNL     1      -2.509  -0.052   1.209  0.00  0.00    -0.059 A 
ATOM     11  C   UNL     1      -3.098   0.554   2.303  0.00  0.00    +0.002 A 
ATOM     12  C   UNL     1      -3.168  -0.116   3.510  0.00  0.00    +0.000 A 
ENDBRANCH   6  10
BRANCH   6  17
ATOM     13  C   UNL     1      -3.651   2.152  -1.617  0.00  0.00    -0.078 C 
ATOM     14  C   UNL     1      -5.147   2.384  -1.945  0.00  0.00    -0.020 C 
ATOM     15  C   UNL     1      -5.811   1.066  -1.485  0.00  0.00    -0.020 C 
ATOM     16  C   UNL     1      -4.830   0.457  -0.466  0.00  0.00    -0.078 C 
ATOM     17  N   UNL     1      -3.719   1.403  -0.353  0.00  0.00    +0.385 N 
ATOM     18  H   UNL     1      -3.893   2.050   0.425  0.00  0.00    -0.081 HD
ENDBRANCH   6  17
ENDBRANCH   5   6
ENDBRANCH   1   5
BRANCH   2  19
ATOM     19  C   UNL     1       2.462   0.865   0.066  0.00  0.00    +0.119 C 
BRANCH  19  20
ATOM     20  C   UNL     1       3.627   1.853  -0.022  0.00  0.00    +0.146 C 
ATOM     21  C   UNL     1       4.931   1.099  -0.049  0.00  0.00    +0.231 C 
ATOM     22  O   UNL     1       5.462   0.902  -1.121  0.00  0.00    -0.274 OA
ATOM     23  N   UNL     1       5.528   0.639   1.046  0.00  0.00    -0.284 N 
ATOM     24  C   UNL     1       5.135   0.859   2.363  0.00  0.00    +0.048 A 
ATOM     25  C   UNL     1       5.657   0.058   3.373  0.00  0.00    +0.044 A 
ATOM     26  C   UNL     1       5.276   0.254   4.686  0.00  0.00    +0.043 A 
ATOM     27  C   UNL     1       4.378   1.255   5.013  0.00  0.00    +0.021 A 
ATOM     28  C   UNL     1       3.865   2.070   4.022  0.00  0.00    +0.018 A 
ATOM     29  C   UNL     1       4.247   1.880   2.704  0.00  0.00    +0.030 A 
ATOM     30  S   UNL     1       3.621   2.939   1.438  0.00  0.00    -0.110 S 
ATOM     31 CL   UNL     1       5.928  -0.762   5.934  0.00  0.00    -0.083 Cl
ATOM     32  H   UNL     1       6.319   0.094   0.914  0.00  0.00    +0.155 HD
ENDBRANCH  19  20
ENDBRANCH   2  19
TORSDOF 6
