REMARK  Name = ZINC21221766
REMARK  10 active torsions:
REMARK  status: ('A' for Active; 'I' for Inactive)
REMARK    1  A    between atoms: C_1  and  C_2
REMARK    2  A    between atoms: C_2  and  O_3
REMARK    3  A    between atoms: O_3  and  C_4
REMARK    4  A    between atoms: C_8  and  C_10
REMARK    5  A    between atoms: C_15  and  C_20
REMARK    6  A    between atoms: C_23  and  O_26
REMARK    7  A    between atoms: O_26  and  C_27
REMARK    8  A    between atoms: C_27  and  C_28
REMARK    9  A    between atoms: C_28  and  C_29
REMARK   10  A    between atoms: C_28  and  C_30
REMARK                            x       y       z     vdW  Elec       q    Type
REMARK                         _______ _______ _______ _____ _____    ______ ____
ROOT
ATOM      1  C   UNL     1       2.023  -0.555   1.311  0.00  0.00    +0.136 C 
ATOM      2  C   UNL     1       2.644   0.776   1.666  0.00  0.00    +0.036 C 
ATOM      3  C   UNL     1       2.318   1.965   1.131  0.00  0.00    +0.017 C 
ATOM      4  C   UNL     1       3.029   3.232   1.579  0.00  0.00    +0.059 C 
ATOM      5  C   UNL     1       3.436   3.113   3.046  0.00  0.00    +0.032 C 
ATOM      6  C   UNL     1       4.368   1.902   3.174  0.00  0.00    +0.088 C 
ATOM      7  C   UNL     1       3.648   0.692   2.659  0.00  0.00    +0.163 C 
ATOM      8  O   UNL     1       3.937  -0.399   3.110  0.00  0.00    -0.292 OA
ATOM      9  N   UNL     1       1.379   2.154   0.168  0.00  0.00    -0.316 N 
ATOM     10  C   UNL     1       0.103   1.600   0.182  0.00  0.00    +0.052 A 
ATOM     11  C   UNL     1      -1.041   2.376   0.243  0.00  0.00    +0.025 A 
ATOM     12  C   UNL     1      -2.281   1.762   0.183  0.00  0.00    +0.002 A 
ATOM     13  C   UNL     1      -2.372   0.388   0.063  0.00  0.00    +0.002 A 
ATOM     14  C   UNL     1      -1.229  -0.391   0.021  0.00  0.00    +0.025 A 
ATOM     15  C   UNL     1       0.014   0.219   0.100  0.00  0.00    +0.049 A 
ATOM     16  N   UNL     1       1.188  -0.530   0.129  0.00  0.00    -0.331 N 
ATOM     17  H   UNL     1       1.604   2.785  -0.704  0.00  0.00    +0.152 HD
ATOM     18  H   UNL     1       1.477  -1.108  -0.761  0.00  0.00    +0.147 HD
ENDROOT
BRANCH   1  23
ATOM     19  C   UNL     1      -0.704  -0.735   3.920  0.00  0.00    +0.121 A 
ATOM     20  C   UNL     1      -0.339  -1.877   4.619  0.00  0.00    +0.045 A 
ATOM     21  C   UNL     1       0.787  -2.585   4.245  0.00  0.00    +0.004 A 
ATOM     22  C   UNL     1       1.550  -2.156   3.175  0.00  0.00    +0.006 A 
ATOM     23  C   UNL     1       1.189  -1.019   2.476  0.00  0.00    -0.019 A 
ATOM     24  C   UNL     1       0.067  -0.305   2.850  0.00  0.00    +0.051 A 
BRANCH  19  25
ATOM     25  O   UNL     1      -1.810  -0.037   4.287  0.00  0.00    -0.492 OA
BRANCH  25  27
ATOM     26  C   UNL     1      -3.754   0.374   5.662  0.00  0.00    +0.048 C 
ATOM     27  C   UNL     1      -2.552  -0.536   5.402  0.00  0.00    +0.225 C 
ENDBRANCH  25  27
ENDBRANCH  19  25
ENDBRANCH   1  23
BRANCH   5  28
ATOM     28  C   UNL     1       4.160   4.362   3.478  0.00  0.00    -0.043 A 
ATOM     29  C   UNL     1       5.330   4.736   2.845  0.00  0.00    +0.007 A 
ATOM     30  C   UNL     1       5.992   5.884   3.236  0.00  0.00    +0.046 A 
ATOM     31  C   UNL     1       5.487   6.656   4.272  0.00  0.00    +0.121 A 
ATOM     32  C   UNL     1       4.315   6.276   4.909  0.00  0.00    +0.046 A 
ATOM     33  C   UNL     1       3.654   5.130   4.511  0.00  0.00    +0.007 A 
BRANCH  31  34
ATOM     34  O   UNL     1       6.139   7.783   4.662  0.00  0.00    -0.492 OA
BRANCH  34  35
ATOM     35  C   UNL     1       7.340   8.113   3.960  0.00  0.00    +0.232 C 
BRANCH  35  36
ATOM     36  C   UNL     1       7.928   9.403   4.535  0.00  0.00    +0.020 C 
ATOM     37  C   UNL     1       9.276   9.690   3.870  0.00  0.00    +0.010 C 
ATOM     38  C   UNL     1       6.969  10.565   4.265  0.00  0.00    +0.010 C 
ENDBRANCH  35  36
ENDBRANCH  34  35
ENDBRANCH  31  34
ENDBRANCH   5  28
TORSDOF 7
