REMARK  Name = ZINC04171150
REMARK  4 active torsions:
REMARK  status: ('A' for Active; 'I' for Inactive)
REMARK    1  A    between atoms: C_6  and  C_7
REMARK    2  A    between atoms: C_10  and  C_21
REMARK    3  A    between atoms: C_16  and  N_20
REMARK    4  A    between atoms: C_17  and  C_18
REMARK                            x       y       z     vdW  Elec       q    Type
REMARK                         _______ _______ _______ _____ _____    ______ ____
ROOT
ATOM      1  C   UNL     1      -1.428  -0.790   0.030  0.00  0.00    +0.101 C 
ATOM      2  C   UNL     1      -1.487  -1.562  -1.263  0.00  0.00    +0.050 A 
ATOM      3  C   UNL     1      -1.697  -1.097  -2.555  0.00  0.00    +0.077 A 
ATOM      4  N   UNL     1      -1.667  -2.127  -3.368  0.00  0.00    -0.175 NA
ATOM      5  N   UNL     1      -1.434  -3.284  -2.609  0.00  0.00    -0.246 N 
ATOM      6  H   UNL     1      -1.363  -4.188  -2.953  0.00  0.00    +0.192 HD
ATOM      7  C   UNL     1      -1.328  -2.918  -1.321  0.00  0.00    +0.222 A 
ATOM      8  O   UNL     1      -1.107  -3.677  -0.220  0.00  0.00    -0.423 OA
ATOM      9  C   UNL     1      -1.317  -3.107   0.984  0.00  0.00    +0.200 C 
ATOM     10  C   UNL     1      -1.476  -1.777   1.170  0.00  0.00    +0.098 C 
ENDROOT
BRANCH   3  11
ATOM     11  C   UNL     1      -1.922   0.339  -2.954  0.00  0.00    +0.016 C 
ATOM     12  C   UNL     1      -3.048   0.933  -2.105  0.00  0.00    +0.016 C 
ATOM     13  C   UNL     1      -3.276   2.391  -2.510  0.00  0.00    -0.010 C 
ATOM     14  C   UNL     1      -1.991   3.190  -2.284  0.00  0.00    +0.007 C 
ATOM     15  C   UNL     1      -0.865   2.595  -3.133  0.00  0.00    -0.010 C 
ATOM     16  C   UNL     1      -0.637   1.137  -2.728  0.00  0.00    +0.016 C 
ATOM     17  C   UNL     1      -1.252   2.659  -4.612  0.00  0.00    +0.007 C 
ATOM     18  C   UNL     1      -2.538   1.860  -4.837  0.00  0.00    -0.010 C 
ATOM     19  C   UNL     1      -3.663   2.455  -3.989  0.00  0.00    +0.007 C 
ATOM     20  C   UNL     1      -2.310   0.403  -4.432  0.00  0.00    +0.016 C 
ENDBRANCH   3  11
BRANCH   1  26
ATOM     21  C   UNL     1      -0.169   1.326   0.476  0.00  0.00    +0.007 A 
ATOM     22  C   UNL     1       1.007   2.050   0.534  0.00  0.00    +0.038 A 
ATOM     23  C   UNL     1       2.209   1.445   0.209  0.00  0.00    +0.123 A 
ATOM     24  C   UNL     1       2.232   0.115  -0.174  0.00  0.00    +0.038 A 
ATOM     25  C   UNL     1       1.055  -0.607  -0.232  0.00  0.00    +0.007 A 
ATOM     26  C   UNL     1      -0.145  -0.002   0.093  0.00  0.00    -0.034 A 
ATOM     27  F   UNL     1       3.359   2.152   0.265  0.00  0.00    -0.205 F 
ENDBRANCH   1  26
BRANCH   9  28
ATOM     28  N   UNL     1      -1.373  -3.924   2.086  0.00  0.00    -0.328 N 
ATOM     29  H   UNL     1      -1.262  -4.882   1.985  0.00  0.00    +0.145 HD
ATOM     30  H   UNL     1      -1.522  -3.543   2.965  0.00  0.00    +0.145 HD
ENDBRANCH   9  28
BRANCH  10  31
ATOM     31  C   UNL     1      -1.698  -1.286   2.497  0.00  0.00    +0.101 C 
ATOM     32  N   UNL     1      -1.874  -0.897   3.550  0.00  0.00    -0.191 NA
ENDBRANCH  10  31
TORSDOF 4
