REMARK  Name = ZINC06483246
REMARK  4 active torsions:
REMARK  status: ('A' for Active; 'I' for Inactive)
REMARK    1  A    between atoms: C_1  and  O_2
REMARK    2  A    between atoms: O_2  and  C_3
REMARK    3  A    between atoms: C_3  and  C_16
REMARK    4  A    between atoms: C_4  and  C_10
REMARK                            x       y       z     vdW  Elec       q    Type
REMARK                         _______ _______ _______ _____ _____    ______ ____
ROOT
ATOM      1  C   UNL     1       0.996  -0.650   1.170  0.00  0.00    +0.213 C 
ATOM      2  C   UNL     1       0.618  -2.068   0.862  0.00  0.00    +0.123 C 
ATOM      3  N   UNL     1       0.158  -2.872   1.762  0.00  0.00    -0.180 NA
ATOM      4  N   UNL     1      -0.016  -2.444   3.083  0.00  0.00    -0.216 N 
ATOM      5  C   UNL     1      -0.042  -1.104   3.359  0.00  0.00    +0.161 C 
ATOM      6  N   UNL     1       0.427  -0.211   2.440  0.00  0.00    -0.330 N 
ATOM      7  S   UNL     1      -0.642  -0.565   4.809  0.00  0.00    -0.015 SA
ATOM      8  H   UNL     1      -0.119  -3.092   3.798  0.00  0.00    +0.176 HD
ATOM      9  H   UNL     1       0.382   0.738   2.636  0.00  0.00    +0.165 HD
ENDROOT
BRANCH   2  10
ATOM     10  C   UNL     1       0.778  -2.562  -0.519  0.00  0.00    +0.003 A 
ATOM     11  C   UNL     1       0.466  -1.735  -1.601  0.00  0.00    +0.010 A 
ATOM     12  C   UNL     1       0.618  -2.204  -2.889  0.00  0.00    +0.001 A 
ATOM     13  C   UNL     1       1.077  -3.490  -3.111  0.00  0.00    +0.000 A 
ATOM     14  C   UNL     1       1.388  -4.315  -2.044  0.00  0.00    +0.001 A 
ATOM     15  C   UNL     1       1.246  -3.858  -0.751  0.00  0.00    +0.010 A 
ENDBRANCH   2  10
BRANCH   1  16
ATOM     16  C   UNL     1       2.497  -0.544   1.240  0.00  0.00    +0.011 A 
ATOM     17  C   UNL     1       3.239  -0.466   0.076  0.00  0.00    +0.009 A 
ATOM     18  C   UNL     1       4.617  -0.369   0.140  0.00  0.00    +0.000 A 
ATOM     19  C   UNL     1       5.252  -0.351   1.367  0.00  0.00    +0.000 A 
ATOM     20  C   UNL     1       4.510  -0.429   2.531  0.00  0.00    +0.000 A 
ATOM     21  C   UNL     1       3.132  -0.522   2.467  0.00  0.00    +0.009 A 
ENDBRANCH   1  16
BRANCH   1  23
ATOM     22  C   UNL     1       0.858   1.577   0.293  0.00  0.00    +0.197 C 
ATOM     23  O   UNL     1       0.516   0.200   0.126  0.00  0.00    -0.348 OA
ENDBRANCH   1  23
TORSDOF 3
