REMARK  Name = ZINC13130177
REMARK  4 active torsions:
REMARK  status: ('A' for Active; 'I' for Inactive)
REMARK    1  A    between atoms: C_1  and  C_2
REMARK    2  A    between atoms: C_5  and  S_8
REMARK    3  A    between atoms: S_8  and  N_11
REMARK    4  A    between atoms: N_11  and  N_12
REMARK                            x       y       z     vdW  Elec       q    Type
REMARK                         _______ _______ _______ _____ _____    ______ ____
ROOT
ATOM      1  N   UNL     1       1.953  -6.253  -0.043  0.00  0.00    -0.136 NA
ATOM      2  C   UNL     1       3.212  -6.625  -0.052  0.00  0.00    +0.156 C 
ATOM      3  C   UNL     1       4.410  -5.754  -0.048  0.00  0.00    +0.028 A 
ATOM      4  C   UNL     1       4.585  -4.375  -0.035  0.00  0.00    +0.012 A 
ATOM      5  C   UNL     1       5.860  -3.846  -0.035  0.00  0.00    +0.001 A 
ATOM      6  C   UNL     1       6.960  -4.687  -0.047  0.00  0.00    +0.002 A 
ATOM      7  C   UNL     1       6.797  -6.057  -0.060  0.00  0.00    +0.024 A 
ATOM      8  C   UNL     1       5.520  -6.608  -0.060  0.00  0.00    +0.043 A 
ATOM      9  N   UNL     1       5.083  -7.928  -0.071  0.00  0.00    -0.280 N 
ATOM     10  C   UNL     1       3.741  -8.000  -0.062  0.00  0.00    +0.269 C 
ATOM     11  O   UNL     1       3.079  -9.022  -0.064  0.00  0.00    -0.268 OA
ATOM     12  H   UNL     1       5.672  -8.698  -0.082  0.00  0.00    +0.155 HD
ENDROOT
BRANCH   1  13
ATOM     13  N   UNL     1       1.651  -4.999  -0.034  0.00  0.00    +0.007 NA
BRANCH  13  14
ATOM     14  S   UNL     1       0.063  -4.530  -0.023  0.00  0.00    +0.108 S 
ATOM     15  O   UNL     1      -0.476  -4.950   1.223  0.00  0.00    -0.147 OA
ATOM     16  O   UNL     1      -0.490  -4.937  -1.267  0.00  0.00    -0.147 OA
BRANCH  14  21
ATOM     17  C   UNL     1      -0.018   1.503   0.010  0.00  0.00    +0.044 C 
ATOM     18  C   UNL     1       0.002  -0.004   0.002  0.00  0.00    -0.050 A 
ATOM     19  C   UNL     1       0.006  -0.689  -1.199  0.00  0.00    +0.005 A 
ATOM     20  C   UNL     1       0.025  -2.071  -1.206  0.00  0.00    +0.029 A 
ATOM     21  C   UNL     1       0.040  -2.768  -0.013  0.00  0.00    +0.112 A 
ATOM     22  C   UNL     1       0.037  -2.084   1.188  0.00  0.00    +0.029 A 
ATOM     23  C   UNL     1       0.023  -0.702   1.195  0.00  0.00    +0.005 A 
ENDBRANCH  14  21
ENDBRANCH  13  14
ENDBRANCH   1  13
TORSDOF 3
