REMARK  Name = ZINC13734030
REMARK  9 active torsions:
REMARK  status: ('A' for Active; 'I' for Inactive)
REMARK    1  A    between atoms: C_1  and  C_2
REMARK    2  A    between atoms: C_2  and  C_3
REMARK    3  A    between atoms: C_2  and  C_4
REMARK    4  A    between atoms: C_2  and  O_5
REMARK    5  A    between atoms: O_5  and  C_6
REMARK    6  A    between atoms: N_8  and  C_9
REMARK    7  A    between atoms: C_9  and  C_10
REMARK    8  A    between atoms: C_13  and  C_16
REMARK    9  A    between atoms: C_16  and  N_18
REMARK                            x       y       z     vdW  Elec       q    Type
REMARK                         _______ _______ _______ _____ _____    ______ ____
ROOT
ATOM      1  C   UNL     1       4.583  -0.687  -3.883  0.00  0.00    +0.006 C 
ATOM      2  C   UNL     1       4.638  -2.212  -3.779  0.00  0.00    +0.006 C 
ATOM      3  C   UNL     1       5.178  -2.794  -5.087  0.00  0.00    +0.013 C 
ATOM      4  C   UNL     1       6.585  -2.250  -5.344  0.00  0.00    +0.077 C 
ATOM      5  C   UNL     1       6.530  -0.725  -5.449  0.00  0.00    +0.013 C 
ATOM      6  C   UNL     1       5.990  -0.143  -4.141  0.00  0.00    +0.006 C 
ENDROOT
BRANCH   4   7
ATOM      7  C   UNL     1       7.117  -2.824  -6.632  0.00  0.00    +0.242 C 
ATOM      8  O   UNL     1       6.436  -3.593  -7.282  0.00  0.00    -0.273 OA
BRANCH   7   9
ATOM      9  N   UNL     1       8.330  -2.487  -7.058  0.00  0.00    -0.147 NA
ATOM     10  C   UNL     1       8.842  -3.072  -8.138  0.00  0.00    +0.198 A 
ATOM     11  N   UNL     1       8.181  -3.936  -8.953  0.00  0.00    -0.326 N 
ATOM     12  H   UNL     1       7.263  -4.229  -8.845  0.00  0.00    +0.169 HD
ATOM     13  C   UNL     1       9.048  -4.328  -9.968  0.00  0.00    +0.065 A 
ATOM     14  C   UNL     1       8.910  -5.179 -11.055  0.00  0.00    +0.028 A 
ATOM     15  C   UNL     1       9.974  -5.375 -11.914  0.00  0.00    +0.002 A 
ATOM     16  C   UNL     1      11.177  -4.728 -11.694  0.00  0.00    +0.002 A 
ATOM     17  C   UNL     1      11.325  -3.879 -10.615  0.00  0.00    +0.028 A 
ATOM     18  C   UNL     1      10.262  -3.674  -9.747  0.00  0.00    +0.065 A 
ATOM     19  N   UNL     1      10.106  -2.895  -8.605  0.00  0.00    -0.326 N 
ATOM     20  H   UNL     1      10.783  -2.324  -8.209  0.00  0.00    +0.169 HD
ENDBRANCH   7   9
ENDBRANCH   4   7
BRANCH   1  21
ATOM     21  C   UNL     1       4.043  -0.105  -2.575  0.00  0.00    +0.111 C 
BRANCH  21  24
ATOM     22  C   UNL     1       1.969  -0.135  -1.297  0.00  0.00    +0.401 C 
ATOM     23  O   UNL     1       2.504   0.574  -0.468  0.00  0.00    -0.226 OA
ATOM     24  N   UNL     1       2.654  -0.530  -2.389  0.00  0.00    -0.281 N 
ATOM     25  H   UNL     1       2.227  -1.096  -3.051  0.00  0.00    +0.152 HD
BRANCH  22  26
ATOM     26  O   UNL     1       0.692  -0.526  -1.126  0.00  0.00    -0.445 OA
BRANCH  26  28
ATOM     27  C   UNL     1      -0.007   1.460   0.062  0.00  0.00    +0.055 C 
ATOM     28  C   UNL     1       0.027  -0.070   0.054  0.00  0.00    +0.107 C 
ATOM     29  C   UNL     1       0.779  -0.570   1.289  0.00  0.00    +0.055 C 
ATOM     30  C   UNL     1      -1.404  -0.612   0.074  0.00  0.00    +0.055 C 
ENDBRANCH  26  28
ENDBRANCH  22  26
ENDBRANCH  21  24
ENDBRANCH   1  21
TORSDOF 6
