REMARK  Name = ZINC39217356
REMARK  3 active torsions:
REMARK  status: ('A' for Active; 'I' for Inactive)
REMARK    1  A    between atoms: C_1  and  C_2
REMARK    2  A    between atoms: C_4  and  C_22
REMARK    3  A    between atoms: N_10  and  C_11
REMARK                            x       y       z     vdW  Elec       q    Type
REMARK                         _______ _______ _______ _____ _____    ______ ____
ROOT
ATOM      1  C   UNL     1       0.566   1.668  -0.242  0.00  0.00    +0.029 C 
ATOM      2  C   UNL     1       0.336   0.172  -0.022  0.00  0.00    +0.093 C 
ATOM      3  C   UNL     1       0.672  -0.597  -1.303  0.00  0.00    +0.126 C 
ATOM      4  C   UNL     1       2.159  -0.660  -1.501  0.00  0.00    +0.227 C 
ATOM      5  O   UNL     1       2.588  -0.843  -2.621  0.00  0.00    -0.275 OA
ATOM      6  N   UNL     1       3.034  -0.522  -0.495  0.00  0.00    -0.273 N 
ATOM      7  C   UNL     1       2.599  -0.241   0.803  0.00  0.00    +0.090 C 
ATOM      8  N   UNL     1       1.220  -0.315   1.052  0.00  0.00    -0.286 N 
ATOM      9  C   UNL     1       3.457   0.085   1.764  0.00  0.00    +0.051 C 
ATOM     10  H   UNL     1       3.983  -0.619  -0.670  0.00  0.00    +0.156 HD
ENDROOT
BRANCH   8  11
ATOM     11  C   UNL     1       0.724  -0.811   2.226  0.00  0.00    +0.043 C 
ATOM     12  C   UNL     1       0.010  -0.013   3.065  0.00  0.00    +0.021 C 
ATOM     13  C   UNL     1      -0.400  -0.426   4.338  0.00  0.00    +0.003 C 
ATOM     14  C   UNL     1       0.147  -1.555   4.922  0.00  0.00    +0.026 C 
ATOM     15  C   UNL     1       0.958  -2.346   4.121  0.00  0.00    +0.073 C 
ATOM     16  N   UNL     1       1.884  -3.233   4.371  0.00  0.00    -0.238 NA
ATOM     17  C   UNL     1       2.671  -3.421   3.306  0.00  0.00    +0.216 C 
ATOM     18  N   UNL     1       2.226  -2.831   2.226  0.00  0.00    -0.257 NA
ATOM     19  C   UNL     1       0.952  -2.234   2.602  0.00  0.00    +0.199 C 
ENDBRANCH   8  11
BRANCH   3  20
ATOM     20  C   UNL     1       0.045   0.102  -2.482  0.00  0.00    -0.034 A 
ATOM     21  C   UNL     1       0.634   1.238  -3.005  0.00  0.00    +0.004 A 
ATOM     22  C   UNL     1       0.059   1.879  -4.086  0.00  0.00    +0.000 A 
ATOM     23  C   UNL     1      -1.104   1.383  -4.645  0.00  0.00    +0.000 A 
ATOM     24  C   UNL     1      -1.692   0.247  -4.123  0.00  0.00    +0.000 A 
ATOM     25  C   UNL     1      -1.115  -0.397  -3.044  0.00  0.00    +0.004 A 
ENDBRANCH   3  20
TORSDOF 2
