REMARK  Name = ZINC06918014
REMARK  7 active torsions:
REMARK  status: ('A' for Active; 'I' for Inactive)
REMARK    1  A    between atoms: C_1  and  C_2
REMARK    2  A    between atoms: C_7  and  C_8
REMARK    3  A    between atoms: C_7  and  N_65
REMARK    4  A    between atoms: C_8  and  N_9
REMARK    5  A    between atoms: C_10  and  C_12
REMARK    6  A    between atoms: C_15  and  C_18
REMARK    7  A    between atoms: C_18  and  N_19
REMARK                            x       y       z     vdW  Elec       q    Type
REMARK                         _______ _______ _______ _____ _____    ______ ____
ROOT
ATOM      1  C   UNL     1       7.194   4.506  -3.612  0.00  0.00    +0.075 C 
ATOM      2  C   UNL     1       6.827   5.819  -2.917  0.00  0.00    +0.013 C 
ATOM      3  C   UNL     1       6.413   5.532  -1.472  0.00  0.00    +0.006 C 
ATOM      4  C   UNL     1       5.203   4.595  -1.464  0.00  0.00    +0.009 C 
ATOM      5  C   UNL     1       5.570   3.283  -2.160  0.00  0.00    +0.006 C 
ATOM      6  C   UNL     1       5.984   3.569  -3.605  0.00  0.00    +0.013 C 
ENDROOT
BRANCH   1   8
ATOM      7  N   UNL     1       7.968   3.775  -5.845  0.00  0.00    -0.317 N 
ATOM      8  C   UNL     1       7.601   4.788  -5.035  0.00  0.00    +0.216 C 
ATOM      9  O   UNL     1       7.598   5.927  -5.452  0.00  0.00    -0.276 OA
ATOM     10  H   UNL     1       7.971   2.864  -5.511  0.00  0.00    +0.149 HD
BRANCH   7  11
ATOM     11  C   UNL     1       8.365   4.050  -7.228  0.00  0.00    +0.085 C 
BRANCH  11  12
ATOM     12  C   UNL     1       8.731   2.737  -7.924  0.00  0.00    -0.060 C 
BRANCH  12  19
ATOM     13  C   UNL     1       9.636   3.141 -13.553  0.00  0.00    +0.007 C 
ATOM     14  C   UNL     1       9.097   2.722 -12.184  0.00  0.00    -0.018 C 
ATOM     15  C   UNL     1      10.244   2.180 -11.327  0.00  0.00    -0.016 C 
ATOM     16  C   UNL     1       9.711   1.819  -9.938  0.00  0.00    -0.079 C 
ATOM     17  C   UNL     1       7.995   3.523 -10.092  0.00  0.00    -0.079 C 
ATOM     18  C   UNL     1       8.476   3.935 -11.485  0.00  0.00    -0.016 C 
ATOM     19  N   UNL     1       9.150   3.034  -9.309  0.00  0.00    +0.381 N 
ATOM     20  H   UNL     1       9.872   3.764  -9.291  0.00  0.00    -0.082 HD
ENDBRANCH  12  19
ENDBRANCH  11  12
ENDBRANCH   7  11
ENDBRANCH   1   8
BRANCH   4  21
ATOM     21  C   UNL     1       4.790   4.308  -0.019  0.00  0.00    +0.133 C 
BRANCH  21  22
ATOM     22  N   UNL     1       3.561   3.510  -0.013  0.00  0.00    -0.260 N 
ATOM     23  C   UNL     1       3.648   2.162  -0.022  0.00  0.00    +0.264 A 
ATOM     24  O   UNL     1       4.729   1.606  -0.036  0.00  0.00    -0.267 OA
ATOM     25  C   UNL     1       2.397   1.382  -0.014  0.00  0.00    +0.063 A 
ATOM     26  C   UNL     1       2.402  -0.011  -0.022  0.00  0.00    +0.015 A 
ATOM     27  C   UNL     1       1.204  -0.695  -0.014  0.00  0.00    +0.001 A 
ATOM     28  C   UNL     1       0.002  -0.004   0.002  0.00  0.00    +0.002 A 
ATOM     29  C   UNL     1      -0.017   1.376   0.010  0.00  0.00    +0.026 A 
ATOM     30  C   UNL     1       1.177   2.081   0.002  0.00  0.00    +0.056 A 
ATOM     31  N   UNL     1       1.203   3.468   0.011  0.00  0.00    -0.307 N 
ATOM     32  H   UNL     1       0.344   3.979   0.023  0.00  0.00    +0.170 HD
ATOM     33  C   UNL     1       2.372   4.132   0.003  0.00  0.00    +0.330 A 
ATOM     34  O   UNL     1       2.351   5.347   0.011  0.00  0.00    -0.246 OA
ENDBRANCH  21  22
ENDBRANCH   4  21
TORSDOF 6
