REMARK  Name = ZINC08846060
REMARK  4 active torsions:
REMARK  status: ('A' for Active; 'I' for Inactive)
REMARK    1  A    between atoms: N_14  and  C_24
REMARK    2  A    between atoms: C_15  and  C_17
REMARK    3  A    between atoms: C_21  and  O_23
REMARK    4  A    between atoms: C_24  and  C_25
REMARK                            x       y       z     vdW  Elec       q    Type
REMARK                         _______ _______ _______ _____ _____    ______ ____
ROOT
ATOM      1  C   UNL     1      -4.897   5.636  -8.037  0.00  0.00    +0.001 A 
ATOM      2  C   UNL     1      -5.566   4.432  -7.867  0.00  0.00    +0.004 A 
ATOM      3  C   UNL     1      -5.482   3.740  -6.679  0.00  0.00    +0.047 A 
ATOM      4  C   UNL     1      -4.719   4.250  -5.632  0.00  0.00    +0.139 A 
ATOM      5  C   UNL     1      -4.045   5.470  -5.814  0.00  0.00    +0.064 A 
ATOM      6  C   UNL     1      -4.141   6.156  -7.023  0.00  0.00    +0.015 A 
ATOM      7  C   UNL     1      -3.241   5.993  -4.692  0.00  0.00    +0.199 A 
ATOM      8  O   UNL     1      -2.631   7.044  -4.778  0.00  0.00    -0.287 OA
ATOM      9  C   UNL     1      -3.213   5.186  -3.469  0.00  0.00    +0.072 A 
ATOM     10  C   UNL     1      -3.906   4.022  -3.413  0.00  0.00    +0.199 A 
ATOM     11  O   UNL     1      -4.627   3.587  -4.465  0.00  0.00    -0.450 OA
ATOM     12  C   UNL     1      -3.701   3.420  -2.072  0.00  0.00    +0.283 C 
ATOM     13  O   UNL     1      -4.188   2.371  -1.699  0.00  0.00    -0.267 OA
ATOM     14  N   UNL     1      -2.899   4.203  -1.329  0.00  0.00    -0.279 N 
ATOM     15  C   UNL     1      -2.534   5.372  -2.138  0.00  0.00    +0.145 C 
ENDROOT
BRANCH  15  16
ATOM     16  C   UNL     1      -1.039   5.428  -2.324  0.00  0.00    -0.019 A 
ATOM     17  C   UNL     1      -0.328   4.264  -2.554  0.00  0.00    +0.006 A 
ATOM     18  C   UNL     1       1.043   4.312  -2.725  0.00  0.00    +0.004 A 
ATOM     19  C   UNL     1       1.706   5.522  -2.668  0.00  0.00    +0.045 A 
ATOM     20  C   UNL     1       0.995   6.691  -2.438  0.00  0.00    +0.117 A 
ATOM     21  C   UNL     1      -0.382   6.641  -2.272  0.00  0.00    +0.051 A 
BRANCH  20  22
ATOM     22  O   UNL     1       1.645   7.883  -2.381  0.00  0.00    -0.507 OA
ATOM     23  H   UNL     1       1.721   8.331  -3.235  0.00  0.00    +0.292 HD
ENDBRANCH  20  22
ENDBRANCH  15  16
BRANCH  14  24
ATOM     24  C   UNL     1      -2.471   3.938   0.046  0.00  0.00    +0.145 C 
BRANCH  24  25
ATOM     25  C   UNL     1      -1.188   3.148   0.030  0.00  0.00    -0.012 A 
ATOM     26  C   UNL     1      -1.217   1.761   0.017  0.00  0.00    +0.008 A 
ATOM     27  C   UNL     1      -0.013   1.076   0.008  0.00  0.00    +0.020 A 
ATOM     28  C   UNL     1       1.170   1.792   0.001  0.00  0.00    +0.111 A 
ATOM     29  N   UNL     1       1.160   3.110   0.008  0.00  0.00    -0.263 NA
ATOM     30  C   UNL     1       0.033   3.795   0.023  0.00  0.00    +0.115 A 
ENDBRANCH  24  25
ENDBRANCH  14  24
TORSDOF 4
