REMARK  Name = ZINC00862886
REMARK  7 active torsions:
REMARK  status: ('A' for Active; 'I' for Inactive)
REMARK    1  A    between atoms: C_1  and  C_2
REMARK    2  A    between atoms: C_4  and  C_25
REMARK    3  A    between atoms: N_6  and  C_7
REMARK    4  A    between atoms: C_7  and  C_8
REMARK    5  A    between atoms: N_10  and  C_11
REMARK    6  A    between atoms: C_12  and  C_22
REMARK    7  A    between atoms: C_17  and  C_21
REMARK                            x       y       z     vdW  Elec       q    Type
REMARK                         _______ _______ _______ _____ _____    ______ ____
ROOT
ATOM      1  C   UNL     1      -1.187   1.624   0.017  0.00  0.00    +0.239 C 
ATOM      2  O   UNL     1      -1.204   2.836   0.023  0.00  0.00    -0.273 OA
ATOM      3  N   UNL     1      -0.011   0.966   0.007  0.00  0.00    -0.278 N 
ATOM      4  H   UNL     1       0.002  -0.004   0.002  0.00  0.00    +0.155 HD
ENDROOT
BRANCH   3   5
ATOM      5  C   UNL     1       1.180   1.675  -0.000  0.00  0.00    +0.084 A 
ATOM      6  C   UNL     1       2.477   1.183  -0.015  0.00  0.00    +0.068 A 
ATOM      7  C   UNL     1       3.563   2.148  -0.021  0.00  0.00    -0.023 A 
ATOM      8  C   UNL     1       3.180   3.444  -0.011  0.00  0.00    -0.004 A 
ATOM      9  S   UNL     1       1.410   3.393  -0.001  0.00  0.00    -0.077 S 
ATOM     10  C   UNL     1       4.070   4.649  -0.015  0.00  0.00    +0.046 C 
ATOM     11  C   UNL     1       5.485   4.203  -0.410  0.00  0.00    -0.009 C 
ATOM     12  C   UNL     1       5.864   2.971   0.417  0.00  0.00    +0.008 C 
ATOM     13  C   UNL     1       5.038   1.766  -0.036  0.00  0.00    +0.037 C 
ATOM     14  C   UNL     1       6.476   5.335  -0.132  0.00  0.00    +0.008 C 
BRANCH   6  15
ATOM     15  C   UNL     1       2.743  -0.259  -0.025  0.00  0.00    +0.244 C 
ATOM     16  O   UNL     1       2.842  -0.852  -1.084  0.00  0.00    -0.270 OA
ATOM     17  N   UNL     1       2.876  -0.928   1.137  0.00  0.00    -0.325 N 
ATOM     18  H   UNL     1       2.797  -0.456   1.980  0.00  0.00    +0.145 HD
ATOM     19  H   UNL     1       3.052  -1.882   1.130  0.00  0.00    +0.145 HD
ENDBRANCH   6  15
ENDBRANCH   3   5
BRANCH   1  20
ATOM     20  C   UNL     1      -2.482   0.853   0.018  0.00  0.00    +0.239 C 
BRANCH  20  26
ATOM     21  C   UNL     1      -3.876   2.017  -2.495  0.00  0.00    +0.066 C 
ATOM     22  C   UNL     1      -4.224   2.303  -1.057  0.00  0.00    +0.051 A 
ATOM     23  C   UNL     1      -5.211   3.122  -0.623  0.00  0.00    +0.070 A 
ATOM     24  C   UNL     1      -5.197   3.108   0.776  0.00  0.00    +0.179 A 
ATOM     25  N   UNL     1      -4.240   2.305   1.167  0.00  0.00    -0.165 NA
ATOM     26  N   UNL     1      -3.608   1.789   0.029  0.00  0.00    -0.258 N 
ATOM     27 BR   UNL     1      -6.397   4.111  -1.714  0.00  0.00    -0.046 Br
BRANCH  24  28
ATOM     28  C   UNL     1      -6.127   3.880   1.677  0.00  0.00    +0.437 C 
ATOM     29  F   UNL     1      -7.258   3.104   1.953  0.00  0.00    -0.164 F 
ATOM     30  F   UNL     1      -5.469   4.188   2.872  0.00  0.00    -0.164 F 
ATOM     31  F   UNL     1      -6.517   5.063   1.040  0.00  0.00    -0.164 F 
ENDBRANCH  24  28
ENDBRANCH  20  26
ENDBRANCH   1  20
TORSDOF 5
