REMARK  Name = ZINC36301785
REMARK  12 active torsions:
REMARK  status: ('A' for Active; 'I' for Inactive)
REMARK    1  A    between atoms: C_1  and  C_2
REMARK    2  A    between atoms: C_3  and  C_21
REMARK    3  A    between atoms: C_4  and  O_14
REMARK    4  A    between atoms: N_5  and  C_7
REMARK    5  A    between atoms: O_14  and  C_15
REMARK    6  A    between atoms: C_21  and  N_22
REMARK    7  A    between atoms: N_22  and  C_23
REMARK    8  A    between atoms: N_22  and  C_34
REMARK    9  A    between atoms: C_23  and  C_24
REMARK   10  A    between atoms: C_24  and  C_26
REMARK   11  A    between atoms: C_24  and  O_33
REMARK   12  A    between atoms: C_26  and  C_27
REMARK                            x       y       z     vdW  Elec       q    Type
REMARK                         _______ _______ _______ _____ _____    ______ ____
ROOT
ATOM      1  C   UNL     1       0.403   1.306  -0.119  0.00  0.00    +0.068 C 
ATOM      2  C   UNL     1       0.202  -0.187  -0.108  0.00  0.00    +0.065 A 
ATOM      3  C   UNL     1      -0.082  -0.982  -1.224  0.00  0.00    +0.021 A 
ATOM      4  C   UNL     1      -0.190  -2.270  -0.802  0.00  0.00    +0.225 A 
ATOM      5  N   UNL     1       0.021  -2.279   0.541  0.00  0.00    -0.200 N 
ATOM      6  N   UNL     1       0.269  -0.961   0.945  0.00  0.00    -0.168 NA
ENDROOT
BRANCH   5   7
ATOM      7  C   UNL     1      -0.001  -3.407   1.373  0.00  0.00    +0.070 A 
ATOM      8  C   UNL     1      -0.994  -4.366   1.219  0.00  0.00    +0.028 A 
ATOM      9  C   UNL     1      -1.014  -5.476   2.040  0.00  0.00    +0.003 A 
ATOM     10  C   UNL     1      -0.046  -5.635   3.015  0.00  0.00    +0.020 A 
ATOM     11  C   UNL     1       0.945  -4.682   3.171  0.00  0.00    +0.043 A 
ATOM     12  C   UNL     1       0.973  -3.571   2.348  0.00  0.00    +0.048 A 
ATOM     13 CL   UNL     1       2.158  -4.885   4.396  0.00  0.00    -0.083 Cl
ENDBRANCH   5   7
BRANCH   4  14
ATOM     14  O   UNL     1      -0.459  -3.349  -1.580  0.00  0.00    -0.438 OA
BRANCH  14  15
ATOM     15  C   UNL     1      -1.762  -3.656  -1.817  0.00  0.00    +0.130 A 
ATOM     16  C   UNL     1      -2.768  -2.816  -1.361  0.00  0.00    +0.046 A 
ATOM     17  C   UNL     1      -4.091  -3.130  -1.604  0.00  0.00    +0.004 A 
ATOM     18  C   UNL     1      -4.413  -4.280  -2.300  0.00  0.00    +0.000 A 
ATOM     19  C   UNL     1      -3.413  -5.119  -2.755  0.00  0.00    +0.004 A 
ATOM     20  C   UNL     1      -2.088  -4.807  -2.520  0.00  0.00    +0.046 A 
ENDBRANCH  14  15
ENDBRANCH   4  14
BRANCH   3  21
ATOM     21  C   UNL     1      -0.241  -0.496  -2.641  0.00  0.00    -0.035 C 
BRANCH  21  22
ATOM     22  N   UNL     1       1.082  -0.373  -3.268  0.00  0.00    +0.386 N 
ATOM     23  H   UNL     1       1.673   0.210  -2.694  0.00  0.00    -0.081 HD
BRANCH  22  24
ATOM     24  C   UNL     1       0.940   0.233  -4.598  0.00  0.00    -0.068 C 
ATOM     25  C   UNL     1       1.905   1.360  -4.969  0.00  0.00    -0.017 C 
ATOM     26  C   UNL     1       0.439   1.677  -4.667  0.00  0.00    -0.017 C 
ENDBRANCH  22  24
BRANCH  22  27
ATOM     27  C   UNL     1       1.688  -1.705  -3.398  0.00  0.00    -0.046 C 
BRANCH  27  28
ATOM     28  C   UNL     1       3.114  -1.566  -3.935  0.00  0.00    +0.102 C 
BRANCH  28  29
ATOM     29  O   UNL     1       3.919  -0.877  -2.976  0.00  0.00    -0.393 OA
ATOM     30  H   UNL     1       3.978  -1.323  -2.120  0.00  0.00    +0.210 HD
ENDBRANCH  28  29
BRANCH  28  31
ATOM     31  C   UNL     1       3.700  -2.956  -4.189  0.00  0.00    +0.064 C 
BRANCH  31  32
ATOM     32  C   UNL     1       5.057  -2.819  -4.832  0.00  0.00    -0.045 A 
ATOM     33  C   UNL     1       5.167  -2.769  -6.209  0.00  0.00    +0.004 A 
ATOM     34  C   UNL     1       6.411  -2.643  -6.799  0.00  0.00    +0.000 A 
ATOM     35  C   UNL     1       7.545  -2.568  -6.011  0.00  0.00    +0.000 A 
ATOM     36  C   UNL     1       7.434  -2.617  -4.634  0.00  0.00    +0.000 A 
ATOM     37  C   UNL     1       6.190  -2.739  -4.045  0.00  0.00    +0.004 A 
ENDBRANCH  31  32
ENDBRANCH  28  31
ENDBRANCH  27  28
ENDBRANCH  22  27
ENDBRANCH  21  22
ENDBRANCH   3  21
TORSDOF 11
