REMARK  Name = ZINC21075532
REMARK  8 active torsions:
REMARK  status: ('A' for Active; 'I' for Inactive)
REMARK    1  A    between atoms: C_3  and  N_8
REMARK    2  A    between atoms: C_9  and  C_11
REMARK    3  A    between atoms: C_11  and  C_12
REMARK    4  A    between atoms: C_12  and  S_13
REMARK    5  A    between atoms: S_13  and  C_14
REMARK    6  A    between atoms: N_19  and  N_20
REMARK    7  A    between atoms: C_21  and  C_22
REMARK    8  A    between atoms: C_24  and  N_29
REMARK                            x       y       z     vdW  Elec       q    Type
REMARK                         _______ _______ _______ _____ _____    ______ ____
ROOT
ATOM      1  C   UNL     1       1.319  -0.366  -0.006  0.00  0.00    +0.210 A 
ATOM      2  N   UNL     1       0.002  -0.005   0.013  0.00  0.00    -0.186 NA
ATOM      3  C   UNL     1      -0.017   1.368   0.013  0.00  0.00    +0.232 A 
ATOM      4  N   UNL     1       1.262   1.786  -0.006  0.00  0.00    -0.245 N 
ATOM      5  N   UNL     1       2.048   0.768  -0.017  0.00  0.00    -0.144 NA
ATOM      6  N   UNL     1      -1.105   2.146   0.023  0.00  0.00    -0.205 N 
ATOM      7  H   UNL     1      -2.106   1.691   0.032  0.00  0.00    +0.177 HD
ATOM      8  H   UNL     1       1.489   2.862  -0.010  0.00  0.00    +0.192 HD
ENDROOT
BRANCH   6   9
ATOM      9  N   UNL     1      -0.980   3.430   0.021  0.00  0.00    -0.187 NA
ATOM     10  C   UNL     1      -2.052   4.196   0.031  0.00  0.00    +0.142 C 
BRANCH  10  11
ATOM     11  C   UNL     1      -1.915   5.606   0.029  0.00  0.00    +0.043 A 
ATOM     12  C   UNL     1      -3.054   6.429   0.040  0.00  0.00    +0.046 A 
ATOM     13  C   UNL     1      -2.914   7.787   0.038  0.00  0.00    +0.127 A 
ATOM     14  C   UNL     1      -1.652   8.366   0.026  0.00  0.00    +0.036 A 
ATOM     15  C   UNL     1      -0.517   7.579   0.016  0.00  0.00    +0.054 A 
ATOM     16  C   UNL     1      -0.632   6.197   0.022  0.00  0.00    +0.188 A 
ATOM     17  O   UNL     1       0.478   5.420   0.018  0.00  0.00    -0.287 OA
BRANCH  13  18
ATOM     18  N   UNL     1      -4.117   8.648   0.049  0.00  0.00    +0.056 N 
ATOM     19  O   UNL     1      -5.317   8.105   0.061  0.00  0.00    -0.126 OA
ATOM     20  O   UNL     1      -3.989   9.959   0.047  0.00  0.00    -0.126 OA
ENDBRANCH  13  18
ENDBRANCH  10  11
ENDBRANCH   6   9
BRANCH   1  21
ATOM     21  S   UNL     1       1.933  -1.964  -0.014  0.00  0.00    -0.084 S 
BRANCH  21  22
ATOM     22  C   UNL     1       3.709  -1.619  -0.040  0.00  0.00    +0.086 C 
BRANCH  22  23
ATOM     23  C   UNL     1       4.485  -2.938  -0.050  0.00  0.00    +0.107 C 
BRANCH  23  25
ATOM     24  N   UNL     1       6.848  -3.668  -0.084  0.00  0.00    -0.285 N 
ATOM     25  C   UNL     1       5.964  -2.651  -0.071  0.00  0.00    +0.218 C 
ATOM     26  O   UNL     1       6.359  -1.504  -0.077  0.00  0.00    -0.275 OA
ATOM     27  H   UNL     1       6.493  -4.706  -0.002  0.00  0.00    +0.155 HD
BRANCH  24  30
ATOM     28  C   UNL     1      10.386  -4.011  -1.024  0.00  0.00    +0.003 A 
ATOM     29  C   UNL     1       9.036  -4.277  -0.905  0.00  0.00    +0.023 A 
ATOM     30  C   UNL     1       8.217  -3.404  -0.201  0.00  0.00    +0.034 A 
ATOM     31  C   UNL     1       8.760  -2.272   0.392  0.00  0.00    +0.038 A 
ATOM     32  C   UNL     1      10.113  -2.014   0.275  0.00  0.00    +0.020 A 
ATOM     33  C   UNL     1      10.925  -2.883  -0.433  0.00  0.00    +0.015 A 
ATOM     34 BR   UNL     1      10.854  -0.473   1.081  0.00  0.00    -0.050 Br
ENDBRANCH  24  30
ENDBRANCH  23  25
ENDBRANCH  22  23
ENDBRANCH  21  22
ENDBRANCH   1  21
TORSDOF 8
