REMARK  Name = ZINC35324600
REMARK  8 active torsions:
REMARK  status: ('A' for Active; 'I' for Inactive)
REMARK    1  A    between atoms: C_1  and  O_2
REMARK    2  A    between atoms: O_2  and  C_3
REMARK    3  A    between atoms: C_5  and  C_12
REMARK    4  A    between atoms: C_8  and  O_9
REMARK    5  A    between atoms: O_9  and  C_10
REMARK    6  A    between atoms: C_17  and  N_26
REMARK    7  A    between atoms: C_21  and  N_25
REMARK    8  A    between atoms: C_22  and  C_23
REMARK                            x       y       z     vdW  Elec       q    Type
REMARK                         _______ _______ _______ _____ _____    ______ ____
ROOT
ATOM      1  C   UNL     1       2.401   0.380  -4.231  0.00  0.00    +0.098 C 
ATOM      2  C   UNL     1       1.726   0.065  -5.539  0.00  0.00    +0.008 A 
ATOM      3  C   UNL     1       0.469   0.582  -5.798  0.00  0.00    +0.010 A 
ATOM      4  C   UNL     1      -0.167   0.304  -6.991  0.00  0.00    +0.023 A 
ATOM      5  C   UNL     1       0.458  -0.497  -7.940  0.00  0.00    +0.028 A 
ATOM      6  C   UNL     1       1.719  -1.016  -7.684  0.00  0.00    +0.069 A 
ATOM      7  C   UNL     1       2.354  -0.735  -6.481  0.00  0.00    +0.136 A 
ATOM      8  O   UNL     1       3.587  -1.249  -6.246  0.00  0.00    -0.441 OA
ATOM      9  C   UNL     1       4.372  -0.703  -5.303  0.00  0.00    +0.199 C 
ATOM     10  C   UNL     1       3.871   0.078  -4.322  0.00  0.00    +0.098 C 
ENDROOT
BRANCH   1  13
ATOM     11  C   UNL     1       0.606  -0.608  -1.056  0.00  0.00    +0.163 A 
ATOM     12  C   UNL     1       1.173   0.159  -2.062  0.00  0.00    +0.054 A 
ATOM     13  C   UNL     1       1.786  -0.455  -3.138  0.00  0.00    -0.030 A 
ATOM     14  C   UNL     1       1.836  -1.835  -3.214  0.00  0.00    +0.023 A 
ATOM     15  C   UNL     1       1.273  -2.606  -2.213  0.00  0.00    +0.063 A 
ATOM     16  C   UNL     1       0.662  -1.996  -1.129  0.00  0.00    +0.175 A 
ATOM     17 BR   UNL     1       1.342  -4.493  -2.321  0.00  0.00    -0.046 Br
BRANCH  11  19
ATOM     18  C   UNL     1      -0.017   1.425   0.010  0.00  0.00    +0.277 C 
ATOM     19  O   UNL     1       0.002  -0.004   0.002  0.00  0.00    -0.491 OA
ENDBRANCH  11  19
BRANCH  16  20
ATOM     20  O   UNL     1       0.112  -2.752  -0.141  0.00  0.00    -0.490 OA
ATOM     21  C   UNL     1      -1.259  -3.125  -0.296  0.00  0.00    +0.277 C 
ENDBRANCH  16  20
ENDBRANCH   1  13
BRANCH   9  22
ATOM     22  N   UNL     1       5.723  -0.945  -5.339  0.00  0.00    -0.328 N 
ATOM     23  H   UNL     1       6.097  -1.505  -6.038  0.00  0.00    +0.145 HD
ATOM     24  H   UNL     1       6.303  -0.558  -4.665  0.00  0.00    +0.145 HD
ENDBRANCH   9  22
BRANCH   5  25
ATOM     25  N   UNL     1      -0.182  -0.779  -9.148  0.00  0.00    -0.358 N 
ATOM     26  H   UNL     1      -1.064  -0.416  -9.326  0.00  0.00    +0.142 HD
ATOM     27  H   UNL     1       0.255  -1.339  -9.810  0.00  0.00    +0.142 HD
ENDBRANCH   5  25
BRANCH  10  28
ATOM     28  C   UNL     1       4.762   0.630  -3.346  0.00  0.00    +0.101 C 
ATOM     29  N   UNL     1       5.469   1.067  -2.572  0.00  0.00    -0.191 NA
ENDBRANCH  10  28
TORSDOF 6
