REMARK  Name = ZINC36993233
REMARK  4 active torsions:
REMARK  status: ('A' for Active; 'I' for Inactive)
REMARK    1  A    between atoms: C_1  and  C_2
REMARK    2  A    between atoms: C_5  and  C_8
REMARK    3  A    between atoms: C_8  and  N_9
REMARK    4  A    between atoms: N_9  and  C_10
REMARK                            x       y       z     vdW  Elec       q    Type
REMARK                         _______ _______ _______ _____ _____    ______ ____
ROOT
ATOM      1  C   UNL     1       1.720  -6.118  -0.041  0.00  0.00    +0.050 A 
ATOM      2  C   UNL     1       0.675  -7.034  -0.046  0.00  0.00    +0.072 A 
ATOM      3  C   UNL     1       0.948  -8.389  -0.054  0.00  0.00    +0.144 A 
ATOM      4  C   UNL     1       2.270  -8.834  -0.058  0.00  0.00    +0.077 A 
ATOM      5  C   UNL     1       3.310  -7.919  -0.053  0.00  0.00    +0.048 A 
ATOM      6  C   UNL     1       3.037  -6.563  -0.050  0.00  0.00    +0.064 A 
ATOM      7 CL   UNL     1       4.339  -5.416  -0.052  0.00  0.00    -0.082 Cl
ATOM      8  N   UNL     1       2.530 -10.214  -0.065  0.00  0.00    -0.280 N 
ATOM      9  C   UNL     1       1.531 -11.066  -0.384  0.00  0.00    +0.255 C 
ATOM     10  O   UNL     1       1.724 -12.264  -0.367  0.00  0.00    -0.272 OA
ATOM     11  C   UNL     1       0.177 -10.522  -0.761  0.00  0.00    +0.325 C 
ATOM     12  O   UNL     1      -0.063  -9.299  -0.060  0.00  0.00    -0.481 OA
ATOM     13  H   UNL     1       3.412 -10.550   0.156  0.00  0.00    +0.155 HD
ENDROOT
BRANCH   1  14
ATOM     14  N   UNL     1       1.447  -4.746  -0.032  0.00  0.00    -0.339 N 
ATOM     15  H   UNL     1       2.176  -4.106  -0.032  0.00  0.00    +0.146 HD
BRANCH  14  16
ATOM     16  C   UNL     1       0.059  -4.275  -0.021  0.00  0.00    +0.137 C 
BRANCH  16  21
ATOM     17  C   UNL     1      -0.018   1.503   0.010  0.00  0.00    +0.044 C 
ATOM     18  C   UNL     1       0.002  -0.004   0.002  0.00  0.00    -0.050 A 
ATOM     19  C   UNL     1       0.006  -0.689  -1.199  0.00  0.00    +0.003 A 
ATOM     20  C   UNL     1       0.025  -2.071  -1.206  0.00  0.00    +0.005 A 
ATOM     21  C   UNL     1       0.040  -2.768  -0.013  0.00  0.00    -0.030 A 
ATOM     22  C   UNL     1       0.037  -2.084   1.188  0.00  0.00    +0.005 A 
ATOM     23  C   UNL     1       0.023  -0.702   1.195  0.00  0.00    +0.003 A 
ENDBRANCH  16  21
ENDBRANCH  14  16
ENDBRANCH   1  14
TORSDOF 3
