REMARK  Name = ZINC08282966
REMARK  8 active torsions:
REMARK  status: ('A' for Active; 'I' for Inactive)
REMARK    1  A    between atoms: C_1  and  C_2
REMARK    2  A    between atoms: C_4  and  C_29
REMARK    3  A    between atoms: C_9  and  C_11
REMARK    4  A    between atoms: C_11  and  O_13
REMARK    5  A    between atoms: O_13  and  C_14
REMARK    6  A    between atoms: C_14  and  C_15
REMARK    7  A    between atoms: N_17  and  C_18
REMARK    8  A    between atoms: C_19  and  C_27
REMARK                            x       y       z     vdW  Elec       q    Type
REMARK                         _______ _______ _______ _____ _____    ______ ____
ROOT
ATOM      1  C   UNL     1      -2.653   8.627  -3.320  0.00  0.00    +0.328 C 
ENDROOT
BRANCH   1   2
ATOM      2  C   UNL     1      -2.279   7.222  -2.922  0.00  0.00    +0.255 C 
ATOM      3  O   UNL     1      -2.260   6.341  -3.755  0.00  0.00    -0.272 OA
ATOM      4  N   UNL     1      -1.965   6.946  -1.641  0.00  0.00    -0.276 N 
ATOM      5  H   UNL     1      -1.980   7.652  -0.975  0.00  0.00    +0.155 HD
BRANCH   4   6
ATOM      6  C   UNL     1      -1.621   5.653  -1.274  0.00  0.00    +0.090 A 
ATOM      7  C   UNL     1      -1.271   5.177  -0.019  0.00  0.00    +0.084 A 
ATOM      8  C   UNL     1      -0.951   3.765   0.100  0.00  0.00    -0.018 A 
ATOM      9  C   UNL     1      -1.032   3.059  -1.049  0.00  0.00    -0.004 A 
ATOM     10  S   UNL     1      -1.524   4.240  -2.273  0.00  0.00    -0.077 S 
ATOM     11  C   UNL     1      -0.761   1.597  -1.232  0.00  0.00    +0.043 C 
ATOM     12  C   UNL     1      -0.013   1.086   0.008  0.00  0.00    +0.005 C 
ATOM     13  C   UNL     1      -0.735   1.583   1.264  0.00  0.00    +0.005 C 
ATOM     14  C   UNL     1      -0.551   3.094   1.407  0.00  0.00    +0.037 C 
BRANCH   7  15
ATOM     15  C   UNL     1      -1.226   6.046   1.118  0.00  0.00    +0.102 C 
ATOM     16  N   UNL     1      -1.191   6.736   2.020  0.00  0.00    -0.191 NA
ENDBRANCH   7  15
ENDBRANCH   4   6
ENDBRANCH   1   2
BRANCH   1  17
ATOM     17  O   UNL     1      -2.944   8.665  -4.742  0.00  0.00    -0.450 OA
BRANCH  17  18
ATOM     18  C   UNL     1      -3.298   9.857  -5.262  0.00  0.00    +0.379 C 
ATOM     19  O   UNL     1      -3.361  10.836  -4.547  0.00  0.00    -0.241 OA
BRANCH  18  28
ATOM     20  C   UNL     1      -4.489   8.774 -12.371  0.00  0.00    +0.066 C 
ATOM     21  C   UNL     1      -4.373   9.481 -11.045  0.00  0.00    +0.044 A 
ATOM     22  C   UNL     1      -4.644  10.853 -10.961  0.00  0.00    +0.046 A 
ATOM     23  C   UNL     1      -4.535  11.478  -9.761  0.00  0.00    +0.045 A 
ATOM     24  N   UNL     1      -4.166  10.754  -8.670  0.00  0.00    -0.200 N 
ATOM     25  C   UNL     1      -3.908   9.414  -8.786  0.00  0.00    +0.254 A 
ATOM     26  N   UNL     1      -4.018   8.807  -9.976  0.00  0.00    -0.216 NA
ATOM     27  N   UNL     1      -3.569   8.969  -7.585  0.00  0.00    -0.183 NA
ATOM     28  C   UNL     1      -3.610   9.971  -6.705  0.00  0.00    +0.261 A 
ATOM     29  N   UNL     1      -3.966  11.082  -7.322  0.00  0.00    -0.137 NA
ATOM     30  C   UNL     1      -4.821  12.953  -9.639  0.00  0.00    +0.066 C 
ENDBRANCH  18  28
ENDBRANCH  17  18
ENDBRANCH   1  17
TORSDOF 6
