REMARK  Name = ZINC43275502
REMARK  7 active torsions:
REMARK  status: ('A' for Active; 'I' for Inactive)
REMARK    1  A    between atoms: C_1  and  C_2
REMARK    2  A    between atoms: C_2  and  C_3
REMARK    3  A    between atoms: N_5  and  C_6
REMARK    4  A    between atoms: C_9  and  C_12
REMARK    5  A    between atoms: C_12  and  C_14
REMARK    6  A    between atoms: C_12  and  N_15
REMARK    7  A    between atoms: N_18  and  C_19
REMARK                            x       y       z     vdW  Elec       q    Type
REMARK                         _______ _______ _______ _____ _____    ______ ____
ROOT
ATOM      1  C   UNL     1       3.858  -3.411  -5.981  0.00  0.00    +0.102 C 
ATOM      2  C   UNL     1       2.893  -3.769  -7.113  0.00  0.00    +0.033 C 
ENDROOT
BRANCH   1   6
ATOM      3  C   UNL     1       1.633  -2.177  -2.547  0.00  0.00    +0.033 A 
ATOM      4  C   UNL     1       2.205  -1.228  -3.384  0.00  0.00    +0.023 A 
ATOM      5  C   UNL     1       2.923  -1.629  -4.493  0.00  0.00    +0.007 A 
ATOM      6  C   UNL     1       3.074  -2.976  -4.771  0.00  0.00    -0.027 A 
ATOM      7  C   UNL     1       2.505  -3.924  -3.940  0.00  0.00    +0.007 A 
ATOM      8  C   UNL     1       1.791  -3.529  -2.826  0.00  0.00    +0.023 A 
BRANCH   3  11
ATOM      9  C   UNL     1       0.952  -2.504  -0.291  0.00  0.00    +0.217 C 
ATOM     10  O   UNL     1       1.556  -3.555  -0.273  0.00  0.00    -0.275 OA
ATOM     11  N   UNL     1       0.904  -1.774  -1.423  0.00  0.00    -0.286 N 
ATOM     12  H   UNL     1       0.365  -0.968  -1.458  0.00  0.00    +0.155 HD
BRANCH   9  14
ATOM     13  C   UNL     1       0.462  -3.022   2.084  0.00  0.00    +0.013 C 
ATOM     14  C   UNL     1       0.254  -2.014   0.951  0.00  0.00    +0.093 C 
ENDBRANCH   9  14
ENDBRANCH   3  11
ENDBRANCH   1   6
BRANCH   1  15
ATOM     15  N   UNL     1       4.670  -4.582  -5.642  0.00  0.00    -0.293 N 
ATOM     16  C   UNL     1       5.792  -4.850  -6.340  0.00  0.00    +0.304 C 
ATOM     17  O   UNL     1       6.130  -4.119  -7.251  0.00  0.00    -0.252 OA
ATOM     18  N   UNL     1       6.538  -5.927  -6.029  0.00  0.00    -0.267 N 
ATOM     19  H   UNL     1       4.401  -5.165  -4.916  0.00  0.00    +0.151 HD
ATOM     20  H   UNL     1       6.227  -6.555  -5.358  0.00  0.00    +0.156 HD
BRANCH  18  21
ATOM     21  C   UNL     1       7.764  -6.141  -6.673  0.00  0.00    +0.070 A 
ATOM     22  C   UNL     1       8.460  -5.069  -7.217  0.00  0.00    +0.027 A 
ATOM     23  C   UNL     1       9.668  -5.282  -7.852  0.00  0.00    +0.022 A 
ATOM     24  C   UNL     1      10.186  -6.562  -7.947  0.00  0.00    +0.044 A 
ATOM     25  C   UNL     1       9.496  -7.633  -7.407  0.00  0.00    +0.060 A 
ATOM     26  C   UNL     1       8.289  -7.425  -6.765  0.00  0.00    +0.146 A 
ATOM     27  F   UNL     1       7.618  -8.469  -6.232  0.00  0.00    -0.203 F 
ATOM     28 CL   UNL     1      11.704  -6.824  -8.747  0.00  0.00    -0.083 Cl
ENDBRANCH  18  21
ENDBRANCH   1  15
TORSDOF 5
