REMARK  Name = ZINC12640818
REMARK  11 active torsions:
REMARK  status: ('A' for Active; 'I' for Inactive)
REMARK    1  A    between atoms: C_1  and  C_2
REMARK    2  A    between atoms: C_2  and  C_3
REMARK    3  A    between atoms: C_2  and  C_4
REMARK    4  A    between atoms: C_2  and  C_5
REMARK    5  A    between atoms: C_17  and  S_21
REMARK    6  A    between atoms: S_21  and  C_22
REMARK    7  A    between atoms: C_22  and  C_23
REMARK    8  A    between atoms: N_25  and  C_26
REMARK    9  A    between atoms: C_29  and  C_32
REMARK   10  A    between atoms: C_32  and  O_34
REMARK   11  A    between atoms: O_34  and  C_35
REMARK                            x       y       z     vdW  Elec       q    Type
REMARK                         _______ _______ _______ _____ _____    ______ ____
ROOT
ATOM      1  C   UNL     1      -0.757   4.029  -0.724  0.00  0.00    -0.000 C 
ATOM      2  C   UNL     1       0.418   4.265   0.229  0.00  0.00    +0.009 C 
ATOM      3  C   UNL     1       1.652   3.512  -0.269  0.00  0.00    +0.037 C 
ATOM      4  C   UNL     1       1.278   2.049  -0.496  0.00  0.00    -0.024 A 
ATOM      5  C   UNL     1      -0.019   1.686  -0.626  0.00  0.00    -0.004 A 
ATOM      6  S   UNL     1       0.032  -0.071  -0.865  0.00  0.00    -0.073 S 
ATOM      7  C   UNL     1       1.794  -0.279  -0.784  0.00  0.00    +0.114 A 
ATOM      8  C   UNL     1       2.258   1.028  -0.576  0.00  0.00    +0.056 A 
ATOM      9  C   UNL     1       3.729   1.154  -0.468  0.00  0.00    +0.173 A 
ATOM     10  N   UNL     1       4.546   2.161  -0.280  0.00  0.00    -0.128 NA
ATOM     11  N   UNL     1       5.761   1.734  -0.261  0.00  0.00    -0.122 NA
ATOM     12  C   UNL     1       5.790   0.433  -0.436  0.00  0.00    +0.198 A 
ATOM     13  N   UNL     1       4.496   0.015  -0.575  0.00  0.00    -0.260 N 
ATOM     14  C   UNL     1       3.908  -1.201  -0.777  0.00  0.00    +0.208 A 
ATOM     15  N   UNL     1       2.615  -1.321  -0.875  0.00  0.00    -0.230 NA
ATOM     16  C   UNL     1      -1.223   2.574  -0.584  0.00  0.00    +0.046 C 
ENDROOT
BRANCH   1  18
ATOM     17  C   UNL     1      -1.433   6.423  -0.491  0.00  0.00    +0.011 C 
ATOM     18  C   UNL     1      -1.906   4.974  -0.365  0.00  0.00    -0.035 C 
ATOM     19  C   UNL     1      -3.079   4.736  -1.319  0.00  0.00    +0.011 C 
ATOM     20  C   UNL     1      -2.356   4.707   1.072  0.00  0.00    +0.011 C 
ENDBRANCH   1  18
BRANCH  12  21
ATOM     21  S   UNL     1       7.228  -0.583  -0.483  0.00  0.00    -0.076 S 
BRANCH  21  22
ATOM     22  C   UNL     1       8.597   0.582  -0.239  0.00  0.00    +0.173 C 
BRANCH  22  23
ATOM     23  C   UNL     1       9.904  -0.168  -0.259  0.00  0.00    +0.227 C 
ATOM     24  O   UNL     1       9.912  -1.370  -0.421  0.00  0.00    -0.275 OA
ATOM     25  N   UNL     1      11.065   0.497  -0.095  0.00  0.00    -0.285 N 
ATOM     26  H   UNL     1      11.066   1.465  -0.042  0.00  0.00    +0.155 HD
BRANCH  25  27
ATOM     27  C   UNL     1      12.265  -0.207  -0.003  0.00  0.00    +0.033 A 
ATOM     28  C   UNL     1      12.290  -1.458   0.605  0.00  0.00    +0.024 A 
ATOM     29  C   UNL     1      13.472  -2.158   0.694  0.00  0.00    +0.017 A 
ATOM     30  C   UNL     1      14.650  -1.606   0.181  0.00  0.00    +0.059 A 
ATOM     31  C   UNL     1      14.622  -0.347  -0.425  0.00  0.00    +0.017 A 
ATOM     32  C   UNL     1      13.435   0.345  -0.515  0.00  0.00    +0.024 A 
BRANCH  30  33
ATOM     33  C   UNL     1      15.919  -2.351   0.279  0.00  0.00    +0.339 C 
ATOM     34  O   UNL     1      16.942  -1.870  -0.168  0.00  0.00    -0.245 OA
BRANCH  33  35
ATOM     35  O   UNL     1      15.944  -3.565   0.863  0.00  0.00    -0.464 OA
ATOM     36  C   UNL     1      17.228  -4.240   0.924  0.00  0.00    +0.280 C 
ENDBRANCH  33  35
ENDBRANCH  30  33
ENDBRANCH  25  27
ENDBRANCH  22  23
ENDBRANCH  21  22
ENDBRANCH  12  21
TORSDOF 7
