REMARK  Name = ZINC16688667
REMARK  11 active torsions:
REMARK  status: ('A' for Active; 'I' for Inactive)
REMARK    1  A    between atoms: C_1  and  C_2
REMARK    2  A    between atoms: C_2  and  O_3
REMARK    3  A    between atoms: O_3  and  C_4
REMARK    4  A    between atoms: C_6  and  C_20
REMARK    5  A    between atoms: C_9  and  O_10
REMARK    6  A    between atoms: O_10  and  C_11
REMARK    7  A    between atoms: C_11  and  C_12
REMARK    8  A    between atoms: C_20  and  N_57
REMARK    9  A    between atoms: C_21  and  C_22
REMARK   10  A    between atoms: C_21  and  N_57
REMARK   11  A    between atoms: C_22  and  C_23
REMARK                            x       y       z     vdW  Elec       q    Type
REMARK                         _______ _______ _______ _____ _____    ______ ____
ROOT
ATOM      1  C   UNL     1       0.002  -0.004   0.002  0.00  0.00    +0.163 A 
ATOM      2  C   UNL     1      -0.017   1.382   0.010  0.00  0.00    +0.051 A 
ATOM      3  C   UNL     1       1.171   2.089   0.002  0.00  0.00    -0.060 A 
ATOM      4  C   UNL     1       2.379   1.418  -0.013  0.00  0.00    +0.021 A 
ATOM      5  C   UNL     1       2.405   0.035  -0.021  0.00  0.00    +0.063 A 
ATOM      6  C   UNL     1       1.218  -0.680  -0.013  0.00  0.00    +0.176 A 
ATOM      7 BR   UNL     1       4.060  -0.879  -0.041  0.00  0.00    -0.046 Br
ENDROOT
BRANCH   1   8
ATOM      8  O   UNL     1      -1.165  -0.701   0.010  0.00  0.00    -0.489 OA
BRANCH   8  10
ATOM      9  C   UNL     1      -3.575  -0.891   0.033  0.00  0.00    +0.048 C 
ATOM     10  C   UNL     1      -2.375   0.059   0.026  0.00  0.00    +0.226 C 
ENDBRANCH   8  10
ENDBRANCH   1   8
BRANCH   6  11
ATOM     11  O   UNL     1       1.241  -2.040  -0.020  0.00  0.00    -0.483 OA
BRANCH  11  12
ATOM     12  C   UNL     1       1.240  -2.682  -1.297  0.00  0.00    +0.266 C 
BRANCH  12  13
ATOM     13  C   UNL     1       1.268  -4.177  -1.107  0.00  0.00    +0.008 A 
ATOM     14  C   UNL     1       1.295  -4.712   0.167  0.00  0.00    +0.008 A 
ATOM     15  C   UNL     1       1.316  -6.083   0.341  0.00  0.00    +0.000 A 
ATOM     16  C   UNL     1       1.319  -6.920  -0.759  0.00  0.00    +0.001 A 
ATOM     17  C   UNL     1       1.297  -6.387  -2.034  0.00  0.00    +0.020 A 
ATOM     18  C   UNL     1       1.272  -5.014  -2.208  0.00  0.00    +0.047 A 
ATOM     19 CL   UNL     1       1.244  -4.343  -3.809  0.00  0.00    -0.083 Cl
ENDBRANCH  12  13
ENDBRANCH  11  12
ENDBRANCH   6  11
BRANCH   3  20
ATOM     20  C   UNL     1       1.148   3.596   0.011  0.00  0.00    -0.047 C 
BRANCH  20  21
ATOM     21  N   UNL     1       1.154   4.072   1.407  0.00  0.00    +0.382 N 
ATOM     22  H   UNL     1       2.002   3.733   1.876  0.00  0.00    -0.085 HD
ATOM     23  H   UNL     1       0.326   3.708   1.892  0.00  0.00    -0.085 HD
BRANCH  21  24
ATOM     24  C   UNL     1       1.132   5.546   1.445  0.00  0.00    -0.077 C 
BRANCH  24  25
ATOM     25  C   UNL     1       1.139   6.010   2.904  0.00  0.00    +0.018 C 
BRANCH  25  26
ATOM     26  C   UNL     1       1.116   7.516   2.952  0.00  0.00    -0.024 A 
ATOM     27  C   UNL     1       2.179   8.327   3.067  0.00  0.00    +0.087 A 
ATOM     28  N   UNL     1       1.772   9.633   3.075  0.00  0.00    -0.360 N 
ATOM     29  H   UNL     1       2.361  10.400   3.146  0.00  0.00    +0.165 HD
ATOM     30  C   UNL     1       0.400   9.695   2.970  0.00  0.00    +0.047 A 
ATOM     31  C   UNL     1      -0.071   8.372   2.889  0.00  0.00    +0.003 A 
ATOM     32  C   UNL     1      -1.440   8.126   2.773  0.00  0.00    +0.010 A 
ATOM     33  C   UNL     1      -2.317   9.173   2.740  0.00  0.00    +0.001 A 
ATOM     34  C   UNL     1      -1.858  10.480   2.820  0.00  0.00    +0.002 A 
ATOM     35  C   UNL     1      -0.511  10.746   2.935  0.00  0.00    +0.026 A 
ENDBRANCH  25  26
ENDBRANCH  24  25
ENDBRANCH  21  24
ENDBRANCH  20  21
ENDBRANCH   3  20
TORSDOF 10
