REMARK  Name = ZINC13759166
REMARK  5 active torsions:
REMARK  status: ('A' for Active; 'I' for Inactive)
REMARK    1  A    between atoms: C_4  and  N_7
REMARK    2  A    between atoms: C_16  and  C_29
REMARK    3  A    between atoms: C_16  and  C_33
REMARK    4  A    between atoms: C_18  and  C_20
REMARK    5  A    between atoms: C_24  and  N_26
REMARK                            x       y       z     vdW  Elec       q    Type
REMARK                         _______ _______ _______ _____ _____    ______ ____
ROOT
ATOM      1  N   UNL     1       3.177  -0.879  -0.361  0.00  0.00    -0.250 N 
ATOM      2  C   UNL     1       3.377  -2.215  -0.110  0.00  0.00    +0.124 A 
ATOM      3  C   UNL     1       4.641  -2.725  -0.131  0.00  0.00    +0.100 A 
ATOM      4  C   UNL     1       5.717  -1.867  -0.420  0.00  0.00    +0.262 A 
ATOM      5  O   UNL     1       6.856  -2.300  -0.451  0.00  0.00    -0.267 OA
ATOM      6  N   UNL     1       5.479  -0.563  -0.662  0.00  0.00    -0.274 N 
ATOM      7  H   UNL     1       6.219   0.031  -0.861  0.00  0.00    +0.173 HD
ATOM      8  C   UNL     1       4.224  -0.078  -0.636  0.00  0.00    +0.335 A 
ATOM      9  O   UNL     1       4.033   1.101  -0.860  0.00  0.00    -0.246 OA
ATOM     10  C   UNL     1       4.886  -4.179   0.155  0.00  0.00    +0.285 C 
ATOM     11  N   UNL     1       3.655  -4.952   0.060  0.00  0.00    -0.239 NA
ATOM     12  C   UNL     1       2.479  -4.412   0.067  0.00  0.00    +0.128 C 
ATOM     13  N   UNL     1       2.314  -3.045   0.159  0.00  0.00    -0.285 N 
ATOM     14  H   UNL     1       1.455  -2.672   0.412  0.00  0.00    +0.155 HD
ENDROOT
BRANCH   1  18
ATOM     15  C   UNL     1      -0.682   0.694  -0.286  0.00  0.00    +0.000 A 
ATOM     16  C   UNL     1      -0.170   0.178  -1.463  0.00  0.00    +0.002 A 
ATOM     17  C   UNL     1       1.109  -0.344  -1.491  0.00  0.00    +0.026 A 
ATOM     18  C   UNL     1       1.880  -0.350  -0.336  0.00  0.00    +0.053 A 
ATOM     19  C   UNL     1       1.363   0.168   0.844  0.00  0.00    +0.026 A 
ATOM     20  C   UNL     1       0.083   0.689   0.865  0.00  0.00    +0.002 A 
ENDBRANCH   1  18
BRANCH  12  21
ATOM     21  C   UNL     1       1.284  -5.280  -0.025  0.00  0.00    +0.017 A 
ATOM     22  C   UNL     1       0.008  -4.717  -0.025  0.00  0.00    +0.011 A 
ATOM     23  C   UNL     1      -1.103  -5.532  -0.112  0.00  0.00    +0.003 A 
ATOM     24  C   UNL     1      -0.952  -6.904  -0.199  0.00  0.00    +0.033 A 
ATOM     25  C   UNL     1       0.311  -7.469  -0.200  0.00  0.00    +0.127 A 
ATOM     26  C   UNL     1       1.429  -6.664  -0.118  0.00  0.00    +0.044 A 
BRANCH  25  27
ATOM     27  N   UNL     1       0.463  -8.938  -0.293  0.00  0.00    +0.056 N 
ATOM     28  O   UNL     1      -0.515  -9.644  -0.369  0.00  0.00    -0.126 OA
ATOM     29  O   UNL     1       1.567  -9.433  -0.294  0.00  0.00    -0.126 OA
ENDBRANCH  25  27
ENDBRANCH  12  21
BRANCH  10  30
ATOM     30  C   UNL     1       5.899  -4.725  -0.855  0.00  0.00    +0.428 C 
ATOM     31  F   UNL     1       7.181  -4.282  -0.514  0.00  0.00    -0.167 F 
ATOM     32  F   UNL     1       5.868  -6.123  -0.837  0.00  0.00    -0.167 F 
ATOM     33  F   UNL     1       5.572  -4.267  -2.136  0.00  0.00    -0.167 F 
ENDBRANCH  10  30
BRANCH  10  34
ATOM     34  C   UNL     1       5.461  -4.323   1.565  0.00  0.00    +0.428 C 
ATOM     35  F   UNL     1       4.550  -3.808   2.494  0.00  0.00    -0.167 F 
ATOM     36  F   UNL     1       5.692  -5.675   1.840  0.00  0.00    -0.167 F 
ATOM     37  F   UNL     1       6.665  -3.617   1.653  0.00  0.00    -0.167 F 
ENDBRANCH  10  34
TORSDOF 5
