REMARK  Name = ZINC32981947
REMARK  12 active torsions:
REMARK  status: ('A' for Active; 'I' for Inactive)
REMARK    1  A    between atoms: C_1  and  C_2
REMARK    2  A    between atoms: C_2  and  C_3
REMARK    3  A    between atoms: C_3  and  C_4
REMARK    4  A    between atoms: C_4  and  N_5
REMARK    5  A    between atoms: N_5  and  C_6
REMARK    6  A    between atoms: C_7  and  N_22
REMARK    7  A    between atoms: N_8  and  C_15
REMARK    8  A    between atoms: C_15  and  C_16
REMARK    9  A    between atoms: C_23  and  C_25
REMARK   10  A    between atoms: C_25  and  C_26
REMARK   11  A    between atoms: C_26  and  N_27
REMARK   12  A    between atoms: N_30  and  C_31
REMARK                            x       y       z     vdW  Elec       q    Type
REMARK                         _______ _______ _______ _____ _____    ______ ____
ROOT
ATOM      1  N   UNL     1       0.494  -0.667  -0.970  0.00  0.00    -0.264 N 
ATOM      2  C   UNL     1      -0.269  -0.074  -0.028  0.00  0.00    +0.221 C 
ATOM      3  O   UNL     1      -0.925  -0.751   0.736  0.00  0.00    -0.275 OA
ENDROOT
BRANCH   1   4
ATOM      4  C   UNL     1       0.607  -2.073  -1.004  0.00  0.00    +0.140 A 
ATOM      5  C   UNL     1       1.178  -2.758   0.050  0.00  0.00    +0.128 A 
ATOM      6  N   UNL     1       1.268  -4.129  -0.010  0.00  0.00    -0.276 N 
ATOM      7  C   UNL     1       0.815  -4.794  -1.089  0.00  0.00    +0.331 A 
ATOM      8  O   UNL     1       0.909  -6.006  -1.125  0.00  0.00    -0.246 OA
ATOM      9  N   UNL     1       0.261  -4.144  -2.127  0.00  0.00    -0.273 N 
ATOM     10  H   UNL     1      -0.104  -4.708  -2.998  0.00  0.00    +0.173 HD
ATOM     11  C   UNL     1       0.143  -2.802  -2.116  0.00  0.00    +0.277 A 
ATOM     12  O   UNL     1      -0.362  -2.222  -3.062  0.00  0.00    -0.266 OA
BRANCH   5  13
ATOM     13  N   UNL     1       1.646  -2.078   1.148  0.00  0.00    -0.343 N 
ATOM     14  H   UNL     1       2.100  -2.629   1.984  0.00  0.00    +0.144 HD
ATOM     15  H   UNL     1       1.567  -0.981   1.191  0.00  0.00    +0.144 HD
ENDBRANCH   5  13
BRANCH   6  16
ATOM     16  C   UNL     1       1.866  -4.869   1.103  0.00  0.00    +0.163 C 
BRANCH  16  17
ATOM     17  C   UNL     1       3.350  -5.005   0.876  0.00  0.00    -0.028 A 
ATOM     18  C   UNL     1       3.847  -6.099   0.193  0.00  0.00    +0.005 A 
ATOM     19  C   UNL     1       5.207  -6.222  -0.020  0.00  0.00    +0.000 A 
ATOM     20  C   UNL     1       6.072  -5.256   0.460  0.00  0.00    +0.000 A 
ATOM     21  C   UNL     1       5.575  -4.164   1.148  0.00  0.00    +0.000 A 
ATOM     22  C   UNL     1       4.214  -4.039   1.356  0.00  0.00    +0.005 A 
ENDBRANCH  16  17
ENDBRANCH   6  16
ENDBRANCH   1   4
BRANCH   1  23
ATOM     23  C   UNL     1       1.206   0.148  -1.956  0.00  0.00    +0.114 C 
BRANCH  23  24
ATOM     24  C   UNL     1       2.611   0.465  -1.438  0.00  0.00    +0.019 C 
BRANCH  24  26
ATOM     25  C   UNL     1       4.759   1.633  -1.951  0.00  0.00    +0.004 C 
ATOM     26  C   UNL     1       3.355   1.317  -2.469  0.00  0.00    -0.002 C 
ENDBRANCH  24  26
ENDBRANCH  23  24
ENDBRANCH   1  23
BRANCH   2  27
ATOM     27  C   UNL     1      -0.307   1.429   0.074  0.00  0.00    +0.115 C 
BRANCH  27  28
ATOM     28  C   UNL     1      -1.241   1.839   1.214  0.00  0.00    +0.115 C 
BRANCH  28  29
ATOM     29  N   UNL     1      -1.278   3.300   1.313  0.00  0.00    -0.299 N 
ATOM     30  C   UNL     1      -2.041   3.893   2.253  0.00  0.00    +0.300 C 
ATOM     31  O   UNL     1      -2.698   3.215   3.019  0.00  0.00    -0.253 OA
ATOM     32  N   UNL     1      -2.075   5.237   2.344  0.00  0.00    -0.294 N 
ATOM     33  H   UNL     1      -0.684   3.914   0.620  0.00  0.00    +0.150 HD
ATOM     34  H   UNL     1      -1.480   5.851   1.651  0.00  0.00    +0.151 HD
BRANCH  32  35
ATOM     35  C   UNL     1      -2.903   5.881   3.366  0.00  0.00    +0.037 C 
ATOM     36  C   UNL     1      -4.367   5.488   3.159  0.00  0.00    +0.029 C 
ATOM     37  C   UNL     1      -5.233   6.160   4.226  0.00  0.00    -0.008 C 
ATOM     38  C   UNL     1      -5.092   7.680   4.114  0.00  0.00    +0.007 C 
ATOM     39  C   UNL     1      -3.628   8.073   4.321  0.00  0.00    -0.008 C 
ATOM     40  C   UNL     1      -2.763   7.401   3.254  0.00  0.00    +0.029 C 
ATOM     41  C   UNL     1      -3.171   7.620   5.709  0.00  0.00    +0.007 C 
ATOM     42  C   UNL     1      -3.311   6.101   5.822  0.00  0.00    -0.008 C 
ATOM     43  C   UNL     1      -4.775   5.707   5.614  0.00  0.00    +0.007 C 
ATOM     44  C   UNL     1      -2.446   5.428   4.754  0.00  0.00    +0.029 C 
ENDBRANCH  32  35
ENDBRANCH  28  29
ENDBRANCH  27  28
ENDBRANCH   2  27
TORSDOF 11
