REMARK  Name = ZINC09382060
REMARK  8 active torsions:
REMARK  status: ('A' for Active; 'I' for Inactive)
REMARK    1  A    between atoms: C_1  and  C_2
REMARK    2  A    between atoms: C_5  and  C_33
REMARK    3  A    between atoms: C_6  and  C_8
REMARK    4  A    between atoms: C_8  and  S_9
REMARK    5  A    between atoms: S_9  and  C_10
REMARK    6  A    between atoms: C_13  and  C_22
REMARK    7  A    between atoms: N_14  and  C_15
REMARK    8  A    between atoms: C_22  and  C_23
REMARK                            x       y       z     vdW  Elec       q    Type
REMARK                         _______ _______ _______ _____ _____    ______ ____
ROOT
ATOM      1  C   UNL     1       1.337   1.272  -4.541  0.00  0.00    +0.196 A 
ATOM      2  N   UNL     1       0.156   1.552  -5.042  0.00  0.00    -0.122 NA
ATOM      3  N   UNL     1       0.290   2.202  -6.142  0.00  0.00    -0.133 NA
ATOM      4  C   UNL     1       1.554   2.368  -6.414  0.00  0.00    +0.144 A 
ATOM      5  N   UNL     1       2.268   1.782  -5.403  0.00  0.00    -0.274 N 
ENDROOT
BRANCH   5   6
ATOM      6  C   UNL     1       3.664   1.717  -5.278  0.00  0.00    +0.050 A 
ATOM      7  C   UNL     1       4.402   2.881  -5.108  0.00  0.00    +0.029 A 
ATOM      8  C   UNL     1       5.775   2.814  -4.980  0.00  0.00    +0.040 A 
ATOM      9  C   UNL     1       6.418   1.589  -5.031  0.00  0.00    +0.124 A 
ATOM     10  C   UNL     1       5.685   0.427  -5.206  0.00  0.00    +0.040 A 
ATOM     11  C   UNL     1       4.311   0.489  -5.329  0.00  0.00    +0.029 A 
ATOM     12  F   UNL     1       7.762   1.527  -4.911  0.00  0.00    -0.205 F 
ENDBRANCH   5   6
BRANCH   1  13
ATOM     13  S   UNL     1       1.660   0.399  -3.045  0.00  0.00    -0.081 S 
BRANCH  13  14
ATOM     14  C   UNL     1      -0.035   0.072  -2.499  0.00  0.00    +0.112 C 
BRANCH  14  20
ATOM     15  C   UNL     1       0.059  -4.275  -0.021  0.00  0.00    +0.044 C 
ATOM     16  C   UNL     1       0.039  -2.768  -0.013  0.00  0.00    -0.050 A 
ATOM     17  C   UNL     1       0.041  -2.084   1.188  0.00  0.00    +0.003 A 
ATOM     18  C   UNL     1       0.023  -0.702   1.196  0.00  0.00    +0.004 A 
ATOM     19  C   UNL     1       0.002  -0.004   0.002  0.00  0.00    -0.046 A 
ATOM     20  C   UNL     1      -0.006  -0.689  -1.199  0.00  0.00    -0.034 A 
ATOM     21  C   UNL     1       0.018  -2.071  -1.206  0.00  0.00    +0.008 A 
ATOM     22  C   UNL     1      -0.018   1.503   0.010  0.00  0.00    +0.044 C 
ENDBRANCH  14  20
ENDBRANCH  13  14
ENDBRANCH   1  13
BRANCH   4  23
ATOM     23  C   UNL     1       2.124   3.075  -7.617  0.00  0.00    +0.130 C 
BRANCH  23  24
ATOM     24  C   UNL     1       2.322   2.084  -8.735  0.00  0.00    +0.033 A 
ATOM     25  C   UNL     1       1.370   1.929  -9.680  0.00  0.00    +0.091 A 
ATOM     26  C   UNL     1       1.578   0.992 -10.720  0.00  0.00    +0.254 A 
ATOM     27  O   UNL     1       0.735   0.835 -11.584  0.00  0.00    -0.268 OA
ATOM     28  N   UNL     1       2.720   0.274 -10.746  0.00  0.00    -0.275 N 
ATOM     29  H   UNL     1       2.874  -0.390 -11.477  0.00  0.00    +0.173 HD
ATOM     30  C   UNL     1       3.652   0.449  -9.791  0.00  0.00    +0.327 A 
ATOM     31  O   UNL     1       4.676  -0.205  -9.826  0.00  0.00    -0.247 OA
ATOM     32  N   UNL     1       3.469   1.340  -8.800  0.00  0.00    -0.311 N 
ATOM     33  H   UNL     1       4.177   1.461  -8.104  0.00  0.00    +0.170 HD
ENDBRANCH  23  24
ENDBRANCH   4  23
TORSDOF 6
