REMARK  Name = ZINC00423413
REMARK  6 active torsions:
REMARK  status: ('A' for Active; 'I' for Inactive)
REMARK    1  A    between atoms: C_1  and  C_2
REMARK    2  A    between atoms: C_2  and  C_3
REMARK    3  A    between atoms: C_2  and  C_4
REMARK    4  A    between atoms: C_7  and  N_10
REMARK    5  A    between atoms: N_10  and  S_11
REMARK    6  A    between atoms: S_11  and  C_14
REMARK                            x       y       z     vdW  Elec       q    Type
REMARK                         _______ _______ _______ _____ _____    ______ ____
ROOT
ATOM      1  S   UNL     1      -1.079  -0.765   0.999  0.00  0.00    +0.072 S 
ATOM      2  O   UNL     1      -0.879  -2.161   0.820  0.00  0.00    -0.150 OA
ATOM      3  O   UNL     1      -0.977  -0.138   2.269  0.00  0.00    -0.150 OA
ENDROOT
BRANCH   1   4
ATOM      4  C   UNL     1      -2.693  -0.406   0.388  0.00  0.00    +0.109 A 
ATOM      5  C   UNL     1      -3.320  -1.294  -0.467  0.00  0.00    +0.030 A 
ATOM      6  C   UNL     1      -4.585  -1.016  -0.947  0.00  0.00    +0.025 A 
ATOM      7  C   UNL     1      -5.226   0.157  -0.571  0.00  0.00    +0.037 A 
ATOM      8  C   UNL     1      -4.593   1.046   0.287  0.00  0.00    -0.024 A 
ATOM      9  C   UNL     1      -3.331   0.760   0.769  0.00  0.00    +0.034 A 
ATOM     10  C   UNL     1      -5.289   2.318   0.695  0.00  0.00    +0.046 C 
ATOM     11  C   UNL     1      -6.147   2.826  -0.464  0.00  0.00    +0.101 C 
ATOM     12  C   UNL     1      -6.984   1.702  -1.012  0.00  0.00    +0.218 C 
ATOM     13  O   UNL     1      -8.103   1.931  -1.421  0.00  0.00    -0.275 OA
ATOM     14  N   UNL     1      -6.506   0.444  -1.053  0.00  0.00    -0.285 N 
ATOM     15  H   UNL     1      -7.053  -0.267  -1.421  0.00  0.00    +0.155 HD
ENDBRANCH   1   4
BRANCH   1  16
ATOM     16  N   UNL     1       0.002  -0.001   0.004  0.00  0.00    -0.216 N 
ATOM     17  H   UNL     1       0.591   0.682   0.362  0.00  0.00    +0.174 HD
BRANCH  16  21
ATOM     18  C   UNL     1       0.195  -1.010  -4.031  0.00  0.00    -0.045 A 
ATOM     19  C   UNL     1       0.174   0.320  -3.652  0.00  0.00    +0.006 A 
ATOM     20  C   UNL     1       0.110   0.658  -2.315  0.00  0.00    +0.025 A 
ATOM     21  C   UNL     1       0.066  -0.339  -1.349  0.00  0.00    +0.048 A 
ATOM     22  C   UNL     1       0.093  -1.674  -1.732  0.00  0.00    +0.025 A 
ATOM     23  C   UNL     1       0.152  -2.006  -3.072  0.00  0.00    +0.006 A 
BRANCH  18  25
ATOM     24  C   UNL     1       1.530  -2.196  -5.751  0.00  0.00    +0.012 C 
ATOM     25  C   UNL     1       0.265  -1.375  -5.491  0.00  0.00    +0.013 C 
ATOM     26  C   UNL     1      -0.966  -2.202  -5.870  0.00  0.00    +0.012 C 
ENDBRANCH  18  25
ENDBRANCH  16  21
ENDBRANCH   1  16
TORSDOF 4
