REMARK  Name = ZINC12437135
REMARK  8 active torsions:
REMARK  status: ('A' for Active; 'I' for Inactive)
REMARK    1  A    between atoms: C_1  and  C_2
REMARK    2  A    between atoms: C_8  and  C_17
REMARK    3  A    between atoms: C_9  and  C_11
REMARK    4  A    between atoms: C_11  and  C_12
REMARK    5  A    between atoms: C_12  and  C_13
REMARK    6  A    between atoms: C_13  and  C_16
REMARK    7  A    between atoms: N_14  and  O_15
REMARK    8  A    between atoms: C_20  and  C_22
REMARK                            x       y       z     vdW  Elec       q    Type
REMARK                         _______ _______ _______ _____ _____    ______ ____
ROOT
ATOM      1  C   UNL     1      -0.018   1.503   0.010  0.00  0.00    +0.044 C 
ATOM      2  C   UNL     1       0.002  -0.004   0.002  0.00  0.00    -0.050 A 
ATOM      3  C   UNL     1       0.006  -0.689  -1.204  0.00  0.00    +0.007 A 
ATOM      4  C   UNL     1       0.024  -2.067  -1.231  0.00  0.00    +0.047 A 
ATOM      5  C   UNL     1       0.039  -2.784  -0.040  0.00  0.00    +0.136 A 
ATOM      6  C   UNL     1       0.036  -2.089   1.179  0.00  0.00    +0.031 A 
ATOM      7  C   UNL     1       0.023  -0.697   1.193  0.00  0.00    +0.015 A 
ATOM      8  C   UNL     1       0.055  -3.128   2.225  0.00  0.00    +0.066 A 
ATOM      9  C   UNL     1       0.067  -4.314   1.569  0.00  0.00    +0.117 A 
ATOM     10  O   UNL     1       0.058  -4.102   0.242  0.00  0.00    -0.459 OA
ENDROOT
BRANCH   8  11
ATOM     11  C   UNL     1       0.059  -2.920   3.688  0.00  0.00    +0.139 A 
ATOM     12  C   UNL     1      -0.945  -2.365   4.418  0.00  0.00    +0.050 A 
ATOM     13  C   UNL     1      -0.517  -2.364   5.762  0.00  0.00    +0.045 A 
ATOM     14  C   UNL     1       0.713  -2.912   5.785  0.00  0.00    +0.103 A 
ATOM     15  O   UNL     1       1.056  -3.251   4.531  0.00  0.00    -0.460 OA
ATOM     16  C   UNL     1       1.561  -3.115   7.014  0.00  0.00    +0.086 C 
ENDBRANCH   8  11
BRANCH   9  17
ATOM     17  C   UNL     1       0.089  -5.669   2.229  0.00  0.00    +0.081 C 
BRANCH  17  18
ATOM     18  C   UNL     1      -1.347  -6.146   2.460  0.00  0.00    +0.061 C 
BRANCH  18  19
ATOM     19  C   UNL     1      -1.325  -7.501   3.120  0.00  0.00    +0.055 C 
ATOM     20  N   UNL     1      -1.786  -7.642   4.305  0.00  0.00    -0.097 NA
ATOM     21  C   UNL     1      -0.762  -8.689   2.384  0.00  0.00    +0.064 C 
BRANCH  20  22
ATOM     22  O   UNL     1      -2.316  -6.526   4.997  0.00  0.00    -0.409 OA
ATOM     23  H   UNL     1      -2.639  -6.731   5.885  0.00  0.00    +0.328 HD
ENDBRANCH  20  22
ENDBRANCH  18  19
ENDBRANCH  17  18
ENDBRANCH   9  17
TORSDOF 5
