REMARK  Name = ZINC00059049
REMARK  7 active torsions:
REMARK  status: ('A' for Active; 'I' for Inactive)
REMARK    1  A    between atoms: C_1  and  C_2
REMARK    2  A    between atoms: C_6  and  C_9
REMARK    3  A    between atoms: C_7  and  O_8
REMARK    4  A    between atoms: N_10  and  N_11
REMARK    5  A    between atoms: C_12  and  C_14
REMARK    6  A    between atoms: C_14  and  N_15
REMARK    7  A    between atoms: N_15  and  C_16
REMARK                            x       y       z     vdW  Elec       q    Type
REMARK                         _______ _______ _______ _____ _____    ______ ____
ROOT
ATOM      1  N   UNL     1      -0.288   1.272  -2.443  0.00  0.00    -0.206 N 
ATOM      2  C   UNL     1      -0.742   1.585  -1.213  0.00  0.00    +0.249 C 
ATOM      3  O   UNL     1      -1.736   2.268  -1.088  0.00  0.00    -0.272 OA
ATOM      4  H   UNL     1       0.507   0.726  -2.543  0.00  0.00    +0.177 HD
ENDROOT
BRANCH   1   6
ATOM      5  C   UNL     1      -0.530   1.435  -4.763  0.00  0.00    +0.142 C 
ATOM      6  N   UNL     1      -0.966   1.736  -3.578  0.00  0.00    -0.188 NA
BRANCH   5  12
ATOM      7  C   UNL     1      -4.291   4.016  -6.802  0.00  0.00    +0.047 C 
ATOM      8  C   UNL     1      -3.055   3.167  -6.946  0.00  0.00    -0.008 A 
ATOM      9  C   UNL     1      -2.583   2.841  -8.204  0.00  0.00    +0.007 A 
ATOM     10  C   UNL     1      -1.448   2.062  -8.347  0.00  0.00    +0.001 A 
ATOM     11  C   UNL     1      -0.776   1.602  -7.233  0.00  0.00    +0.013 A 
ATOM     12  C   UNL     1      -1.242   1.923  -5.957  0.00  0.00    +0.036 A 
ATOM     13  C   UNL     1      -2.396   2.709  -5.817  0.00  0.00    +0.128 A 
BRANCH  13  14
ATOM     14  O   UNL     1      -2.861   3.023  -4.581  0.00  0.00    -0.506 OA
ATOM     15  H   UNL     1      -2.499   3.844  -4.221  0.00  0.00    +0.292 HD
ENDBRANCH  13  14
ENDBRANCH   5  12
ENDBRANCH   1   6
BRANCH   2  16
ATOM     16  C   UNL     1      -0.013   1.086   0.008  0.00  0.00    +0.199 C 
BRANCH  16  17
ATOM     17  N   UNL     1      -0.698   1.558   1.213  0.00  0.00    -0.335 N 
ATOM     18  H   UNL     1      -1.495   2.106   1.135  0.00  0.00    +0.147 HD
BRANCH  17  19
ATOM     19  C   UNL     1      -0.206   1.221   2.472  0.00  0.00    +0.035 A 
ATOM     20  C   UNL     1       0.926   0.444   2.591  0.00  0.00    +0.023 A 
ATOM     21  C   UNL     1       1.426   0.102   3.844  0.00  0.00    +0.002 A 
ATOM     22  C   UNL     1       0.814   0.524   4.984  0.00  0.00    +0.008 A 
ATOM     23  C   UNL     1      -0.343   1.318   4.907  0.00  0.00    -0.016 A 
ATOM     24  C   UNL     1      -0.858   1.678   3.638  0.00  0.00    +0.003 A 
ATOM     25  C   UNL     1      -2.016   2.467   3.562  0.00  0.00    +0.010 A 
ATOM     26  C   UNL     1      -2.623   2.884   4.707  0.00  0.00    +0.001 A 
ATOM     27  C   UNL     1      -2.114   2.535   5.957  0.00  0.00    +0.001 A 
ATOM     28  C   UNL     1      -0.996   1.768   6.068  0.00  0.00    +0.008 A 
ENDBRANCH  17  19
ENDBRANCH  16  17
ENDBRANCH   2  16
TORSDOF 6
