REMARK  Name = ZINC44221348
REMARK  4 active torsions:
REMARK  status: ('A' for Active; 'I' for Inactive)
REMARK    1  A    between atoms: C_5  and  C_8
REMARK    2  A    between atoms: C_8  and  O_9
REMARK    3  A    between atoms: O_9  and  C_10
REMARK    4  A    between atoms: C_16  and  O_18
REMARK                            x       y       z     vdW  Elec       q    Type
REMARK                         _______ _______ _______ _____ _____    ______ ____
ROOT
ATOM      1  C   UNL     1       1.661  -3.923   2.419  0.00  0.00    +0.152 C 
ATOM      2  C   UNL     1       1.644  -4.367   3.883  0.00  0.00    +0.099 C 
ATOM      3  C   UNL     1       1.782  -5.889   3.955  0.00  0.00    +0.173 C 
ATOM      4  C   UNL     1       3.095  -6.322   3.303  0.00  0.00    +0.067 C 
ATOM      5  C   UNL     1       3.110  -5.875   1.840  0.00  0.00    +0.039 C 
ATOM      6  C   UNL     1       2.978  -4.352   1.771  0.00  0.00    +0.144 C 
ATOM      7  O   UNL     1       1.770  -6.305   5.330  0.00  0.00    -0.346 OA
ATOM      8  C   UNL     1       0.393  -6.668   5.595  0.00  0.00    +0.191 C 
ATOM      9  C   UNL     1      -0.032  -7.299   4.245  0.00  0.00    +0.191 C 
ATOM     10  O   UNL     1       0.680  -6.504   3.275  0.00  0.00    -0.346 OA
ENDROOT
BRANCH   6  11
ATOM     11  O   UNL     1       4.070  -3.748   2.467  0.00  0.00    -0.389 OA
ATOM     12  H   UNL     1       4.939  -3.976   2.110  0.00  0.00    +0.210 HD
ENDBRANCH   6  11
BRANCH   1  13
ATOM     13  O   UNL     1       1.537  -2.501   2.351  0.00  0.00    -0.371 OA
BRANCH  13  14
ATOM     14  C   UNL     1       0.884  -2.030   1.170  0.00  0.00    +0.191 C 
BRANCH  14  19
ATOM     15  C   UNL     1      -0.019   1.528   0.010  0.00  0.00    +0.005 C 
ATOM     16  C   UNL     1       1.422   2.047  -0.001  0.00  0.00    +0.028 C 
ATOM     17  C   UNL     1       2.174   1.469   1.202  0.00  0.00    +0.160 C 
ATOM     18  O   UNL     1       2.128   0.042   1.149  0.00  0.00    -0.374 OA
ATOM     19  C   UNL     1       0.808  -0.502   1.204  0.00  0.00    +0.144 C 
ATOM     20  C   UNL     1       0.002  -0.004   0.002  0.00  0.00    +0.034 C 
ENDBRANCH  14  19
ENDBRANCH  13  14
ENDBRANCH   1  13
TORSDOF 4
