REMARK  Name = ZINC09409174
REMARK  12 active torsions:
REMARK  status: ('A' for Active; 'I' for Inactive)
REMARK    1  A    between atoms: C_1  and  C_2
REMARK    2  A    between atoms: C_2  and  C_3
REMARK    3  A    between atoms: C_2  and  C_4
REMARK    4  A    between atoms: C_2  and  C_5
REMARK    5  A    between atoms: C_8  and  C_11
REMARK    6  A    between atoms: C_14  and  C_32
REMARK    7  A    between atoms: N_21  and  C_22
REMARK    8  A    between atoms: C_22  and  C_23
REMARK    9  A    between atoms: C_23  and  C_24
REMARK   10  A    between atoms: C_27  and  O_30
REMARK   11  A    between atoms: O_30  and  C_31
REMARK   12  A    between atoms: C_37  and  O_38
REMARK                            x       y       z     vdW  Elec       q    Type
REMARK                         _______ _______ _______ _____ _____    ______ ____
ROOT
ATOM      1  C   UNL     1       2.698  -1.472  -4.427  0.00  0.00    +0.141 C 
ATOM      2  C   UNL     1       2.674  -0.635  -5.676  0.00  0.00    +0.035 A 
ATOM      3  C   UNL     1       1.903   0.007  -6.651  0.00  0.00    +0.102 A 
ATOM      4  N   UNL     1       2.735   0.585  -7.495  0.00  0.00    -0.173 NA
ATOM      5  N   UNL     1       3.955   0.371  -7.149  0.00  0.00    -0.272 N 
ATOM      6  H   UNL     1       4.734   0.701  -7.624  0.00  0.00    +0.189 HD
ATOM      7  C   UNL     1       3.991  -0.389  -6.015  0.00  0.00    +0.126 A 
ATOM      8  C   UNL     1       4.857  -1.039  -5.025  0.00  0.00    +0.265 C 
ATOM      9  O   UNL     1       6.073  -1.011  -5.041  0.00  0.00    -0.268 OA
ATOM     10  N   UNL     1       4.115  -1.673  -4.097  0.00  0.00    -0.285 N 
ENDROOT
BRANCH   1  14
ATOM     11  C   UNL     1       0.724   0.583  -1.244  0.00  0.00    -0.042 A 
ATOM     12  C   UNL     1       1.930   1.054  -1.728  0.00  0.00    +0.004 A 
ATOM     13  C   UNL     1       2.569   0.389  -2.758  0.00  0.00    +0.006 A 
ATOM     14  C   UNL     1       2.002  -0.748  -3.303  0.00  0.00    -0.022 A 
ATOM     15  C   UNL     1       0.797  -1.220  -2.819  0.00  0.00    +0.006 A 
ATOM     16  C   UNL     1       0.160  -0.557  -1.786  0.00  0.00    +0.004 A 
BRANCH  11  18
ATOM     17  C   UNL     1      -0.127   0.367   1.075  0.00  0.00    +0.015 C 
ATOM     18  C   UNL     1       0.028   1.308  -0.122  0.00  0.00    -0.013 C 
ATOM     19  C   UNL     1      -1.354   1.767  -0.591  0.00  0.00    +0.015 C 
ATOM     20  C   UNL     1       0.857   2.526   0.291  0.00  0.00    +0.015 C 
ENDBRANCH  11  18
ENDBRANCH   1  14
BRANCH   3  21
ATOM     21  C   UNL     1       0.421   0.033  -6.723  0.00  0.00    +0.044 A 
ATOM     22  C   UNL     1      -0.335  -0.725  -5.832  0.00  0.00    +0.014 A 
ATOM     23  C   UNL     1      -1.714  -0.698  -5.902  0.00  0.00    +0.001 A 
ATOM     24  C   UNL     1      -2.347   0.080  -6.855  0.00  0.00    +0.004 A 
ATOM     25  C   UNL     1      -1.606   0.835  -7.744  0.00  0.00    +0.046 A 
ATOM     26  C   UNL     1      -0.222   0.822  -7.680  0.00  0.00    +0.126 A 
BRANCH  26  27
ATOM     27  O   UNL     1       0.508   1.569  -8.549  0.00  0.00    -0.506 OA
ATOM     28  H   UNL     1       0.735   1.109  -9.369  0.00  0.00    +0.292 HD
ENDBRANCH  26  27
ENDBRANCH   3  21
BRANCH  10  29
ATOM     29  C   UNL     1       4.632  -2.432  -2.955  0.00  0.00    +0.114 C 
BRANCH  29  30
ATOM     30  C   UNL     1       4.828  -3.894  -3.361  0.00  0.00    +0.054 C 
BRANCH  30  31
ATOM     31  C   UNL     1       5.359  -4.674  -2.186  0.00  0.00    -0.046 A 
ATOM     32  C   UNL     1       6.724  -4.781  -1.988  0.00  0.00    +0.007 A 
ATOM     33  C   UNL     1       7.213  -5.496  -0.913  0.00  0.00    +0.046 A 
ATOM     34  C   UNL     1       6.335  -6.107  -0.030  0.00  0.00    +0.120 A 
ATOM     35  C   UNL     1       4.966  -5.998  -0.230  0.00  0.00    +0.046 A 
ATOM     36  C   UNL     1       4.482  -5.278  -1.305  0.00  0.00    +0.007 A 
BRANCH  34  37
ATOM     37  O   UNL     1       6.814  -6.811   1.029  0.00  0.00    -0.495 OA
ATOM     38  C   UNL     1       5.851  -7.414   1.896  0.00  0.00    +0.277 C 
ENDBRANCH  34  37
ENDBRANCH  30  31
ENDBRANCH  29  30
ENDBRANCH  10  29
TORSDOF 8
