REMARK  Name = ZINC44323855
REMARK  8 active torsions:
REMARK  status: ('A' for Active; 'I' for Inactive)
REMARK    1  A    between atoms: C_13  and  C_14
REMARK    2  A    between atoms: C_14  and  O_15
REMARK    3  A    between atoms: O_15  and  C_16
REMARK    4  A    between atoms: N_18  and  CA_19
REMARK    5  A    between atoms: CA_19  and  C_21
REMARK    6  A    between atoms: CA_19  and  C_35
REMARK    7  A    between atoms: C_21  and  C_22
REMARK    8  A    between atoms: C_25  and  N_30
REMARK                            x       y       z     vdW  Elec       q    Type
REMARK                         _______ _______ _______ _____ _____    ______ ____
ROOT
ATOM      1  C   UNL     1       6.626  -1.730   1.601  0.00  0.00    +0.401 C 
ATOM      2  O   UNL     1       6.291  -0.913   2.436  0.00  0.00    -0.226 OA
ATOM      3  N   UNL     1       7.697  -2.518   1.822  0.00  0.00    -0.267 N 
ATOM      4  H   UNL     1       7.965  -3.170   1.155  0.00  0.00    +0.153 HD
ENDROOT
BRANCH   1   5
ATOM      5  O   UNL     1       5.929  -1.847   0.455  0.00  0.00    -0.449 OA
BRANCH   5   6
ATOM      6  C   UNL     1       4.806  -0.979   0.288  0.00  0.00    +0.246 C 
BRANCH   6  19
ATOM      7  C   UNL     1       0.653   1.067  -1.778  0.00  0.00    +0.001 A 
ATOM      8  C   UNL     1       1.835   1.776  -1.654  0.00  0.00    +0.000 A 
ATOM      9  C   UNL     1       3.023   1.107  -1.420  0.00  0.00    +0.005 A 
ATOM     10  C   UNL     1       3.032  -0.267  -1.310  0.00  0.00    -0.029 A 
ATOM     11  C   UNL     1       1.848  -0.989  -1.433  0.00  0.00    -0.014 A 
ATOM     12  C   UNL     1       0.652  -0.308  -1.669  0.00  0.00    +0.009 A 
ATOM     13  C   UNL     1       2.134  -2.437  -1.276  0.00  0.00    -0.014 A 
ATOM     14  C   UNL     1       1.292  -3.550  -1.316  0.00  0.00    +0.009 A 
ATOM     15  C   UNL     1       1.812  -4.814  -1.137  0.00  0.00    +0.001 A 
ATOM     16  C   UNL     1       3.168  -4.986  -0.918  0.00  0.00    +0.000 A 
ATOM     17  C   UNL     1       4.008  -3.887  -0.877  0.00  0.00    +0.005 A 
ATOM     18  C   UNL     1       3.496  -2.619  -1.055  0.00  0.00    -0.029 A 
ATOM     19  C   UNL     1       4.144  -1.257  -1.064  0.00  0.00    +0.088 C 
ENDBRANCH   6  19
ENDBRANCH   5   6
ENDBRANCH   1   5
BRANCH   3  20
ATOM     20  CA  UNL     1       8.456  -2.391   3.069  0.00  0.00    +0.193 C 
BRANCH  20  21
ATOM     21  C   UNL     1       9.508  -1.325   2.909  0.00  0.00    +0.376 C 
ATOM     22  O   UNL     1       9.868  -0.674   3.876  0.00  0.00    -0.244 OA
ATOM     23  OXT UNL     1      10.000  -1.112   1.814  0.00  0.00    -0.244 OA
ENDBRANCH  20  21
BRANCH  20  24
ATOM     24  C   UNL     1       9.128  -3.726   3.395  0.00  0.00    +0.070 C 
BRANCH  24  25
ATOM     25  C   UNL     1       8.072  -4.767   3.666  0.00  0.00    -0.025 A 
ATOM     26  C   UNL     1       7.694  -5.643   2.665  0.00  0.00    +0.007 A 
ATOM     27  C   UNL     1       6.727  -6.598   2.909  0.00  0.00    +0.025 A 
ATOM     28  C   UNL     1       6.133  -6.680   4.162  0.00  0.00    +0.050 A 
ATOM     29  C   UNL     1       6.515  -5.799   5.168  0.00  0.00    +0.080 A 
ATOM     30  C   UNL     1       7.488  -4.848   4.918  0.00  0.00    +0.064 A 
ATOM     31 CL   UNL     1       7.971  -3.751   6.173  0.00  0.00    -0.082 Cl
ATOM     32 CL   UNL     1       5.776  -5.897   6.736  0.00  0.00    -0.080 Cl
BRANCH  28  33
ATOM     33  N   UNL     1       5.154  -7.645   4.412  0.00  0.00    -0.329 N 
ATOM     34  C   UNL     1       3.708  -7.472   4.209  0.00  0.00    +0.105 C 
ATOM     35  C   UNL     1       3.024  -8.786   4.640  0.00  0.00    +0.020 C 
ATOM     36  C   UNL     1       4.068  -9.425   5.594  0.00  0.00    +0.020 C 
ATOM     37  C   UNL     1       5.401  -9.008   4.917  0.00  0.00    +0.105 C 
ENDBRANCH  28  33
ENDBRANCH  24  25
ENDBRANCH  20  24
ENDBRANCH   3  20
TORSDOF 8
