REMARK  Name = ZINC09750416
REMARK  7 active torsions:
REMARK  status: ('A' for Active; 'I' for Inactive)
REMARK    1  A    between atoms: C_1  and  C_2
REMARK    2  A    between atoms: C_2  and  C_4
REMARK    3  A    between atoms: C_2  and  S_11
REMARK    4  A    between atoms: N_9  and  C_10
REMARK    5  A    between atoms: S_11  and  C_12
REMARK    6  A    between atoms: C_16  and  C_19
REMARK    7  A    between atoms: N_26  and  C_27
REMARK                            x       y       z     vdW  Elec       q    Type
REMARK                         _______ _______ _______ _____ _____    ______ ____
ROOT
ATOM      1  C   UNL     1      -2.226  -4.703   1.314  0.00  0.00    +0.178 A 
ATOM      2  N   UNL     1      -1.033  -5.136   0.961  0.00  0.00    -0.215 NA
ATOM      3  C   UNL     1      -0.888  -6.297   0.331  0.00  0.00    +0.117 A 
ATOM      4  C   UNL     1      -1.988  -7.109   0.003  0.00  0.00    +0.081 A 
ATOM      5  C   UNL     1      -1.653  -8.349  -0.694  0.00  0.00    +0.010 A 
ATOM      6  C   UNL     1      -0.351  -8.614  -0.961  0.00  0.00    +0.057 A 
ATOM      7  S   UNL     1       0.505  -7.204  -0.288  0.00  0.00    -0.076 S 
ATOM      8  C   UNL     1      -3.269  -6.612   0.393  0.00  0.00    +0.268 A 
ATOM      9  O   UNL     1      -4.279  -7.250   0.148  0.00  0.00    -0.267 OA
ATOM     10  N   UNL     1      -3.348  -5.431   1.033  0.00  0.00    -0.255 N 
ENDROOT
BRANCH  10  11
ATOM     11  C   UNL     1      -4.602  -4.940   1.418  0.00  0.00    +0.052 A 
ATOM     12  C   UNL     1      -5.124  -5.263   2.663  0.00  0.00    +0.026 A 
ATOM     13  C   UNL     1      -6.358  -4.773   3.042  0.00  0.00    +0.002 A 
ATOM     14  C   UNL     1      -7.079  -3.970   2.177  0.00  0.00    +0.000 A 
ATOM     15  C   UNL     1      -6.564  -3.650   0.934  0.00  0.00    +0.002 A 
ATOM     16  C   UNL     1      -5.328  -4.133   0.552  0.00  0.00    +0.026 A 
ENDBRANCH  10  11
BRANCH   5  17
ATOM     17  C   UNL     1      -2.714  -9.295  -1.098  0.00  0.00    +0.021 A 
ATOM     18  C   UNL     1      -2.932  -9.875  -2.320  0.00  0.00    +0.016 A 
ATOM     19  C   UNL     1      -3.996 -10.741  -2.460  0.00  0.00    +0.008 A 
ATOM     20  C   UNL     1      -4.798 -10.982  -1.393  0.00  0.00    +0.046 A 
ATOM     21  S   UNL     1      -4.048  -9.974  -0.125  0.00  0.00    -0.097 S 
ENDBRANCH   5  17
BRANCH   1  22
ATOM     22  S   UNL     1      -2.377  -3.161   2.154  0.00  0.00    -0.075 S 
BRANCH  22  24
ATOM     23  C   UNL     1      -0.099  -2.442   0.831  0.00  0.00    +0.029 C 
ATOM     24  C   UNL     1      -0.635  -2.679   2.244  0.00  0.00    +0.137 C 
BRANCH  24  25
ATOM     25  C   UNL     1      -0.505  -1.413   3.050  0.00  0.00    +0.233 C 
ATOM     26  O   UNL     1      -1.468  -0.694   3.210  0.00  0.00    -0.274 OA
ATOM     27  N   UNL     1       0.682  -1.079   3.593  0.00  0.00    -0.239 N 
ATOM     28  C   UNL     1       0.799   0.054   4.314  0.00  0.00    +0.306 C 
ATOM     29  O   UNL     1      -0.166   0.777   4.471  0.00  0.00    -0.252 OA
ATOM     30  N   UNL     1       1.986   0.388   4.857  0.00  0.00    -0.302 N 
ATOM     31  C   UNL     1       2.113   1.619   5.641  0.00  0.00    +0.129 C 
ATOM     32  H   UNL     1       1.556  -1.731   3.448  0.00  0.00    +0.159 HD
ATOM     33  H   UNL     1       2.860  -0.264   4.712  0.00  0.00    +0.150 HD
ENDBRANCH  24  25
ENDBRANCH  22  24
ENDBRANCH   1  22
TORSDOF 5
