REMARK  Name = ZINC39930040
REMARK  6 active torsions:
REMARK  status: ('A' for Active; 'I' for Inactive)
REMARK    1  A    between atoms: C_1  and  C_2
REMARK    2  A    between atoms: C_2  and  C_29
REMARK    3  A    between atoms: N_5  and  C_9
REMARK    4  A    between atoms: C_9  and  C_10
REMARK    5  A    between atoms: C_10  and  C_12
REMARK    6  A    between atoms: C_20  and  C_22
REMARK                            x       y       z     vdW  Elec       q    Type
REMARK                         _______ _______ _______ _____ _____    ______ ____
ROOT
ATOM      1  C   UNL     1       2.871  -1.896  -1.406  0.00  0.00    +0.197 C 
ENDROOT
BRANCH   1   6
ATOM      2  C   UNL     1      -0.019   1.526   0.010  0.00  0.00    +0.047 C 
ATOM      3  C   UNL     1       0.002  -0.004   0.002  0.00  0.00    +0.135 C 
ATOM      4  C   UNL     1       0.815  -0.520  -1.169  0.00  0.00    +0.251 C 
ATOM      5  O   UNL     1       0.595  -0.342  -2.348  0.00  0.00    -0.272 OA
ATOM      6  N   UNL     1       1.833  -1.217  -0.627  0.00  0.00    -0.216 N 
ATOM      7  C   UNL     1       1.777  -1.214   0.710  0.00  0.00    +0.310 C 
ATOM      8  O   UNL     1       2.586  -1.776   1.421  0.00  0.00    -0.252 OA
ATOM      9  N   UNL     1       0.724  -0.519   1.178  0.00  0.00    -0.281 N 
ATOM     10  H   UNL     1       0.487  -0.383   2.109  0.00  0.00    +0.152 HD
BRANCH   3  11
ATOM     11  C   UNL     1      -1.401  -0.551  -0.040  0.00  0.00    -0.012 A 
ATOM     12  C   UNL     1      -2.003  -0.814  -1.256  0.00  0.00    +0.010 A 
ATOM     13  C   UNL     1      -3.291  -1.315  -1.299  0.00  0.00    +0.050 A 
ATOM     14  C   UNL     1      -3.982  -1.556  -0.121  0.00  0.00    +0.162 A 
ATOM     15  C   UNL     1      -3.376  -1.294   1.102  0.00  0.00    +0.162 A 
ATOM     16  C   UNL     1      -2.082  -0.795   1.138  0.00  0.00    +0.055 A 
ATOM     17  O   UNL     1      -4.033  -1.531   2.270  0.00  0.00    -0.485 OA
ATOM     18  C   UNL     1      -5.455  -1.683   2.189  0.00  0.00    +0.270 C 
ATOM     19  C   UNL     1      -5.771  -2.627   1.021  0.00  0.00    +0.270 C 
ATOM     20  O   UNL     1      -5.251  -2.045  -0.179  0.00  0.00    -0.485 OA
ENDBRANCH   3  11
ENDBRANCH   1   6
BRANCH   1  21
ATOM     21  C   UNL     1       4.020  -0.950  -1.644  0.00  0.00    +0.180 C 
ATOM     22  O   UNL     1       3.975   0.181  -1.205  0.00  0.00    -0.291 OA
BRANCH  21  23
ATOM     23  C   UNL     1       5.147  -1.379  -2.376  0.00  0.00    +0.032 C 
ATOM     24  C   UNL     1       5.352  -2.623  -2.944  0.00  0.00    +0.007 A 
ATOM     25  C   UNL     1       4.571  -3.802  -2.987  0.00  0.00    +0.010 A 
ATOM     26  C   UNL     1       5.028  -4.900  -3.628  0.00  0.00    +0.001 A 
ATOM     27  C   UNL     1       6.275  -4.931  -4.273  0.00  0.00    +0.002 A 
ATOM     28  C   UNL     1       7.098  -3.860  -4.291  0.00  0.00    +0.026 A 
ATOM     29  C   UNL     1       6.675  -2.622  -3.615  0.00  0.00    +0.044 A 
ATOM     30  N   UNL     1       7.256  -1.465  -3.478  0.00  0.00    -0.373 N 
ATOM     31  C   UNL     1       6.383  -0.572  -2.709  0.00  0.00    +0.144 C 
ATOM     32  H   UNL     1       8.127  -1.229  -3.832  0.00  0.00    +0.161 HD
BRANCH  31  33
ATOM     33  C   UNL     1       7.076  -0.138  -1.443  0.00  0.00    -0.021 A 
ATOM     34  C   UNL     1       7.895  -1.022  -0.766  0.00  0.00    +0.009 A 
ATOM     35  C   UNL     1       8.531  -0.625   0.395  0.00  0.00    +0.039 A 
ATOM     36  C   UNL     1       8.348   0.659   0.879  0.00  0.00    +0.123 A 
ATOM     37  C   UNL     1       7.528   1.544   0.200  0.00  0.00    +0.039 A 
ATOM     38  C   UNL     1       6.897   1.146  -0.963  0.00  0.00    +0.009 A 
ATOM     39  F   UNL     1       8.970   1.049   2.014  0.00  0.00    -0.205 F 
ENDBRANCH  31  33
ENDBRANCH  21  23
ENDBRANCH   1  21
TORSDOF 5
