REMARK  Name = ZINC63557275
REMARK  10 active torsions:
REMARK  status: ('A' for Active; 'I' for Inactive)
REMARK    1  A    between atoms: C_1  and  C_2
REMARK    2  A    between atoms: C_2  and  O_3
REMARK    3  A    between atoms: O_3  and  C_4
REMARK    4  A    between atoms: C_4  and  C_5
REMARK    5  A    between atoms: C_5  and  C_6
REMARK    6  A    between atoms: C_10  and  N_13
REMARK    7  A    between atoms: C_14  and  C_16
REMARK    8  A    between atoms: N_21  and  C_23
REMARK    9  A    between atoms: C_23  and  C_24
REMARK   10  A    between atoms: C_24  and  C_25
REMARK                            x       y       z     vdW  Elec       q    Type
REMARK                         _______ _______ _______ _____ _____    ______ ____
ROOT
ATOM      1  C   UNL     1      -4.816  -5.635  -5.469  0.00  0.00    +0.101 C 
ATOM      2  C   UNL     1      -6.162  -6.396  -5.444  0.00  0.00    +0.110 C 
ATOM      3  C   UNL     1      -6.392  -6.792  -6.886  0.00  0.00    +0.216 C 
ATOM      4  O   UNL     1      -7.454  -7.156  -7.345  0.00  0.00    -0.276 OA
ATOM      5  N   UNL     1      -5.249  -6.681  -7.584  0.00  0.00    -0.300 N 
ATOM      6  C   UNL     1      -4.145  -6.223  -6.730  0.00  0.00    +0.121 C 
ENDROOT
BRANCH   1   8
ATOM      7  N   UNL     1      -4.455  -5.559  -3.023  0.00  0.00    -0.290 N 
ATOM      8  C   UNL     1      -4.004  -5.934  -4.236  0.00  0.00    +0.220 C 
ATOM      9  O   UNL     1      -2.943  -6.514  -4.335  0.00  0.00    -0.275 OA
ATOM     10  H   UNL     1      -5.304  -5.095  -2.944  0.00  0.00    +0.151 HD
BRANCH   7  14
ATOM     11  C   UNL     1      -3.005  -3.866   0.010  0.00  0.00    +0.132 C 
ATOM     12  N   UNL     1      -4.428  -4.320  -0.082  0.00  0.00    -0.241 NA
ATOM     13  N   UNL     1      -4.484  -5.685  -0.591  0.00  0.00    -0.227 NA
ATOM     14  C   UNL     1      -3.665  -5.850  -1.825  0.00  0.00    +0.216 C 
ATOM     15  S   UNL     1      -2.357  -4.576  -1.566  0.00  0.00    -0.102 S 
ATOM     16  H   UNL     1      -4.889  -4.248   0.812  0.00  0.00    +0.142 HD
ATOM     17  H   UNL     1      -4.206  -6.347   0.118  0.00  0.00    +0.143 HD
BRANCH  11  18
ATOM     18  C   UNL     1      -2.905  -2.339   0.017  0.00  0.00    +0.059 C 
BRANCH  18  19
ATOM     19  C   UNL     1      -1.432  -1.925   0.005  0.00  0.00    +0.162 C 
BRANCH  19  20
ATOM     20  O   UNL     1      -1.339  -0.499   0.012  0.00  0.00    -0.380 OA
BRANCH  20  22
ATOM     21  C   UNL     1      -0.019   1.526   0.010  0.00  0.00    +0.034 C 
ATOM     22  C   UNL     1       0.002  -0.004   0.002  0.00  0.00    +0.156 C 
ENDBRANCH  20  22
ENDBRANCH  19  20
ENDBRANCH  18  19
ENDBRANCH  11  18
ENDBRANCH   7  14
ENDBRANCH   1   8
BRANCH   5  23
ATOM     23  C   UNL     1      -5.120  -6.977  -9.012  0.00  0.00    +0.112 C 
BRANCH  23  24
ATOM     24  C   UNL     1      -5.400  -5.710  -9.824  0.00  0.00    +0.052 C 
BRANCH  24  25
ATOM     25  C   UNL     1      -5.268  -6.016 -11.293  0.00  0.00    -0.040 C 
ATOM     26  C   UNL     1      -6.263  -6.342 -12.149  0.00  0.00    +0.002 A 
ATOM     27  C   UNL     1      -7.711  -6.505 -11.973  0.00  0.00    +0.048 A 
ATOM     28  C   UNL     1      -8.468  -6.846 -13.042  0.00  0.00    +0.124 A 
ATOM     29  C   UNL     1      -7.903  -7.047 -14.312  0.00  0.00    +0.040 A 
ATOM     30  C   UNL     1      -6.581  -6.916 -14.550  0.00  0.00    +0.029 A 
ATOM     31  C   UNL     1      -5.692  -6.560 -13.497  0.00  0.00    +0.043 A 
ATOM     32  N   UNL     1      -4.395  -6.375 -13.476  0.00  0.00    -0.380 N 
ATOM     33  C   UNL     1      -3.996  -6.013 -12.112  0.00  0.00    +0.144 C 
ATOM     34  F   UNL     1      -9.801  -6.998 -12.884  0.00  0.00    -0.205 F 
ATOM     35  H   UNL     1      -3.799  -6.460 -14.237  0.00  0.00    +0.160 HD
ENDBRANCH  24  25
ENDBRANCH  23  24
ENDBRANCH   5  23
TORSDOF 9
