REMARK  Name = ZINC22240853
REMARK  7 active torsions:
REMARK  status: ('A' for Active; 'I' for Inactive)
REMARK    1  A    between atoms: C_1  and  C_2
REMARK    2  A    between atoms: C_2  and  C_3
REMARK    3  A    between atoms: C_3  and  N_4
REMARK    4  A    between atoms: C_5  and  C_26
REMARK    5  A    between atoms: C_8  and  S_9
REMARK    6  A    between atoms: S_9  and  C_10
REMARK    7  A    between atoms: C_10  and  C_11
REMARK                            x       y       z     vdW  Elec       q    Type
REMARK                         _______ _______ _______ _____ _____    ______ ____
ROOT
ATOM      1  C   UNL     1      -0.721   2.493   1.067  0.00  0.00    +0.143 A 
ATOM      2  N   UNL     1      -2.008   2.792   1.092  0.00  0.00    -0.216 NA
ATOM      3  C   UNL     1      -2.590   3.311   2.161  0.00  0.00    +0.128 A 
ATOM      4  C   UNL     1      -1.806   3.567   3.320  0.00  0.00    +0.051 A 
ATOM      5  C   UNL     1      -2.232   4.133   4.604  0.00  0.00    -0.025 A 
ATOM      6  C   UNL     1      -1.280   4.279   5.548  0.00  0.00    -0.004 A 
ATOM      7  S   UNL     1       0.212   3.674   4.801  0.00  0.00    -0.073 S 
ATOM      8  C   UNL     1      -0.443   3.228   3.215  0.00  0.00    +0.114 A 
ATOM      9  N   UNL     1       0.056   2.708   2.111  0.00  0.00    -0.224 NA
ATOM     10  C   UNL     1      -1.433   4.842   6.926  0.00  0.00    +0.043 C 
ATOM     11  C   UNL     1      -2.637   4.184   7.613  0.00  0.00    +0.005 C 
ATOM     12  C   UNL     1      -3.880   5.012   7.299  0.00  0.00    +0.001 C 
ATOM     13  C   UNL     1      -3.762   5.623   5.904  0.00  0.00    +0.005 C 
ATOM     14  C   UNL     1      -3.686   4.527   4.848  0.00  0.00    +0.037 C 
ATOM     15  N   UNL     1      -3.942   3.606   2.150  0.00  0.00    -0.343 N 
ATOM     16  H   UNL     1      -4.418   4.037   3.042  0.00  0.00    +0.144 HD
ATOM     17  H   UNL     1      -4.540   3.409   1.248  0.00  0.00    +0.144 HD
ENDROOT
BRANCH   1  18
ATOM     18  C   UNL     1      -0.127   1.898  -0.184  0.00  0.00    +0.153 C 
BRANCH  18  19
ATOM     19  S   UNL     1      -0.235   0.093  -0.104  0.00  0.00    -0.078 S 
BRANCH  19  24
ATOM     20  N   UNL     1       0.702  -1.585  -2.134  0.00  0.00    -0.302 N 
ATOM     21  C   UNL     1       1.311  -1.419  -3.357  0.00  0.00    +0.165 A 
ATOM     22  N   UNL     1       1.452  -0.128  -3.546  0.00  0.00    -0.128 NA
ATOM     23  N   UNL     1       0.976   0.516  -2.541  0.00  0.00    -0.122 NA
ATOM     24  C   UNL     1       0.509  -0.326  -1.645  0.00  0.00    +0.192 A 
BRANCH  21  25
ATOM     25  C   UNL     1       1.727  -2.493  -4.284  0.00  0.00    +0.022 A 
ATOM     26  C   UNL     1       2.661  -2.246  -5.298  0.00  0.00    +0.031 A 
ATOM     27  C   UNL     1       3.025  -3.278  -6.137  0.00  0.00    +0.111 A 
ATOM     28  N   UNL     1       2.498  -4.481  -6.000  0.00  0.00    -0.263 NA
ATOM     29  C   UNL     1       1.612  -4.755  -5.062  0.00  0.00    +0.111 A 
ATOM     30  C   UNL     1       1.195  -3.784  -4.176  0.00  0.00    +0.031 A 
ENDBRANCH  21  25
BRANCH  20  31
ATOM     31  C   UNL     1       0.339  -2.850  -1.491  0.00  0.00    +0.125 C 
BRANCH  31  33
ATOM     32  C   UNL     1      -1.499  -4.506  -1.140  0.00  0.00    +0.005 C 
ATOM     33  C   UNL     1      -1.119  -3.185  -1.812  0.00  0.00    +0.018 C 
ENDBRANCH  31  33
ENDBRANCH  20  31
ENDBRANCH  19  24
ENDBRANCH  18  19
ENDBRANCH   1  18
TORSDOF 6
