REMARK  Name = ZINC10400828
REMARK  8 active torsions:
REMARK  status: ('A' for Active; 'I' for Inactive)
REMARK    1  A    between atoms: C_1  and  C_2
REMARK    2  A    between atoms: C_2  and  C_3
REMARK    3  A    between atoms: C_2  and  C_4
REMARK    4  A    between atoms: C_4  and  C_6
REMARK    5  A    between atoms: C_4  and  N_13
REMARK    6  A    between atoms: N_16  and  C_17
REMARK    7  A    between atoms: C_17  and  C_18
REMARK    8  A    between atoms: N_20  and  C_21
REMARK                            x       y       z     vdW  Elec       q    Type
REMARK                         _______ _______ _______ _____ _____    ______ ____
ROOT
ATOM      1  N   UNL     1       0.051  -0.394   2.536  0.00  0.00    -0.292 N 
ATOM      2  C   UNL     1      -0.995  -1.084   3.030  0.00  0.00    +0.300 C 
ATOM      3  O   UNL     1      -1.951  -0.491   3.492  0.00  0.00    -0.253 OA
ATOM      4  N   UNL     1      -0.982  -2.432   3.013  0.00  0.00    -0.291 N 
ATOM      5  H   UNL     1       0.814  -0.867   2.167  0.00  0.00    +0.151 HD
ATOM      6  H   UNL     1      -0.220  -2.905   2.645  0.00  0.00    +0.151 HD
ENDROOT
BRANCH   1   7
ATOM      7  C   UNL     1       0.037   1.071   2.555  0.00  0.00    +0.107 C 
BRANCH   7   8
ATOM      8  C   UNL     1       1.453   1.587   2.547  0.00  0.00    -0.027 A 
ATOM      9  C   UNL     1       2.410   0.968   1.765  0.00  0.00    +0.007 A 
ATOM     10  C   UNL     1       3.708   1.444   1.754  0.00  0.00    +0.020 A 
ATOM     11  C   UNL     1       4.051   2.534   2.534  0.00  0.00    +0.041 A 
ATOM     12  C   UNL     1       3.094   3.149   3.322  0.00  0.00    +0.020 A 
ATOM     13  C   UNL     1       1.796   2.675   3.328  0.00  0.00    +0.007 A 
ATOM     14 CL   UNL     1       5.683   3.128   2.527  0.00  0.00    -0.084 Cl
ENDBRANCH   7   8
BRANCH   7  16
ATOM     15  C   UNL     1       0.013   1.103   0.056  0.00  0.00    +0.009 C 
ATOM     16  C   UNL     1      -0.701   1.590   1.319  0.00  0.00    +0.008 C 
ATOM     17  C   UNL     1      -0.715   3.119   1.339  0.00  0.00    +0.009 C 
ENDBRANCH   7  16
ENDBRANCH   1   7
BRANCH   4  18
ATOM     18  C   UNL     1      -2.120  -3.182   3.551  0.00  0.00    +0.202 C 
BRANCH  18  19
ATOM     19  C   UNL     1      -1.857  -4.660   3.413  0.00  0.00    +0.234 C 
ATOM     20  O   UNL     1      -0.822  -5.048   2.915  0.00  0.00    -0.274 OA
ATOM     21  N   UNL     1      -2.773  -5.550   3.844  0.00  0.00    -0.282 N 
ATOM     22  H   UNL     1      -3.571  -5.242   4.300  0.00  0.00    +0.155 HD
BRANCH  21  23
ATOM     23  C   UNL     1      -2.572  -6.921   3.631  0.00  0.00    +0.072 A 
ATOM     24  C   UNL     1      -1.289  -7.449   3.674  0.00  0.00    +0.029 A 
ATOM     25  C   UNL     1      -1.091  -8.801   3.469  0.00  0.00    +0.043 A 
ATOM     26  C   UNL     1      -2.171  -9.630   3.212  0.00  0.00    +0.161 A 
ATOM     27  C   UNL     1      -3.453  -9.105   3.163  0.00  0.00    +0.195 A 
ATOM     28  C   UNL     1      -3.655  -7.751   3.372  0.00  0.00    +0.182 A 
ATOM     29  F   UNL     1      -4.905  -7.239   3.325  0.00  0.00    -0.200 F 
ATOM     30  F   UNL     1      -4.505  -9.914   2.910  0.00  0.00    -0.199 F 
ATOM     31  F   UNL     1      -1.974 -10.950   3.007  0.00  0.00    -0.202 F 
ENDBRANCH  21  23
ENDBRANCH  18  19
ENDBRANCH   4  18
TORSDOF 6
