REMARK  Name = ZINC22853650
REMARK  13 active torsions:
REMARK  status: ('A' for Active; 'I' for Inactive)
REMARK    1  A    between atoms: C_1  and  C_2
REMARK    2  A    between atoms: C_2  and  C_3
REMARK    3  A    between atoms: C_3  and  C_5
REMARK    4  A    between atoms: C_3  and  C_6
REMARK    5  A    between atoms: C_11  and  O_12
REMARK    6  A    between atoms: O_12  and  C_13
REMARK    7  A    between atoms: C_13  and  C_14
REMARK    8  A    between atoms: C_14  and  C_16
REMARK    9  A    between atoms: C_14  and  O_40
REMARK   10  A    between atoms: C_16  and  N_17
REMARK   11  A    between atoms: N_20  and  C_23
REMARK   12  A    between atoms: C_23  and  C_24
REMARK   13  A    between atoms: C_24  and  N_25
REMARK                            x       y       z     vdW  Elec       q    Type
REMARK                         _______ _______ _______ _____ _____    ______ ____
ROOT
ATOM      1  N   UNL     1       7.089   9.171  -2.200  0.00  0.00    -0.303 NA
ATOM      2  C   UNL     1       7.268   7.825  -2.763  0.00  0.00    +0.066 C 
ATOM      3  C   UNL     1       5.915   7.111  -2.810  0.00  0.00    -0.063 C 
ATOM      4  N   UNL     1       5.353   7.042  -1.454  0.00  0.00    +0.382 N 
ATOM      5  C   UNL     1       5.175   8.387  -0.891  0.00  0.00    -0.063 C 
ATOM      6  C   UNL     1       6.528   9.101  -0.844  0.00  0.00    +0.066 C 
ATOM      7  H   UNL     1       6.068   6.499  -0.817  0.00  0.00    -0.082 HD
ENDROOT
BRANCH   1   8
ATOM      8  C   UNL     1       8.355   9.917  -2.208  0.00  0.00    +0.119 C 
BRANCH   8   9
ATOM      9  C   UNL     1       8.086  11.381  -1.854  0.00  0.00    +0.166 C 
BRANCH   9  10
ATOM     10  O   UNL     1       7.193  11.947  -2.815  0.00  0.00    -0.387 OA
ATOM     11  H   UNL     1       6.189  11.519  -2.953  0.00  0.00    +0.210 HD
ENDBRANCH   9  10
BRANCH   9  12
ATOM     12  C   UNL     1       9.404  12.158  -1.862  0.00  0.00    +0.261 C 
BRANCH  12  13
ATOM     13  O   UNL     1       9.171  13.496  -1.419  0.00  0.00    -0.489 OA
BRANCH  13  19
ATOM     14  C   UNL     1      10.092  15.638  -0.946  0.00  0.00    -0.003 A 
ATOM     15  C   UNL     1      11.187  16.479  -0.894  0.00  0.00    +0.007 A 
ATOM     16  C   UNL     1      12.436  16.013  -1.262  0.00  0.00    +0.001 A 
ATOM     17  C   UNL     1      12.592  14.705  -1.682  0.00  0.00    +0.004 A 
ATOM     18  C   UNL     1      11.502  13.859  -1.730  0.00  0.00    +0.046 A 
ATOM     19  C   UNL     1      10.246  14.325  -1.367  0.00  0.00    +0.124 A 
BRANCH  14  20
ATOM     20  C   UNL     1       8.731  16.146  -0.544  0.00  0.00    +0.019 C 
ATOM     21  C   UNL     1       8.771  16.613   0.913  0.00  0.00    +0.012 C 
BRANCH  20  23
ATOM     22  C   UNL     1       6.908  17.754  -1.120  0.00  0.00    +0.004 C 
ATOM     23  C   UNL     1       8.338  17.319  -1.445  0.00  0.00    +0.004 C 
ENDBRANCH  20  23
ENDBRANCH  14  20
ENDBRANCH  13  19
ENDBRANCH  12  13
ENDBRANCH   9  12
ENDBRANCH   8   9
ENDBRANCH   1   8
BRANCH   4  24
ATOM     24  C   UNL     1       4.088   6.295  -1.446  0.00  0.00    -0.059 C 
BRANCH  24  25
ATOM     25  C   UNL     1       3.662   6.029  -0.001  0.00  0.00    +0.098 C 
BRANCH  25  26
ATOM     26  N   UNL     1       2.400   5.285   0.007  0.00  0.00    -0.236 N 
ATOM     27  C   UNL     1       2.441   3.939  -0.000  0.00  0.00    +0.254 C 
ATOM     28  O   UNL     1       3.514   3.366  -0.013  0.00  0.00    -0.270 OA
ATOM     29  C   UNL     1       1.196   3.157   0.008  0.00  0.00    +0.046 A 
ATOM     30  C   UNL     1       1.191   1.770   0.000  0.00  0.00    +0.014 A 
ATOM     31  C   UNL     1      -0.013   1.076   0.008  0.00  0.00    +0.001 A 
ATOM     32  C   UNL     1      -1.213   1.726   0.017  0.00  0.00    +0.008 A 
ATOM     33  C   UNL     1      -1.253   3.131   0.030  0.00  0.00    -0.016 A 
ATOM     34  C   UNL     1      -0.038   3.847   0.023  0.00  0.00    +0.006 A 
ATOM     35  C   UNL     1      -0.044   5.261   0.030  0.00  0.00    +0.046 A 
ATOM     36  C   UNL     1      -1.260   5.928   0.044  0.00  0.00    +0.014 A 
ATOM     37  C   UNL     1      -2.450   5.211   0.051  0.00  0.00    +0.001 A 
ATOM     38  C   UNL     1      -2.463   3.846   0.044  0.00  0.00    +0.008 A 
ATOM     39  C   UNL     1       1.242   5.972   0.022  0.00  0.00    +0.254 C 
ATOM     40  O   UNL     1       1.261   7.188   0.029  0.00  0.00    -0.270 OA
ENDBRANCH  25  26
ENDBRANCH  24  25
ENDBRANCH   4  24
TORSDOF 11
