REMARK  Name = ZINC17365242
REMARK  9 active torsions:
REMARK  status: ('A' for Active; 'I' for Inactive)
REMARK    1  A    between atoms: C_1  and  O_2
REMARK    2  A    between atoms: O_2  and  C_3
REMARK    3  A    between atoms: C_7  and  C_13
REMARK    4  A    between atoms: C_8  and  O_9
REMARK    5  A    between atoms: O_9  and  C_10
REMARK    6  A    between atoms: C_14  and  C_15
REMARK    7  A    between atoms: N_17  and  C_18
REMARK    8  A    between atoms: C_21  and  S_24
REMARK    9  A    between atoms: S_24  and  N_27
REMARK                            x       y       z     vdW  Elec       q    Type
REMARK                         _______ _______ _______ _____ _____    ______ ____
ROOT
ATOM      1  C   UNL     1      -2.354  -0.107  -0.573  0.00  0.00    +0.241 C 
ATOM      2  O   UNL     1      -3.331  -0.600  -1.106  0.00  0.00    -0.270 OA
ATOM      3  N   UNL     1      -2.446   1.100   0.020  0.00  0.00    -0.282 N 
ATOM      4  H   UNL     1      -1.687   1.463   0.502  0.00  0.00    +0.155 HD
ENDROOT
BRANCH   3   5
ATOM      5  C   UNL     1      -3.637   1.829  -0.061  0.00  0.00    +0.034 A 
ATOM      6  C   UNL     1      -3.600   3.215  -0.144  0.00  0.00    +0.025 A 
ATOM      7  C   UNL     1      -4.778   3.931  -0.229  0.00  0.00    +0.031 A 
ATOM      8  C   UNL     1      -5.993   3.271  -0.221  0.00  0.00    +0.113 A 
ATOM      9  C   UNL     1      -6.033   1.892  -0.133  0.00  0.00    +0.031 A 
ATOM     10  C   UNL     1      -4.859   1.169  -0.053  0.00  0.00    +0.025 A 
BRANCH   8  11
ATOM     11  S   UNL     1      -7.493   4.190  -0.323  0.00  0.00    +0.100 S 
ATOM     12  O   UNL     1      -7.171   5.426  -0.946  0.00  0.00    -0.146 OA
ATOM     13  O   UNL     1      -8.475   3.306  -0.846  0.00  0.00    -0.146 OA
BRANCH  11  14
ATOM     14  N   UNL     1      -7.955   4.547   1.227  0.00  0.00    -0.118 NA
ATOM     15  C   UNL     1      -9.037   5.223   1.439  0.00  0.00    +0.117 C 
ATOM     16  C   UNL     1      -9.863   5.679   0.341  0.00  0.00    +0.073 C 
ATOM     17  C   UNL     1     -10.141   7.189   0.397  0.00  0.00    +0.008 C 
ATOM     18  C   UNL     1     -11.219   7.387   1.425  0.00  0.00    +0.002 C 
ATOM     19  C   UNL     1     -10.661   7.746   2.825  0.00  0.00    +0.019 C 
ATOM     20  C   UNL     1      -9.401   6.918   3.130  0.00  0.00    +0.102 C 
ATOM     21  N   UNL     1      -9.454   5.534   2.743  0.00  0.00    -0.331 N 
ATOM     22  H   UNL     1      -9.764   4.846   3.352  0.00  0.00    +0.147 HD
ENDBRANCH  11  14
ENDBRANCH   8  11
ENDBRANCH   3   5
BRANCH   1  24
ATOM     23  C   UNL     1      -0.989  -2.036  -1.164  0.00  0.00    +0.017 C 
ATOM     24  C   UNL     1      -1.080  -0.825  -0.575  0.00  0.00    +0.068 C 
BRANCH  23  29
ATOM     25  C   UNL     1       1.605  -4.694  -1.762  0.00  0.00    +0.162 A 
ATOM     26  C   UNL     1       2.711  -4.122  -1.153  0.00  0.00    +0.049 A 
ATOM     27  C   UNL     1       2.613  -2.879  -0.550  0.00  0.00    +0.004 A 
ATOM     28  C   UNL     1       1.418  -2.194  -0.554  0.00  0.00    +0.012 A 
ATOM     29  C   UNL     1       0.290  -2.760  -1.161  0.00  0.00    +0.021 A 
ATOM     30  C   UNL     1       0.390  -4.019  -1.771  0.00  0.00    +0.175 A 
BRANCH  25  32
ATOM     31  C   UNL     1       2.988  -6.551  -2.305  0.00  0.00    +0.277 C 
ATOM     32  O   UNL     1       1.709  -5.915  -2.351  0.00  0.00    -0.491 OA
ENDBRANCH  25  32
BRANCH  30  33
ATOM     33  O   UNL     1      -0.696  -4.576  -2.368  0.00  0.00    -0.430 OA
BRANCH  33  34
ATOM     34  C   UNL     1      -0.896  -4.284  -3.752  0.00  0.00    +0.541 C 
ATOM     35  F   UNL     1      -1.042  -2.903  -3.921  0.00  0.00    -0.166 F 
ATOM     36  F   UNL     1       0.207  -4.730  -4.487  0.00  0.00    -0.166 F 
ENDBRANCH  33  34
ENDBRANCH  30  33
ENDBRANCH  23  29
ENDBRANCH   1  24
TORSDOF 8
