REMARK  Name = ZINC42873791
REMARK  5 active torsions:
REMARK  status: ('A' for Active; 'I' for Inactive)
REMARK    1  A    between atoms: C_5  and  C_6
REMARK    2  A    between atoms: C_6  and  O_7
REMARK    3  A    between atoms: O_7  and  C_8
REMARK    4  A    between atoms: C_13  and  C_14
REMARK    5  A    between atoms: C_14  and  N_15
REMARK                            x       y       z     vdW  Elec       q    Type
REMARK                         _______ _______ _______ _____ _____    ______ ____
ROOT
ATOM      1  C   UNL     1      -2.573  -2.128  -1.509  0.00  0.00    +0.126 A 
ATOM      2  C   UNL     1      -3.214  -2.671  -0.405  0.00  0.00    +0.095 A 
ATOM      3  C   UNL     1      -4.271  -3.549  -0.580  0.00  0.00    +0.170 A 
ATOM      4  C   UNL     1      -4.687  -3.885  -1.866  0.00  0.00    +0.167 A 
ATOM      5  C   UNL     1      -4.044  -3.341  -2.965  0.00  0.00    +0.054 A 
ATOM      6  C   UNL     1      -2.993  -2.461  -2.788  0.00  0.00    -0.019 A 
ATOM      7  O   UNL     1      -5.734  -4.758  -1.771  0.00  0.00    -0.453 OA
ATOM      8  C   UNL     1      -5.689  -5.267  -0.425  0.00  0.00    +0.466 C 
ATOM      9  O   UNL     1      -5.056  -4.209   0.320  0.00  0.00    -0.452 OA
ENDROOT
BRANCH   1  10
ATOM     10  O   UNL     1      -1.535  -1.266  -1.337  0.00  0.00    -0.487 OA
BRANCH  10  11
ATOM     11  C   UNL     1      -1.156  -0.969   0.009  0.00  0.00    +0.271 C 
BRANCH  11  16
ATOM     12  C   UNL     1      -0.016   1.351   0.009  0.00  0.00    +0.016 A 
ATOM     13  C   UNL     1       1.183   2.038   0.002  0.00  0.00    +0.023 A 
ATOM     14  C   UNL     1       2.343   1.335  -0.013  0.00  0.00    +0.055 A 
ATOM     15  S   UNL     1       1.753  -0.350  -0.017  0.00  0.00    -0.083 S 
ATOM     16  C   UNL     1       0.002  -0.004   0.002  0.00  0.00    +0.028 A 
ATOM     17 BR   UNL     1       4.123   1.974  -0.027  0.00  0.00    -0.043 Br
ENDBRANCH  11  16
ENDBRANCH  10  11
ENDBRANCH   1  10
BRANCH   6  18
ATOM     18  C   UNL     1      -2.299  -1.866  -3.986  0.00  0.00    -0.047 C 
BRANCH  18  19
ATOM     19  N   UNL     1      -1.052  -2.599  -4.244  0.00  0.00    +0.381 N 
ATOM     20  H   UNL     1      -0.449  -2.531  -3.438  0.00  0.00    -0.090 HD
ATOM     21  H   UNL     1      -1.264  -3.569  -4.425  0.00  0.00    -0.090 HD
ATOM     22  H   UNL     1      -0.588  -2.201  -5.046  0.00  0.00    -0.090 HD
ENDBRANCH  18  19
ENDBRANCH   6  18
TORSDOF 5
