REMARK  Name = ZINC57341276
REMARK  4 active torsions:
REMARK  status: ('A' for Active; 'I' for Inactive)
REMARK    1  A    between atoms: C_7  and  S_15
REMARK    2  A    between atoms: C_8  and  N_12
REMARK    3  A    between atoms: S_15  and  C_16
REMARK    4  A    between atoms: C_21  and  N_22
REMARK                            x       y       z     vdW  Elec       q    Type
REMARK                         _______ _______ _______ _____ _____    ______ ____
ROOT
ATOM      1  C   UNL     1      -0.081   1.323   0.548  0.00  0.00    +0.001 A 
ATOM      2  C   UNL     1       1.088   2.070   0.542  0.00  0.00    +0.004 A 
ATOM      3  C   UNL     1       2.312   1.459   0.365  0.00  0.00    +0.047 A 
ATOM      4  C   UNL     1       2.381   0.083   0.192  0.00  0.00    +0.140 A 
ATOM      5  C   UNL     1       1.199  -0.673   0.199  0.00  0.00    +0.034 A 
ATOM      6  C   UNL     1      -0.033  -0.043   0.379  0.00  0.00    +0.013 A 
ATOM      7  C   UNL     1       1.287  -2.132   0.015  0.00  0.00    +0.061 A 
ATOM      8  C   UNL     1       2.542  -2.687  -0.158  0.00  0.00    +0.224 A 
ATOM      9  C   UNL     1       3.669  -1.858  -0.152  0.00  0.00    +0.369 A 
ATOM     10  O   UNL     1       4.771  -2.357  -0.305  0.00  0.00    -0.243 OA
ATOM     11  O   UNL     1       3.572  -0.530   0.017  0.00  0.00    -0.421 OA
ENDROOT
BRANCH   8  12
ATOM     12  N   UNL     1       2.691  -4.148  -0.348  0.00  0.00    +0.065 N 
ATOM     13  O   UNL     1       1.711  -4.848  -0.451  0.00  0.00    -0.126 OA
ATOM     14  O   UNL     1       3.794  -4.641  -0.399  0.00  0.00    -0.126 OA
ENDBRANCH   8  12
BRANCH   7  15
ATOM     15  S   UNL     1      -0.161  -3.138   0.014  0.00  0.00    -0.084 S 
BRANCH  15  16
ATOM     16  C   UNL     1      -1.020  -2.648  -1.444  0.00  0.00    +0.033 A 
ATOM     17  C   UNL     1      -0.428  -1.765  -2.337  0.00  0.00    +0.017 A 
ATOM     18  C   UNL     1      -1.104  -1.383  -3.480  0.00  0.00    +0.001 A 
ATOM     19  C   UNL     1      -2.369  -1.878  -3.739  0.00  0.00    +0.002 A 
ATOM     20  C   UNL     1      -2.966  -2.758  -2.855  0.00  0.00    +0.024 A 
ATOM     21  C   UNL     1      -2.294  -3.151  -1.708  0.00  0.00    +0.038 A 
BRANCH  21  22
ATOM     22  N   UNL     1      -2.894  -4.046  -0.815  0.00  0.00    -0.357 N 
ATOM     23  H   UNL     1      -2.424  -4.317  -0.011  0.00  0.00    +0.142 HD
ATOM     24  H   UNL     1      -3.780  -4.395  -1.000  0.00  0.00    +0.142 HD
ENDBRANCH  21  22
ENDBRANCH  15  16
ENDBRANCH   7  15
TORSDOF 4
