REMARK  Name = ZINC13207399
REMARK  16 active torsions:
REMARK  status: ('A' for Active; 'I' for Inactive)
REMARK    1  A    between atoms: C_1  and  C_2
REMARK    2  A    between atoms: C_2  and  N_3
REMARK    3  A    between atoms: N_3  and  C_4
REMARK    4  A    between atoms: C_4  and  C_5
REMARK    5  A    between atoms: N_10  and  C_11
REMARK    6  A    between atoms: C_11  and  C_12
REMARK    7  A    between atoms: C_12  and  C_13
REMARK    8  A    between atoms: C_13  and  N_64
REMARK    9  A    between atoms: C_14  and  C_15
REMARK   10  A    between atoms: C_14  and  N_64
REMARK   11  A    between atoms: C_15  and  C_17
REMARK   12  A    between atoms: C_15  and  O_25
REMARK   13  A    between atoms: C_20  and  O_24
REMARK   14  A    between atoms: C_21  and  O_23
REMARK   15  A    between atoms: N_28  and  C_33
REMARK   16  A    between atoms: N_31  and  C_32
REMARK                            x       y       z     vdW  Elec       q    Type
REMARK                         _______ _______ _______ _____ _____    ______ ____
ROOT
ATOM      1  C   UNL     1      -2.123   2.150  -3.752  0.00  0.00    +0.123 C 
ENDROOT
BRANCH   1   7
ATOM      2  N   UNL     1      -1.312  -0.715  -3.192  0.00  0.00    -0.301 N 
ATOM      3  C   UNL     1      -0.425   0.308  -3.438  0.00  0.00    +0.201 A 
ATOM      4  N   UNL     1       0.886   0.189  -3.465  0.00  0.00    -0.196 NA
ATOM      5  C   UNL     1       1.446   1.370  -3.731  0.00  0.00    +0.170 A 
ATOM      6  C   UNL     1       0.420   2.295  -3.888  0.00  0.00    +0.153 A 
ATOM      7  N   UNL     1      -0.766   1.599  -3.692  0.00  0.00    -0.306 N 
ATOM      8  C   UNL     1       0.739   3.631  -4.184  0.00  0.00    +0.282 A 
ATOM      9  O   UNL     1      -0.144   4.460  -4.323  0.00  0.00    -0.265 OA
ATOM     10  N   UNL     1       2.034   3.988  -4.314  0.00  0.00    -0.262 N 
ATOM     11  C   UNL     1       3.019   3.085  -4.163  0.00  0.00    +0.333 A 
ATOM     12  O   UNL     1       4.174   3.442  -4.287  0.00  0.00    -0.246 OA
ATOM     13  N   UNL     1       2.757   1.797  -3.872  0.00  0.00    -0.280 N 
ATOM     14  C   UNL     1       3.858   0.843  -3.717  0.00  0.00    +0.155 C 
ATOM     15  C   UNL     1       2.372   5.379  -4.622  0.00  0.00    +0.157 C 
BRANCH   2  17
ATOM     16  C   UNL     1      -2.075  -2.951  -3.833  0.00  0.00    +0.024 C 
ATOM     17  C   UNL     1      -0.955  -1.917  -3.956  0.00  0.00    +0.104 C 
ENDBRANCH   2  17
BRANCH   2  18
ATOM     18  C   UNL     1      -1.391  -1.008  -1.754  0.00  0.00    +0.104 C 
ATOM     19  C   UNL     1      -0.004  -1.391  -1.236  0.00  0.00    +0.024 C 
ENDBRANCH   2  18
ENDBRANCH   1   7
BRANCH   1  20
ATOM     20  C   UNL     1      -2.573   2.553  -2.347  0.00  0.00    +0.003 C 
BRANCH  20  21
ATOM     21  C   UNL     1      -3.945   3.224  -2.424  0.00  0.00    -0.081 C 
BRANCH  21  22
ATOM     22  N   UNL     1      -4.372   3.609  -1.065  0.00  0.00    +0.381 N 
ATOM     23  H   UNL     1      -3.686   4.262  -0.667  0.00  0.00    -0.086 HD
ATOM     24  H   UNL     1      -4.428   2.770  -0.477  0.00  0.00    -0.086 HD
BRANCH  22  25
ATOM     25  C   UNL     1      -5.695   4.261  -1.109  0.00  0.00    -0.046 C 
BRANCH  25  26
ATOM     26  C   UNL     1      -6.110   4.648   0.311  0.00  0.00    +0.128 C 
BRANCH  26  27
ATOM     27  C   UNL     1      -7.512   5.203   0.291  0.00  0.00    -0.017 A 
ATOM     28  C   UNL     1      -7.729   6.514  -0.088  0.00  0.00    +0.010 A 
ATOM     29  C   UNL     1      -9.013   7.026  -0.114  0.00  0.00    +0.049 A 
ATOM     30  C   UNL     1     -10.085   6.227   0.252  0.00  0.00    +0.158 A 
ATOM     31  C   UNL     1      -9.865   4.909   0.639  0.00  0.00    +0.159 A 
ATOM     32  C   UNL     1      -8.576   4.400   0.657  0.00  0.00    +0.055 A 
BRANCH  31  33
ATOM     33  O   UNL     1     -10.914   4.120   0.999  0.00  0.00    -0.503 OA
ATOM     34  H   UNL     1     -11.125   4.154   1.942  0.00  0.00    +0.292 HD
ENDBRANCH  31  33
BRANCH  30  35
ATOM     35  O   UNL     1     -11.348   6.731   0.233  0.00  0.00    -0.503 OA
ATOM     36  H   UNL     1     -11.621   7.138   1.067  0.00  0.00    +0.292 HD
ENDBRANCH  30  35
ENDBRANCH  26  27
BRANCH  26  37
ATOM     37  O   UNL     1      -5.213   5.639   0.817  0.00  0.00    -0.389 OA
ATOM     38  H   UNL     1      -5.191   6.453   0.294  0.00  0.00    +0.210 HD
ENDBRANCH  26  37
ENDBRANCH  25  26
ENDBRANCH  22  25
ENDBRANCH  21  22
ENDBRANCH  20  21
ENDBRANCH   1  20
TORSDOF 12
