REMARK  Name = ZINC37246086
REMARK  14 active torsions:
REMARK  status: ('A' for Active; 'I' for Inactive)
REMARK    1  A    between atoms: C_4  and  O_10
REMARK    2  A    between atoms: C_5  and  N_7
REMARK    3  A    between atoms: O_10  and  C_11
REMARK    4  A    between atoms: C_13  and  O_42
REMARK    5  A    between atoms: C_15  and  O_41
REMARK    6  A    between atoms: C_17  and  O_24
REMARK    7  A    between atoms: C_19  and  C_22
REMARK    8  A    between atoms: C_22  and  O_23
REMARK    9  A    between atoms: O_24  and  C_25
REMARK   10  A    between atoms: C_27  and  O_40
REMARK   11  A    between atoms: C_29  and  O_39
REMARK   12  A    between atoms: C_31  and  O_38
REMARK   13  A    between atoms: C_33  and  C_36
REMARK   14  A    between atoms: C_36  and  O_37
REMARK                            x       y       z     vdW  Elec       q    Type
REMARK                         _______ _______ _______ _____ _____    ______ ____
ROOT
ATOM      1  C   UNL     1       4.054   1.136  -1.831  0.00  0.00    +0.339 C 
ATOM      2  C   UNL     1       5.290   1.142  -0.929  0.00  0.00    +0.214 C 
ATOM      3  C   UNL     1       5.735  -0.302  -0.675  0.00  0.00    +0.180 C 
ATOM      4  C   UNL     1       6.000  -0.987  -2.019  0.00  0.00    +0.184 C 
ATOM      5  C   UNL     1       4.736  -0.911  -2.880  0.00  0.00    +0.179 C 
ATOM      6  O   UNL     1       4.360   0.457  -3.052  0.00  0.00    -0.331 OA
ENDROOT
BRANCH   3   7
ATOM      7  O   UNL     1       6.930  -0.303   0.108  0.00  0.00    -0.386 OA
ATOM      8  H   UNL     1       6.808   0.015   1.013  0.00  0.00    +0.210 HD
ENDBRANCH   3   7
BRANCH   2   9
ATOM      9  O   UNL     1       4.970   1.770   0.314  0.00  0.00    -0.383 OA
ATOM     10  H   UNL     1       4.676   2.687   0.228  0.00  0.00    +0.210 HD
ENDBRANCH   2   9
BRANCH   1  11
ATOM     11  O   UNL     1       2.982   0.462  -1.168  0.00  0.00    -0.459 OA
BRANCH  11  15
ATOM     12  C   UNL     1      -0.682   0.449  -3.063  0.00  0.00    +0.002 A 
ATOM     13  C   UNL     1       0.397   1.084  -3.651  0.00  0.00    +0.004 A 
ATOM     14  C   UNL     1       1.625   1.090  -3.018  0.00  0.00    +0.048 A 
ATOM     15  C   UNL     1       1.775   0.459  -1.792  0.00  0.00    +0.154 A 
ATOM     16  C   UNL     1       0.691  -0.177  -1.204  0.00  0.00    +0.168 A 
ATOM     17  C   UNL     1      -0.535  -0.180  -1.841  0.00  0.00    +0.036 A 
BRANCH  16  18
ATOM     18  N   UNL     1       0.848  -0.852   0.104  0.00  0.00    +0.060 N 
ATOM     19  O   UNL     1      -0.097  -1.406   0.615  0.00  0.00    -0.126 OA
ATOM     20  O   UNL     1       1.921  -0.849   0.660  0.00  0.00    -0.126 OA
ENDBRANCH  16  18
ENDBRANCH  11  15
ENDBRANCH   1  11
BRANCH   5  21
ATOM     21  C   UNL     1       5.011  -1.540  -4.247  0.00  0.00    +0.190 C 
BRANCH  21  22
ATOM     22  O   UNL     1       3.802  -1.574  -5.008  0.00  0.00    -0.392 OA
ATOM     23  H   UNL     1       3.902  -1.962  -5.888  0.00  0.00    +0.210 HD
ENDBRANCH  21  22
ENDBRANCH   5  21
BRANCH   4  24
ATOM     24  O   UNL     1       7.075  -0.325  -2.688  0.00  0.00    -0.340 OA
BRANCH  24  25
ATOM     25  C   UNL     1       7.901  -1.196  -3.464  0.00  0.00    +0.282 C 
ATOM     26  C   UNL     1       8.833  -0.362  -4.348  0.00  0.00    +0.201 C 
ATOM     27  C   UNL     1       9.753   0.478  -3.456  0.00  0.00    +0.179 C 
ATOM     28  C   UNL     1      10.523  -0.453  -2.514  0.00  0.00    +0.177 C 
ATOM     29  C   UNL     1       9.525  -1.283  -1.702  0.00  0.00    +0.178 C 
ATOM     30  O   UNL     1       8.681  -2.016  -2.592  0.00  0.00    -0.341 OA
BRANCH  28  31
ATOM     31  O   UNL     1      11.357  -1.324  -3.281  0.00  0.00    -0.386 OA
ATOM     32  H   UNL     1      12.011  -0.864  -3.824  0.00  0.00    +0.210 HD
ENDBRANCH  28  31
BRANCH  27  33
ATOM     33  O   UNL     1      10.674   1.205  -4.271  0.00  0.00    -0.386 OA
ATOM     34  H   UNL     1      10.253   1.810  -4.897  0.00  0.00    +0.210 HD
ENDBRANCH  27  33
BRANCH  26  35
ATOM     35  O   UNL     1       9.621  -1.232  -5.164  0.00  0.00    -0.384 OA
ATOM     36  H   UNL     1       9.101  -1.797  -5.751  0.00  0.00    +0.210 HD
ENDBRANCH  26  35
BRANCH  29  37
ATOM     37  C   UNL     1      10.287  -2.258  -0.801  0.00  0.00    +0.190 C 
BRANCH  37  38
ATOM     38  O   UNL     1       9.360  -2.965   0.025  0.00  0.00    -0.392 OA
ATOM     39  H   UNL     1       9.774  -3.603   0.623  0.00  0.00    +0.210 HD
ENDBRANCH  37  38
ENDBRANCH  29  37
ENDBRANCH  24  25
ENDBRANCH   4  24
TORSDOF 14
