REMARK  Name = ZINC22025217
REMARK  11 active torsions:
REMARK  status: ('A' for Active; 'I' for Inactive)
REMARK    1  A    between atoms: C_1  and  C_2
REMARK    2  A    between atoms: C_2  and  O_3
REMARK    3  A    between atoms: O_3  and  C_4
REMARK    4  A    between atoms: C_4  and  C_6
REMARK    5  A    between atoms: C_7  and  C_20
REMARK    6  A    between atoms: C_12  and  C_14
REMARK    7  A    between atoms: C_20  and  O_21
REMARK    8  A    between atoms: O_21  and  C_22
REMARK    9  A    between atoms: C_22  and  C_24
REMARK   10  A    between atoms: C_27  and  C_30
REMARK   11  A    between atoms: C_30  and  N_31
REMARK                            x       y       z     vdW  Elec       q    Type
REMARK                         _______ _______ _______ _____ _____    ______ ____
ROOT
ATOM      1  C   UNL     1       1.210   1.929  -0.109  0.00  0.00    +0.081 C 
ATOM      2  C   UNL     1       2.391   1.304   0.093  0.00  0.00    +0.061 C 
ATOM      3  N   UNL     1       3.554   2.012   0.192  0.00  0.00    -0.269 N 
ATOM      4  C   UNL     1       3.621   3.347   0.110  0.00  0.00    +0.304 C 
ATOM      5  O   UNL     1       4.704   3.889   0.215  0.00  0.00    -0.252 OA
ATOM      6  N   UNL     1       2.526   4.109  -0.084  0.00  0.00    -0.288 N 
ATOM      7  C   UNL     1       1.220   3.440  -0.210  0.00  0.00    +0.144 C 
ATOM      8  H   UNL     1       4.507   1.485   0.347  0.00  0.00    +0.156 HD
ATOM      9  H   UNL     1       2.592   5.205  -0.150  0.00  0.00    +0.151 HD
ENDROOT
BRANCH   7  10
ATOM     10  C   UNL     1       0.316   3.984   0.866  0.00  0.00    -0.022 A 
ATOM     11  C   UNL     1       0.770   4.077   2.169  0.00  0.00    +0.006 A 
ATOM     12  C   UNL     1      -0.058   4.580   3.155  0.00  0.00    +0.000 A 
ATOM     13  C   UNL     1      -1.343   4.980   2.841  0.00  0.00    +0.000 A 
ATOM     14  C   UNL     1      -1.799   4.881   1.540  0.00  0.00    +0.000 A 
ATOM     15  C   UNL     1      -0.970   4.383   0.552  0.00  0.00    +0.006 A 
ENDBRANCH   7  10
BRANCH   1  16
ATOM     16  C   UNL     1       0.005   1.196  -0.216  0.00  0.00    +0.339 C 
ATOM     17  O   UNL     1      -0.481   0.982  -1.311  0.00  0.00    -0.245 OA
BRANCH  16  18
ATOM     18  O   UNL     1      -0.609   0.741   0.895  0.00  0.00    -0.462 OA
BRANCH  18  20
ATOM     19  C   UNL     1      -2.371  -0.418   2.076  0.00  0.00    +0.048 C 
ATOM     20  C   UNL     1      -1.826   0.014   0.713  0.00  0.00    +0.229 C 
ENDBRANCH  18  20
ENDBRANCH  16  18
ENDBRANCH   1  16
BRANCH   2  21
ATOM     21  C   UNL     1       2.425  -0.198   0.205  0.00  0.00    +0.283 C 
BRANCH  21  22
ATOM     22  O   UNL     1       3.165  -0.750  -0.916  0.00  0.00    -0.455 OA
BRANCH  22  23
ATOM     23  C   UNL     1       3.289  -2.091  -0.966  0.00  0.00    +0.340 C 
ATOM     24  O   UNL     1       2.793  -2.779  -0.097  0.00  0.00    -0.245 OA
BRANCH  23  25
ATOM     25  C   UNL     1       4.029  -2.723  -2.078  0.00  0.00    +0.059 A 
ATOM     26  C   UNL     1       4.595  -1.935  -3.082  0.00  0.00    +0.015 A 
ATOM     27  C   UNL     1       5.288  -2.531  -4.114  0.00  0.00    +0.006 A 
ATOM     28  C   UNL     1       5.414  -3.908  -4.163  0.00  0.00    -0.030 A 
ATOM     29  C   UNL     1       4.851  -4.696  -3.174  0.00  0.00    +0.006 A 
ATOM     30  C   UNL     1       4.160  -4.112  -2.133  0.00  0.00    +0.015 A 
BRANCH  28  31
ATOM     31  C   UNL     1       6.168  -4.553  -5.297  0.00  0.00    +0.153 C 
BRANCH  31  32
ATOM     32  N   UNL     1       5.242  -4.844  -6.395  0.00  0.00    -0.220 N 
ATOM     33  C   UNL     1       4.967  -3.989  -7.400  0.00  0.00    +0.240 C 
ATOM     34  O   UNL     1       5.421  -2.876  -7.559  0.00  0.00    -0.273 OA
ATOM     35  C   UNL     1       3.973  -4.708  -8.289  0.00  0.00    +0.202 C 
ATOM     36  N   UNL     1       3.786  -6.007  -7.620  0.00  0.00    -0.290 N 
ATOM     37  C   UNL     1       4.571  -5.994  -6.528  0.00  0.00    +0.309 C 
ATOM     38  O   UNL     1       4.658  -6.921  -5.747  0.00  0.00    -0.252 OA
ATOM     39  H   UNL     1       3.099  -6.753  -8.048  0.00  0.00    +0.151 HD
ENDBRANCH  31  32
ENDBRANCH  28  31
ENDBRANCH  23  25
ENDBRANCH  22  23
ENDBRANCH  21  22
ENDBRANCH   2  21
TORSDOF 10
