REMARK  Name = ZINC39690294
REMARK  10 active torsions:
REMARK  status: ('A' for Active; 'I' for Inactive)
REMARK    1  A    between atoms: C_1  and  C_2
REMARK    2  A    between atoms: C_2  and  C_3
REMARK    3  A    between atoms: C_3  and  C_4
REMARK    4  A    between atoms: C_4  and  C_5
REMARK    5  A    between atoms: C_5  and  C_7
REMARK    6  A    between atoms: C_5  and  C_8
REMARK    7  A    between atoms: C_12  and  C_21
REMARK    8  A    between atoms: N_23  and  C_24
REMARK    9  A    between atoms: C_24  and  C_25
REMARK   10  A    between atoms: C_28  and  N_31
REMARK                            x       y       z     vdW  Elec       q    Type
REMARK                         _______ _______ _______ _____ _____    ______ ____
ROOT
ATOM      1  C   UNL     1       1.597  -3.794   2.569  0.00  0.00    +0.218 C 
ATOM      2  O   UNL     1       1.013  -4.316   1.643  0.00  0.00    -0.275 OA
ATOM      3  N   UNL     1       2.110  -4.555   3.556  0.00  0.00    -0.300 N 
ATOM      4  C   UNL     1       2.844  -4.104   4.762  0.00  0.00    +0.121 C 
ATOM      5  C   UNL     1       2.333  -5.021   5.896  0.00  0.00    +0.100 C 
ATOM      6  C   UNL     1       1.827  -6.285   5.180  0.00  0.00    -0.004 C 
ATOM      7  C   UNL     1       2.063  -6.031   3.683  0.00  0.00    +0.115 C 
ATOM      8  C   UNL     1       2.617  -7.506   5.641  0.00  0.00    -0.010 C 
ATOM      9  C   UNL     1       2.058  -8.758   4.959  0.00  0.00    -0.082 C 
ATOM     10  N   UNL     1       0.639  -8.911   5.301  0.00  0.00    +0.379 N 
ATOM     11  C   UNL     1      -0.129  -7.777   4.773  0.00  0.00    -0.082 C 
ATOM     12  C   UNL     1       0.338  -6.484   5.447  0.00  0.00    -0.010 C 
ATOM     13  H   UNL     1       0.288  -9.768   4.901  0.00  0.00    -0.086 HD
ATOM     14  H   UNL     1       0.538  -8.945   6.305  0.00  0.00    -0.086 HD
ENDROOT
BRANCH   5  15
ATOM     15  C   UNL     1       1.208  -4.354   6.644  0.00  0.00    +0.218 C 
ATOM     16  O   UNL     1       0.476  -3.575   6.070  0.00  0.00    -0.275 OA
ATOM     17  N   UNL     1       1.015  -4.622   7.950  0.00  0.00    -0.311 N 
ATOM     18  H   UNL     1       1.600  -5.245   8.409  0.00  0.00    +0.149 HD
BRANCH  17  19
ATOM     19  C   UNL     1      -0.079  -3.973   8.678  0.00  0.00    +0.139 C 
BRANCH  19  20
ATOM     20  C   UNL     1      -0.076  -4.441  10.111  0.00  0.00    -0.030 A 
ATOM     21  C   UNL     1      -0.801  -5.561  10.472  0.00  0.00    +0.007 A 
ATOM     22  C   UNL     1      -0.801  -5.992  11.784  0.00  0.00    +0.026 A 
ATOM     23  C   UNL     1      -0.071  -5.299  12.741  0.00  0.00    +0.046 A 
ATOM     24  C   UNL     1       0.657  -4.175  12.375  0.00  0.00    +0.026 A 
ATOM     25  C   UNL     1       0.656  -3.752  11.060  0.00  0.00    +0.007 A 
BRANCH  23  26
ATOM     26  N   UNL     1      -0.069  -5.734  14.073  0.00  0.00    -0.323 N 
ATOM     27  C   UNL     1      -0.736  -6.823  14.557  0.00  0.00    +0.091 A 
ATOM     28  C   UNL     1      -0.491  -6.914  15.880  0.00  0.00    +0.019 A 
ATOM     29  C   UNL     1       0.358  -5.845  16.227  0.00  0.00    +0.019 A 
ATOM     30  C   UNL     1       0.605  -5.142  15.103  0.00  0.00    +0.091 A 
ENDBRANCH  23  26
ENDBRANCH  19  20
ENDBRANCH  17  19
ENDBRANCH   5  15
BRANCH   1  31
ATOM     31  C   UNL     1       1.748  -2.295   2.616  0.00  0.00    +0.072 C 
ATOM     32  C   UNL     1       3.235  -1.933   2.627  0.00  0.00    +0.017 C 
BRANCH  31  33
ATOM     33  C   UNL     1       1.081  -1.676   1.387  0.00  0.00    +0.012 C 
BRANCH  33  34
ATOM     34  C   UNL     1       1.125  -0.151   1.496  0.00  0.00    +0.000 C 
BRANCH  34  36
ATOM     35  C   UNL     1       0.502   1.994   0.376  0.00  0.00    +0.004 C 
ATOM     36  C   UNL     1       0.458   0.468   0.266  0.00  0.00    -0.003 C 
ENDBRANCH  34  36
ENDBRANCH  33  34
ENDBRANCH  31  33
ENDBRANCH   1  31
TORSDOF 8
