REMARK  Name = ZINC44320430
REMARK  10 active torsions:
REMARK  status: ('A' for Active; 'I' for Inactive)
REMARK    1  A    between atoms: C_1  and  C_2
REMARK    2  A    between atoms: C_2  and  O_3
REMARK    3  A    between atoms: O_3  and  C_4
REMARK    4  A    between atoms: C_9  and  C_10
REMARK    5  A    between atoms: C_10  and  CA_11
REMARK    6  A    between atoms: CA_11  and  C_13
REMARK    7  A    between atoms: CA_11  and  N_16
REMARK    8  A    between atoms: C_17  and  O_19
REMARK    9  A    between atoms: O_19  and  C_20
REMARK   10  A    between atoms: C_20  and  C_21
REMARK                            x       y       z     vdW  Elec       q    Type
REMARK                         _______ _______ _______ _____ _____    ______ ____
ROOT
ATOM      1  N   UNL     1      -0.058  -0.254   3.789  0.00  0.00    -0.267 N 
ATOM      2  C   UNL     1      -1.307  -0.220   4.293  0.00  0.00    +0.401 C 
ATOM      3  O   UNL     1      -1.572  -0.843   5.302  0.00  0.00    -0.226 OA
ATOM      4  H   UNL     1       0.154   0.244   2.984  0.00  0.00    +0.153 HD
ENDROOT
BRANCH   1   5
ATOM      5  CA  UNL     1       0.981  -1.043   4.457  0.00  0.00    +0.193 C 
BRANCH   5   6
ATOM      6  C   UNL     1       1.603  -0.225   5.559  0.00  0.00    +0.376 C 
ATOM      7  O   UNL     1       1.350   0.964   5.652  0.00  0.00    -0.244 OA
ATOM      8  OXT UNL     1       2.360  -0.752   6.356  0.00  0.00    -0.244 OA
ENDBRANCH   5   6
BRANCH   5   9
ATOM      9  C   UNL     1       2.056  -1.434   3.441  0.00  0.00    +0.072 C 
BRANCH   9  15
ATOM     10  C   UNL     1       0.802  -1.824   1.306  0.00  0.00    +0.124 A 
ATOM     11  C   UNL     1       0.260  -2.673   0.351  0.00  0.00    +0.047 A 
ATOM     12  C   UNL     1       0.371  -4.041   0.501  0.00  0.00    +0.019 A 
ATOM     13  C   UNL     1       1.023  -4.566   1.603  0.00  0.00    +0.018 A 
ATOM     14  C   UNL     1       1.564  -3.722   2.556  0.00  0.00    +0.022 A 
ATOM     15  C   UNL     1       1.460  -2.353   2.406  0.00  0.00    -0.002 A 
ATOM     16 BR   UNL     1       1.175  -6.440   1.806  0.00  0.00    -0.050 Br
BRANCH  10  17
ATOM     17  O   UNL     1       0.693  -0.477   1.160  0.00  0.00    -0.492 OA
BRANCH  17  19
ATOM     18  C   UNL     1      -0.019   1.526   0.010  0.00  0.00    +0.048 C 
ATOM     19  C   UNL     1       0.002  -0.004   0.002  0.00  0.00    +0.225 C 
ENDBRANCH  17  19
ENDBRANCH  10  17
ENDBRANCH   9  15
ENDBRANCH   5   9
ENDBRANCH   1   5
BRANCH   2  20
ATOM     20  O   UNL     1      -2.261   0.506   3.680  0.00  0.00    -0.449 OA
BRANCH  20  21
ATOM     21  C   UNL     1      -3.562   0.497   4.270  0.00  0.00    +0.246 C 
BRANCH  21  22
ATOM     22  C   UNL     1      -4.505   1.371   3.439  0.00  0.00    +0.088 C 
ATOM     23  C   UNL     1      -4.110   2.822   3.561  0.00  0.00    -0.029 A 
ATOM     24  C   UNL     1      -2.953   3.497   3.233  0.00  0.00    +0.005 A 
ATOM     25  C   UNL     1      -2.860   4.859   3.457  0.00  0.00    +0.000 A 
ATOM     26  C   UNL     1      -3.925   5.546   4.010  0.00  0.00    +0.001 A 
ATOM     27  C   UNL     1      -5.086   4.879   4.341  0.00  0.00    +0.009 A 
ATOM     28  C   UNL     1      -5.188   3.505   4.118  0.00  0.00    -0.014 A 
ATOM     29  C   UNL     1      -6.297   2.552   4.374  0.00  0.00    -0.014 A 
ATOM     30  C   UNL     1      -5.911   1.274   3.977  0.00  0.00    -0.029 A 
ATOM     31  C   UNL     1      -6.779   0.212   4.117  0.00  0.00    +0.005 A 
ATOM     32  C   UNL     1      -8.038   0.412   4.653  0.00  0.00    +0.000 A 
ATOM     33  C   UNL     1      -8.430   1.677   5.050  0.00  0.00    +0.001 A 
ATOM     34  C   UNL     1      -7.569   2.746   4.914  0.00  0.00    +0.009 A 
ENDBRANCH  21  22
ENDBRANCH  20  21
ENDBRANCH   2  20
TORSDOF 9
