REMARK  Name = ZINC34756576
REMARK  10 active torsions:
REMARK  status: ('A' for Active; 'I' for Inactive)
REMARK    1  A    between atoms: C_1  and  C_2
REMARK    2  A    between atoms: C_2  and  N_3
REMARK    3  A    between atoms: N_3  and  C_4
REMARK    4  A    between atoms: C_4  and  C_5
REMARK    5  A    between atoms: C_6  and  C_8
REMARK    6  A    between atoms: C_8  and  S_9
REMARK    7  A    between atoms: S_9  and  C_10
REMARK    8  A    between atoms: N_26  and  C_29
REMARK    9  A    between atoms: C_29  and  C_30
REMARK   10  A    between atoms: C_30  and  C_31
REMARK                            x       y       z     vdW  Elec       q    Type
REMARK                         _______ _______ _______ _____ _____    ______ ____
ROOT
ATOM      1  C   UNL     1      -3.881  -0.562  -3.862  0.00  0.00    +0.191 A 
ATOM      2  N   UNL     1      -4.664  -0.760  -4.916  0.00  0.00    -0.206 NA
ATOM      3  C   UNL     1      -5.965  -0.527  -4.878  0.00  0.00    +0.134 A 
ATOM      4  C   UNL     1      -6.552  -0.050  -3.673  0.00  0.00    +0.051 A 
ATOM      5  C   UNL     1      -7.955   0.275  -3.403  0.00  0.00    -0.025 A 
ATOM      6  C   UNL     1      -8.254   0.714  -2.165  0.00  0.00    -0.004 A 
ATOM      7  S   UNL     1      -6.711   0.723  -1.292  0.00  0.00    -0.073 S 
ATOM      8  C   UNL     1      -5.662   0.136  -2.596  0.00  0.00    +0.115 A 
ATOM      9  N   UNL     1      -4.374  -0.123  -2.711  0.00  0.00    -0.214 NA
ATOM     10  C   UNL     1      -9.601   1.109  -1.642  0.00  0.00    +0.043 C 
ATOM     11  C   UNL     1     -10.548   1.297  -2.837  0.00  0.00    +0.005 C 
ATOM     12  C   UNL     1     -10.406   0.092  -3.770  0.00  0.00    +0.005 C 
ATOM     13  C   UNL     1      -9.043   0.130  -4.463  0.00  0.00    +0.037 C 
ATOM     14  N   UNL     1      -6.747  -0.745  -5.998  0.00  0.00    -0.318 N 
ATOM     15  C   UNL     1      -7.069   0.353  -6.921  0.00  0.00    +0.088 C 
ATOM     16  C   UNL     1      -6.745  -0.101  -8.348  0.00  0.00    -0.060 C 
ATOM     17  N   UNL     1      -7.449  -1.357  -8.633  0.00  0.00    +0.382 N 
ATOM     18  C   UNL     1      -6.946  -2.422  -7.756  0.00  0.00    -0.060 C 
ATOM     19  C   UNL     1      -7.276  -2.084  -6.302  0.00  0.00    +0.088 C 
ATOM     20  H   UNL     1      -8.438  -1.231  -8.474  0.00  0.00    -0.082 HD
ENDROOT
BRANCH   1  21
ATOM     21  S   UNL     1      -2.156  -0.895  -3.993  0.00  0.00    -0.077 S 
BRANCH  21  22
ATOM     22  C   UNL     1      -1.506  -0.498  -2.346  0.00  0.00    +0.173 C 
BRANCH  22  24
ATOM     23  N   UNL     1       0.682  -0.514  -1.192  0.00  0.00    -0.301 N 
ATOM     24  C   UNL     1      -0.019  -0.742  -2.320  0.00  0.00    +0.226 C 
ATOM     25  O   UNL     1       0.546  -1.145  -3.314  0.00  0.00    -0.275 OA
BRANCH  23  27
ATOM     26  C   UNL     1      -0.009   1.503   0.008  0.00  0.00    +0.024 C 
ATOM     27  C   UNL     1      -0.002  -0.027   0.009  0.00  0.00    +0.104 C 
ENDBRANCH  23  27
BRANCH  23  28
ATOM     28  C   UNL     1       2.127  -0.751  -1.166  0.00  0.00    +0.104 C 
ATOM     29  C   UNL     1       2.399  -2.195  -0.738  0.00  0.00    +0.024 C 
ENDBRANCH  23  28
ENDBRANCH  22  24
ENDBRANCH  21  22
ENDBRANCH   1  21
BRANCH  17  30
ATOM     30  C   UNL     1      -7.227  -1.735 -10.035  0.00  0.00    -0.074 C 
BRANCH  30  31
ATOM     31  C   UNL     1      -8.059  -2.975 -10.368  0.00  0.00    +0.016 C 
BRANCH  31  32
ATOM     32  C   UNL     1      -7.831  -3.362 -11.806  0.00  0.00    -0.049 A 
ATOM     33  C   UNL     1      -8.634  -2.834 -12.800  0.00  0.00    +0.003 A 
ATOM     34  C   UNL     1      -8.425  -3.189 -14.119  0.00  0.00    +0.000 A 
ATOM     35  C   UNL     1      -7.412  -4.072 -14.445  0.00  0.00    +0.000 A 
ATOM     36  C   UNL     1      -6.608  -4.599 -13.452  0.00  0.00    +0.000 A 
ATOM     37  C   UNL     1      -6.815  -4.240 -12.133  0.00  0.00    +0.003 A 
ENDBRANCH  31  32
ENDBRANCH  30  31
ENDBRANCH  17  30
TORSDOF 8
