REMARK  Name = ZINC00705778
REMARK  6 active torsions:
REMARK  status: ('A' for Active; 'I' for Inactive)
REMARK    1  A    between atoms: C_1  and  C_2
REMARK    2  A    between atoms: N_9  and  N_10
REMARK    3  A    between atoms: C_11  and  C_13
REMARK    4  A    between atoms: C_13  and  O_14
REMARK    5  A    between atoms: O_14  and  C_15
REMARK    6  A    between atoms: N_26  and  C_27
REMARK                            x       y       z     vdW  Elec       q    Type
REMARK                         _______ _______ _______ _____ _____    ______ ____
ROOT
ATOM      1  N   UNL     1       0.077  -4.009   4.423  0.00  0.00    -0.203 N 
ATOM      2  C   UNL     1       0.080  -3.804   5.755  0.00  0.00    +0.270 C 
ATOM      3  O   UNL     1       0.067  -2.675   6.195  0.00  0.00    -0.270 OA
ATOM      4  H   UNL     1       0.087  -4.913   4.071  0.00  0.00    +0.177 HD
ENDROOT
BRANCH   1  13
ATOM      5  C   UNL     1      -0.018   1.503   0.010  0.00  0.00    +0.044 C 
ATOM      6  C   UNL     1       0.002  -0.004   0.002  0.00  0.00    -0.050 A 
ATOM      7  C   UNL     1       0.006  -0.689  -1.201  0.00  0.00    +0.005 A 
ATOM      8  C   UNL     1       0.024  -2.069  -1.225  0.00  0.00    +0.024 A 
ATOM      9  C   UNL     1       0.039  -2.787  -0.034  0.00  0.00    +0.046 A 
ATOM     10  C   UNL     1       0.035  -2.090   1.181  0.00  0.00    +0.029 A 
ATOM     11  C   UNL     1       0.023  -0.700   1.194  0.00  0.00    +0.015 A 
ATOM     12  C   UNL     1       0.054  -3.115   2.251  0.00  0.00    +0.153 C 
ATOM     13  N   UNL     1       0.058  -2.916   3.547  0.00  0.00    -0.174 NA
ATOM     14  C   UNL     1       0.069  -4.409   1.539  0.00  0.00    +0.271 C 
ATOM     15  O   UNL     1       0.086  -5.511   2.056  0.00  0.00    -0.268 OA
ATOM     16  N   UNL     1       0.059  -4.154   0.220  0.00  0.00    -0.269 N 
ATOM     17  C   UNL     1       0.068  -5.186  -0.820  0.00  0.00    +0.138 C 
ENDBRANCH   1  13
BRANCH   2  18
ATOM     18  C   UNL     1       0.101  -4.980   6.698  0.00  0.00    +0.326 C 
BRANCH  18  19
ATOM     19  O   UNL     1       0.101  -4.509   8.047  0.00  0.00    -0.480 OA
BRANCH  19  20
ATOM     20  C   UNL     1       0.118  -5.449   9.029  0.00  0.00    +0.158 A 
ATOM     21  C   UNL     1      -1.074  -5.950   9.533  0.00  0.00    +0.085 A 
ATOM     22  C   UNL     1      -1.054  -6.906  10.531  0.00  0.00    +0.043 A 
ATOM     23  C   UNL     1       0.153  -7.363  11.029  0.00  0.00    +0.044 A 
ATOM     24  C   UNL     1       1.343  -6.864  10.529  0.00  0.00    +0.043 A 
ATOM     25  C   UNL     1       1.328  -5.913   9.525  0.00  0.00    +0.085 A 
ATOM     26 CL   UNL     1       2.821  -5.295   8.892  0.00  0.00    -0.080 Cl
ATOM     27 CL   UNL     1       0.175  -8.562  12.284  0.00  0.00    -0.083 Cl
ATOM     28 CL   UNL     1      -2.590  -5.376   8.910  0.00  0.00    -0.080 Cl
ENDBRANCH  19  20
ENDBRANCH  18  19
ENDBRANCH   2  18
TORSDOF 4
