REMARK  Name = ZINC15419930
REMARK  15 active torsions:
REMARK  status: ('A' for Active; 'I' for Inactive)
REMARK    1  A    between atoms: C_1  and  C_2
REMARK    2  A    between atoms: C_2  and  N_3
REMARK    3  A    between atoms: N_3  and  C_4
REMARK    4  A    between atoms: N_3  and  C_21
REMARK    5  A    between atoms: C_4  and  C_5
REMARK    6  A    between atoms: C_5  and  C_7
REMARK    7  A    between atoms: C_9  and  C_20
REMARK    8  A    between atoms: N_10  and  C_13
REMARK    9  A    between atoms: C_11  and  C_12
REMARK   10  A    between atoms: C_13  and  C_14
REMARK   11  A    between atoms: C_14  and  C_15
REMARK   12  A    between atoms: C_21  and  C_22
REMARK   13  A    between atoms: N_24  and  C_25
REMARK   14  A    between atoms: C_28  and  N_31
REMARK   15  A    between atoms: C_32  and  C_34
REMARK                            x       y       z     vdW  Elec       q    Type
REMARK                         _______ _______ _______ _____ _____    ______ ____
ROOT
ATOM      1  N   UNL     1      -0.171  -0.832  -2.479  0.00  0.00    +0.390 N 
ATOM      2  H   UNL     1      -0.538  -0.265  -3.229  0.00  0.00    -0.081 HD
ENDROOT
BRANCH   1   4
ATOM      3  C   UNL     1      -1.310   0.701  -0.947  0.00  0.00    -0.017 C 
ATOM      4  C   UNL     1      -1.076  -0.763  -1.324  0.00  0.00    -0.081 C 
ENDBRANCH   1   4
BRANCH   1   5
ATOM      5  C   UNL     1       1.156  -0.333  -2.093  0.00  0.00    +0.003 C 
BRANCH   5   6
ATOM      6  C   UNL     1       2.033  -0.239  -3.314  0.00  0.00    +0.149 C 
ATOM      7  O   UNL     1       1.621  -0.625  -4.388  0.00  0.00    -0.294 OA
BRANCH   6   8
ATOM      8  C   UNL     1       3.382   0.320  -3.206  0.00  0.00    +0.036 A 
ATOM      9  C   UNL     1       4.037   0.825  -1.991  0.00  0.00    +0.034 A 
ATOM     10  C   UNL     1       5.260   1.236  -2.363  0.00  0.00    +0.017 A 
ATOM     11  N   UNL     1       5.415   1.027  -3.703  0.00  0.00    -0.347 N 
ATOM     12  C   UNL     1       4.304   0.474  -4.224  0.00  0.00    +0.026 A 
ATOM     13  C   UNL     1       4.100   0.092  -5.667  0.00  0.00    +0.064 C 
ATOM     14  C   UNL     1       6.297   1.833  -1.447  0.00  0.00    +0.063 C 
BRANCH  11  15
ATOM     15  C   UNL     1       6.622   1.353  -4.466  0.00  0.00    +0.127 C 
BRANCH  15  16
ATOM     16  C   UNL     1       7.566   0.149  -4.466  0.00  0.00    +0.064 C 
BRANCH  16  17
ATOM     17  C   UNL     1       8.808   0.484  -5.251  0.00  0.00    -0.009 A 
ATOM     18  C   UNL     1       9.971   1.028  -4.817  0.00  0.00    +0.011 A 
ATOM     19  C   UNL     1      10.988   1.249  -5.726  0.00  0.00    +0.008 A 
ATOM     20  C   UNL     1      10.793   0.917  -7.026  0.00  0.00    +0.045 A 
ATOM     21  S   UNL     1       9.132   0.262  -6.993  0.00  0.00    -0.102 S 
ENDBRANCH  16  17
ENDBRANCH  15  16
ENDBRANCH  11  15
ENDBRANCH   6   8
ENDBRANCH   5   6
ENDBRANCH   1   5
BRANCH   1  22
ATOM     22  C   UNL     1      -0.057  -2.225  -2.930  0.00  0.00    +0.019 C 
BRANCH  22  23
ATOM     23  C   UNL     1      -1.394  -2.698  -3.442  0.00  0.00    +0.201 C 
ATOM     24  O   UNL     1      -2.347  -1.948  -3.432  0.00  0.00    -0.278 OA
ATOM     25  N   UNL     1      -1.530  -3.954  -3.911  0.00  0.00    -0.287 N 
ATOM     26  H   UNL     1      -0.788  -4.577  -3.852  0.00  0.00    +0.155 HD
BRANCH  25  27
ATOM     27  C   UNL     1      -2.742  -4.361  -4.483  0.00  0.00    +0.033 A 
ATOM     28  C   UNL     1      -3.500  -3.458  -5.217  0.00  0.00    +0.025 A 
ATOM     29  C   UNL     1      -4.695  -3.859  -5.781  0.00  0.00    +0.025 A 
ATOM     30  C   UNL     1      -5.138  -5.165  -5.614  0.00  0.00    +0.033 A 
ATOM     31  C   UNL     1      -4.380  -6.067  -4.880  0.00  0.00    +0.025 A 
ATOM     32  C   UNL     1      -3.183  -5.668  -4.321  0.00  0.00    +0.025 A 
BRANCH  30  33
ATOM     33  N   UNL     1      -6.351  -5.571  -6.186  0.00  0.00    -0.286 N 
ATOM     34  C   UNL     1      -7.127  -6.471  -5.551  0.00  0.00    +0.214 C 
ATOM     35  O   UNL     1      -6.822  -6.861  -4.444  0.00  0.00    -0.276 OA
ATOM     36  C   UNL     1      -8.374  -6.993  -6.216  0.00  0.00    +0.109 C 
ATOM     37  H   UNL     1      -6.632  -5.205  -7.039  0.00  0.00    +0.155 HD
ENDBRANCH  30  33
ENDBRANCH  25  27
ENDBRANCH  22  23
ENDBRANCH   1  22
TORSDOF 11
