REMARK  Name = ZINC31914163
REMARK  6 active torsions:
REMARK  status: ('A' for Active; 'I' for Inactive)
REMARK    1  A    between atoms: C_1  and  C_2
REMARK    2  A    between atoms: C_2  and  C_3
REMARK    3  A    between atoms: C_3  and  C_5
REMARK    4  A    between atoms: C_3  and  O_25
REMARK    5  A    between atoms: C_6  and  C_15
REMARK    6  A    between atoms: C_11  and  C_14
REMARK                            x       y       z     vdW  Elec       q    Type
REMARK                         _______ _______ _______ _____ _____    ______ ____
ROOT
ATOM      1  C   UNL     1       2.038   0.554   0.072  0.00  0.00    +0.079 A 
ATOM      2  C   UNL     1       1.334  -0.600  -0.097  0.00  0.00    +0.095 A 
ATOM      3  N   UNL     1       0.026  -0.297  -0.115  0.00  0.00    -0.227 NA
ATOM      4  C   UNL     1      -0.118   1.011   0.037  0.00  0.00    +0.139 A 
ATOM      5  N   UNL     1       1.128   1.571   0.156  0.00  0.00    -0.300 N 
ATOM      6  C   UNL     1       1.267   2.918   0.325  0.00  0.00    +0.096 A 
ATOM      7  C   UNL     1       0.183   3.720   0.377  0.00  0.00    -0.034 A 
ATOM      8  C   UNL     1      -1.107   3.177   0.257  0.00  0.00    +0.008 A 
ATOM      9  C   UNL     1      -1.261   1.836   0.093  0.00  0.00    +0.047 A 
ATOM     10  C   UNL     1       0.357   5.206   0.563  0.00  0.00    +0.045 C 
ENDROOT
BRANCH   2  11
ATOM     11  C   UNL     1       1.913  -1.959  -0.236  0.00  0.00    +0.002 A 
ATOM     12  C   UNL     1       3.031  -2.166  -1.042  0.00  0.00    +0.010 A 
ATOM     13  C   UNL     1       3.558  -3.433  -1.163  0.00  0.00    +0.004 A 
ATOM     14  C   UNL     1       2.986  -4.507  -0.491  0.00  0.00    -0.044 A 
ATOM     15  C   UNL     1       1.883  -4.307   0.311  0.00  0.00    -0.044 A 
ATOM     16  C   UNL     1       1.349  -3.034   0.442  0.00  0.00    +0.014 A 
ATOM     17  C   UNL     1       1.222  -5.425   1.074  0.00  0.00    +0.035 C 
ATOM     18  C   UNL     1       1.632  -6.781   0.504  0.00  0.00    +0.005 C 
ATOM     19  C   UNL     1       3.162  -6.825   0.415  0.00  0.00    +0.005 C 
ATOM     20  C   UNL     1       3.609  -5.865  -0.686  0.00  0.00    +0.035 C 
ENDBRANCH   2  11
BRANCH   1  21
ATOM     21  C   UNL     1       3.537   0.685   0.151  0.00  0.00    +0.163 C 
BRANCH  21  23
ATOM     22  C   UNL     1       5.477   0.953   1.702  0.00  0.00    +0.007 C 
ATOM     23  C   UNL     1       3.951   0.940   1.602  0.00  0.00    +0.034 C 
ENDBRANCH  21  23
BRANCH  21  24
ATOM     24  O   UNL     1       3.963   1.778  -0.665  0.00  0.00    -0.386 OA
ATOM     25  H   UNL     1       3.753   1.773  -1.745  0.00  0.00    +0.210 HD
ENDBRANCH  21  24
ENDBRANCH   1  21
TORSDOF 4
