REMARK  Name = ZINC40826446
REMARK  8 active torsions:
REMARK  status: ('A' for Active; 'I' for Inactive)
REMARK    1  A    between atoms: C_1  and  C_2
REMARK    2  A    between atoms: C_6  and  C_7
REMARK    3  A    between atoms: N_9  and  C_10
REMARK    4  A    between atoms: C_13  and  N_16
REMARK    5  A    between atoms: N_17  and  C_18
REMARK    6  A    between atoms: N_28  and  N_29
REMARK    7  A    between atoms: C_30  and  C_32
REMARK    8  A    between atoms: C_37  and  O_38
REMARK                            x       y       z     vdW  Elec       q    Type
REMARK                         _______ _______ _______ _____ _____    ______ ____
ROOT
ATOM      1  C   UNL     1      -0.012   1.502   0.010  0.00  0.00    +0.048 C 
ATOM      2  C   UNL     1      -0.003  -0.005   0.002  0.00  0.00    +0.009 A 
ATOM      3  C   UNL     1      -0.007  -0.839  -1.122  0.00  0.00    +0.042 A 
ATOM      4  C   UNL     1       0.003  -2.138  -0.672  0.00  0.00    +0.115 A 
ATOM      5  O   UNL     1       0.017  -2.112   0.659  0.00  0.00    -0.454 OA
ATOM      6  C   UNL     1       0.018  -0.831   1.091  0.00  0.00    +0.193 A 
ATOM      7  C   UNL     1      -0.003  -3.328  -1.599  0.00  0.00    +0.075 C 
ATOM      8  C   UNL     1      -0.530  -2.900  -2.971  0.00  0.00    +0.014 C 
ATOM      9  C   UNL     1       0.248  -1.689  -3.495  0.00  0.00    +0.058 C 
ATOM     10  C   UNL     1      -0.018  -0.513  -2.566  0.00  0.00    +0.070 C 
ATOM     11  N   UNL     1      -0.239   0.687  -3.007  0.00  0.00    -0.184 NA
ENDROOT
BRANCH   6  12
ATOM     12  C   UNL     1       0.034  -0.400   2.493  0.00  0.00    +0.284 C 
ATOM     13  O   UNL     1       0.030   0.786   2.765  0.00  0.00    -0.266 OA
ATOM     14  N   UNL     1       0.054  -1.318   3.480  0.00  0.00    -0.279 N 
ATOM     15  H   UNL     1      -0.010  -2.262   3.266  0.00  0.00    +0.155 HD
BRANCH  14  16
ATOM     16  C   UNL     1       0.166  -0.910   4.809  0.00  0.00    +0.034 A 
ATOM     17  C   UNL     1      -0.445   0.268   5.228  0.00  0.00    +0.025 A 
ATOM     18  C   UNL     1      -0.336   0.674   6.538  0.00  0.00    +0.031 A 
ATOM     19  C   UNL     1       0.390  -0.100   7.450  0.00  0.00    +0.086 A 
ATOM     20  C   UNL     1       1.002  -1.284   7.026  0.00  0.00    +0.031 A 
ATOM     21  C   UNL     1       0.885  -1.685   5.714  0.00  0.00    +0.025 A 
BRANCH  19  22
ATOM     22  N   UNL     1       0.500   0.299   8.751  0.00  0.00    -0.149 NA
ATOM     23  N   UNL     1       1.169  -0.416   9.590  0.00  0.00    -0.149 NA
BRANCH  23  24
ATOM     24  C   UNL     1       1.280  -0.017  10.893  0.00  0.00    +0.086 A 
ATOM     25  C   UNL     1       0.664   1.163  11.320  0.00  0.00    +0.029 A 
ATOM     26  C   UNL     1       0.780   1.560  12.636  0.00  0.00    +0.002 A 
ATOM     27  C   UNL     1       1.504   0.793  13.532  0.00  0.00    +0.000 A 
ATOM     28  C   UNL     1       2.117  -0.376  13.116  0.00  0.00    +0.002 A 
ATOM     29  C   UNL     1       2.004  -0.789  11.805  0.00  0.00    +0.029 A 
ENDBRANCH  23  24
ENDBRANCH  19  22
ENDBRANCH  14  16
ENDBRANCH   6  12
BRANCH  11  30
ATOM     30  N   UNL     1      -0.238   0.938  -4.385  0.00  0.00    -0.203 N 
ATOM     31  C   UNL     1      -0.467   2.184  -4.843  0.00  0.00    +0.267 C 
ATOM     32  O   UNL     1      -0.675   3.091  -4.060  0.00  0.00    -0.268 OA
ATOM     33  H   UNL     1      -0.072   0.214  -5.010  0.00  0.00    +0.178 HD
BRANCH  31  34
ATOM     34  C   UNL     1      -0.466   2.449  -6.295  0.00  0.00    +0.080 A 
ATOM     35  C   UNL     1      -0.233   1.408  -7.198  0.00  0.00    +0.017 A 
ATOM     36  C   UNL     1      -0.233   1.662  -8.552  0.00  0.00    +0.001 A 
ATOM     37  C   UNL     1      -0.463   2.944  -9.024  0.00  0.00    +0.004 A 
ATOM     38  C   UNL     1      -0.694   3.981  -8.142  0.00  0.00    +0.046 A 
ATOM     39  C   UNL     1      -0.704   3.743  -6.776  0.00  0.00    +0.129 A 
BRANCH  39  40
ATOM     40  O   UNL     1      -0.937   4.760  -5.908  0.00  0.00    -0.506 OA
ATOM     41  H   UNL     1      -0.138   5.226  -5.625  0.00  0.00    +0.292 HD
ENDBRANCH  39  40
ENDBRANCH  31  34
ENDBRANCH  11  30
TORSDOF 7
