REMARK  Name = ZINC03605709
REMARK  8 active torsions:
REMARK  status: ('A' for Active; 'I' for Inactive)
REMARK    1  A    between atoms: C_1  and  C_2
REMARK    2  A    between atoms: C_4  and  C_15
REMARK    3  A    between atoms: C_5  and  C_14
REMARK    4  A    between atoms: N_6  and  C_7
REMARK    5  A    between atoms: C_15  and  C_17
REMARK    6  A    between atoms: C_17  and  S_18
REMARK    7  A    between atoms: S_18  and  C_19
REMARK    8  A    between atoms: C_23  and  N_25
REMARK                            x       y       z     vdW  Elec       q    Type
REMARK                         _______ _______ _______ _____ _____    ______ ____
ROOT
ATOM      1  C   UNL     1       1.815  -1.795  -0.024  0.00  0.00    +0.175 C 
ATOM      2  O   UNL     1       1.030  -2.720  -0.021  0.00  0.00    -0.291 OA
ENDROOT
BRANCH   1   6
ATOM      3  C   UNL     1       1.630   3.297   0.004  0.00  0.00    +0.064 C 
ATOM      4  C   UNL     1       1.258   1.836  -0.000  0.00  0.00    +0.022 A 
ATOM      5  C   UNL     1       2.128   0.812  -0.014  0.00  0.00    +0.034 A 
ATOM      6  C   UNL     1       1.322  -0.417  -0.013  0.00  0.00    +0.039 A 
ATOM      7  C   UNL     1       0.002  -0.004   0.002  0.00  0.00    +0.032 A 
ATOM      8  N   UNL     1      -0.016   1.343   0.009  0.00  0.00    -0.314 N 
ATOM      9  C   UNL     1      -1.206  -0.905   0.009  0.00  0.00    +0.064 C 
BRANCH   8  10
ATOM     10  C   UNL     1      -1.178   2.127   0.019  0.00  0.00    +0.082 A 
ATOM     11  C   UNL     1      -1.749   2.510   1.225  0.00  0.00    +0.029 A 
ATOM     12  C   UNL     1      -2.894   3.283   1.232  0.00  0.00    +0.002 A 
ATOM     13  C   UNL     1      -3.472   3.677   0.040  0.00  0.00    +0.003 A 
ATOM     14  C   UNL     1      -2.908   3.299  -1.164  0.00  0.00    +0.040 A 
ATOM     15  C   UNL     1      -1.758   2.529  -1.179  0.00  0.00    +0.147 A 
ATOM     16  F   UNL     1      -1.204   2.163  -2.355  0.00  0.00    -0.203 F 
ENDBRANCH   8  10
ENDBRANCH   1   6
BRANCH   1  17
ATOM     17  C   UNL     1       3.297  -2.065  -0.040  0.00  0.00    +0.157 C 
BRANCH  17  18
ATOM     18  S   UNL     1       3.585  -3.852  -0.051  0.00  0.00    -0.078 S 
BRANCH  18  19
ATOM     19  C   UNL     1       5.347  -3.878  -0.069  0.00  0.00    +0.192 A 
ATOM     20  N   UNL     1       6.009  -2.730  -0.075  0.00  0.00    -0.207 NA
ATOM     21  C   UNL     1       7.340  -2.712  -0.082  0.00  0.00    +0.122 A 
ATOM     22  C   UNL     1       8.034  -3.918  -0.095  0.00  0.00    +0.086 A 
ATOM     23  C   UNL     1       7.304  -5.103  -0.093  0.00  0.00    +0.122 A 
ATOM     24  N   UNL     1       5.975  -5.045  -0.080  0.00  0.00    -0.207 NA
ATOM     25  N   UNL     1       8.025  -1.507  -0.083  0.00  0.00    -0.343 N 
ATOM     26  H   UNL     1       8.995  -1.500  -0.092  0.00  0.00    +0.144 HD
ATOM     27  H   UNL     1       7.535  -0.670  -0.074  0.00  0.00    +0.144 HD
BRANCH  23  28
ATOM     28  N   UNL     1       7.954  -6.327  -0.105  0.00  0.00    -0.343 N 
ATOM     29  H   UNL     1       7.439  -7.149  -0.104  0.00  0.00    +0.144 HD
ATOM     30  H   UNL     1       8.923  -6.362  -0.115  0.00  0.00    +0.144 HD
ENDBRANCH  23  28
ENDBRANCH  18  19
ENDBRANCH  17  18
ENDBRANCH   1  17
TORSDOF 6
