REMARK  Name = ZINC39895334
REMARK  9 active torsions:
REMARK  status: ('A' for Active; 'I' for Inactive)
REMARK    1  A    between atoms: C_1  and  C_2
REMARK    2  A    between atoms: C_2  and  C_3
REMARK    3  A    between atoms: C_6  and  N_9
REMARK    4  A    between atoms: N_9  and  C_10
REMARK    5  A    between atoms: C_11  and  C_29
REMARK    6  A    between atoms: C_15  and  C_22
REMARK    7  A    between atoms: C_16  and  C_20
REMARK    8  A    between atoms: C_17  and  N_19
REMARK    9  A    between atoms: C_25  and  C_28
REMARK                            x       y       z     vdW  Elec       q    Type
REMARK                         _______ _______ _______ _____ _____    ______ ____
ROOT
ATOM      1  C   UNL     1       2.071  -2.035   5.786  0.00  0.00    +0.085 A 
ATOM      2  C   UNL     1       2.584  -2.382   7.030  0.00  0.00    +0.091 A 
ATOM      3  C   UNL     1       1.654  -2.480   8.154  0.00  0.00    +0.095 A 
ATOM      4  C   UNL     1       0.311  -2.204   7.838  0.00  0.00    +0.049 A 
ATOM      5  S   UNL     1       0.330  -1.827   6.105  0.00  0.00    -0.071 S 
ATOM      6  C   UNL     1      -0.692  -2.255   8.793  0.00  0.00    +0.019 A 
ATOM      7  C   UNL     1      -0.328  -2.595  10.117  0.00  0.00    +0.100 A 
ATOM      8  C   UNL     1       1.028  -2.861  10.378  0.00  0.00    +0.135 A 
ATOM      9  N   UNL     1       1.940  -2.799   9.435  0.00  0.00    -0.230 NA
ENDROOT
BRANCH   2  10
ATOM     10  C   UNL     1       4.012  -2.641   7.209  0.00  0.00    +0.251 C 
ATOM     11  O   UNL     1       4.764  -1.730   7.504  0.00  0.00    -0.270 OA
ATOM     12  N   UNL     1       4.495  -3.889   7.049  0.00  0.00    -0.297 N 
ATOM     13  C   UNL     1       3.601  -4.998   6.688  0.00  0.00    +0.108 C 
ATOM     14  C   UNL     1       4.157  -5.694   5.442  0.00  0.00    +0.019 C 
ATOM     15  C   UNL     1       5.606  -6.113   5.700  0.00  0.00    +0.003 C 
ATOM     16  C   UNL     1       6.456  -4.872   5.979  0.00  0.00    +0.019 C 
ATOM     17  C   UNL     1       5.927  -4.166   7.226  0.00  0.00    +0.108 C 
ENDBRANCH   2  10
BRANCH   6  18
ATOM     18  C   UNL     1      -2.100  -1.961   8.440  0.00  0.00    -0.015 A 
ATOM     19  C   UNL     1      -2.462  -0.684   8.011  0.00  0.00    +0.009 A 
ATOM     20  C   UNL     1      -3.775  -0.416   7.682  0.00  0.00    +0.004 A 
ATOM     21  C   UNL     1      -4.732  -1.411   7.778  0.00  0.00    -0.050 A 
ATOM     22  C   UNL     1      -4.379  -2.680   8.203  0.00  0.00    +0.004 A 
ATOM     23  C   UNL     1      -3.068  -2.961   8.528  0.00  0.00    +0.009 A 
ATOM     24  C   UNL     1      -6.165  -1.112   7.418  0.00  0.00    +0.044 C 
ENDBRANCH   6  18
BRANCH   8  25
ATOM     25  N   UNL     1       1.413  -3.198  11.667  0.00  0.00    -0.342 N 
ATOM     26  H   UNL     1       0.751  -3.248  12.373  0.00  0.00    +0.144 HD
ATOM     27  H   UNL     1       2.345  -3.384  11.862  0.00  0.00    +0.144 HD
ENDBRANCH   8  25
BRANCH   1  28
ATOM     28  N   UNL     1       2.745  -1.883   4.597  0.00  0.00    -0.308 N 
ATOM     29  H   UNL     1       3.714  -1.935   4.578  0.00  0.00    +0.153 HD
BRANCH  28  33
ATOM     30  C   UNL     1       0.629  -1.202   1.075  0.00  0.00    -0.048 A 
ATOM     31  C   UNL     1       1.873  -0.625   1.255  0.00  0.00    +0.005 A 
ATOM     32  C   UNL     1       2.577  -0.848   2.422  0.00  0.00    +0.023 A 
ATOM     33  C   UNL     1       2.035  -1.654   3.415  0.00  0.00    +0.032 A 
ATOM     34  C   UNL     1       0.785  -2.232   3.231  0.00  0.00    +0.023 A 
ATOM     35  C   UNL     1       0.084  -2.001   2.064  0.00  0.00    +0.005 A 
BRANCH  30  37
ATOM     36  C   UNL     1      -1.014   0.287  -0.035  0.00  0.00    +0.009 C 
ATOM     37  C   UNL     1      -0.137  -0.956  -0.199  0.00  0.00    +0.032 C 
ENDBRANCH  30  37
ENDBRANCH  28  33
ENDBRANCH   1  28
BRANCH   7  38
ATOM     38  C   UNL     1      -1.309  -2.667  11.157  0.00  0.00    +0.103 C 
ATOM     39  N   UNL     1      -2.087  -2.724  11.983  0.00  0.00    -0.191 NA
ENDBRANCH   7  38
TORSDOF 7
