REMARK  Name = ZINC34683501
REMARK  11 active torsions:
REMARK  status: ('A' for Active; 'I' for Inactive)
REMARK    1  A    between atoms: C_1  and  O_2
REMARK    2  A    between atoms: O_2  and  C_3
REMARK    3  A    between atoms: C_6  and  C_13
REMARK    4  A    between atoms: C_7  and  O_11
REMARK    5  A    between atoms: C_8  and  O_9
REMARK    6  A    between atoms: O_9  and  C_10
REMARK    7  A    between atoms: O_11  and  C_12
REMARK    8  A    between atoms: C_13  and  N_14
REMARK    9  A    between atoms: C_17  and  N_20
REMARK   10  A    between atoms: N_20  and  C_21
REMARK   11  A    between atoms: C_28  and  C_30
REMARK                            x       y       z     vdW  Elec       q    Type
REMARK                         _______ _______ _______ _____ _____    ______ ____
ROOT
ATOM      1  N   UNL     1       1.863  -2.928  -5.747  0.00  0.00    +0.383 N 
ATOM      2  C   UNL     1       0.791  -1.930  -5.636  0.00  0.00    -0.077 C 
ATOM      3  C   UNL     1      -0.445  -2.416  -6.396  0.00  0.00    +0.004 C 
ATOM      4  C   UNL     1      -0.084  -2.617  -7.871  0.00  0.00    +0.078 C 
ATOM      5  C   UNL     1       1.084  -3.602  -7.971  0.00  0.00    +0.004 C 
ATOM      6  C   UNL     1       2.263  -3.073  -7.152  0.00  0.00    -0.077 C 
ATOM      7  H   UNL     1       1.531  -3.815  -5.400  0.00  0.00    -0.081 HD
ENDROOT
BRANCH   4   8
ATOM      8  N   UNL     1      -1.242  -3.154  -8.589  0.00  0.00    -0.265 N 
ATOM      9  C   UNL     1      -1.761  -4.346  -8.235  0.00  0.00    +0.251 C 
ATOM     10  O   UNL     1      -1.294  -4.957  -7.293  0.00  0.00    -0.270 OA
BRANCH   8  11
ATOM     11  C   UNL     1      -1.808  -2.429  -9.645  0.00  0.00    +0.037 A 
ATOM     12  C   UNL     1      -3.149  -2.072  -9.601  0.00  0.00    +0.026 A 
ATOM     13  C   UNL     1      -3.706  -1.357 -10.644  0.00  0.00    +0.040 A 
ATOM     14  C   UNL     1      -2.928  -0.997 -11.731  0.00  0.00    +0.124 A 
ATOM     15  C   UNL     1      -1.591  -1.352 -11.776  0.00  0.00    +0.040 A 
ATOM     16  C   UNL     1      -1.028  -2.062 -10.733  0.00  0.00    +0.026 A 
ATOM     17  F   UNL     1      -3.475  -0.298 -12.750  0.00  0.00    -0.205 F 
ENDBRANCH   8  11
BRANCH   9  18
ATOM     18  C   UNL     1      -2.898  -4.910  -8.991  0.00  0.00    +0.037 A 
ATOM     19  C   UNL     1      -3.075  -4.584 -10.337  0.00  0.00    +0.016 A 
ATOM     20  C   UNL     1      -4.137  -5.114 -11.038  0.00  0.00    +0.039 A 
ATOM     21  C   UNL     1      -5.028  -5.969 -10.409  0.00  0.00    +0.123 A 
ATOM     22  C   UNL     1      -4.857  -6.296  -9.072  0.00  0.00    +0.039 A 
ATOM     23  C   UNL     1      -3.795  -5.777  -8.364  0.00  0.00    +0.016 A 
ATOM     24  F   UNL     1      -6.068  -6.486 -11.100  0.00  0.00    -0.205 F 
ENDBRANCH   9  18
ENDBRANCH   4   8
BRANCH   1  25
ATOM     25  C   UNL     1       3.019  -2.494  -4.952  0.00  0.00    -0.039 C 
BRANCH  25  29
ATOM     26  C   UNL     1       1.947  -2.400  -0.810  0.00  0.00    +0.165 A 
ATOM     27  C   UNL     1       1.971  -1.228  -1.552  0.00  0.00    +0.050 A 
ATOM     28  C   UNL     1       2.318  -1.262  -2.890  0.00  0.00    +0.009 A 
ATOM     29  C   UNL     1       2.642  -2.463  -3.493  0.00  0.00    -0.018 A 
ATOM     30  C   UNL     1       2.621  -3.638  -2.759  0.00  0.00    +0.167 A 
ATOM     31  C   UNL     1       2.279  -3.608  -1.412  0.00  0.00    +0.204 A 
BRANCH  26  33
ATOM     32  C   UNL     1       1.277  -1.089   1.058  0.00  0.00    +0.277 C 
ATOM     33  O   UNL     1       1.606  -2.366   0.506  0.00  0.00    -0.491 OA
ENDBRANCH  26  33
BRANCH  31  34
ATOM     34  O   UNL     1       2.262  -4.759  -0.686  0.00  0.00    -0.488 OA
ATOM     35  C   UNL     1       1.033  -5.487  -0.652  0.00  0.00    +0.277 C 
ENDBRANCH  31  34
BRANCH  30  36
ATOM     36  O   UNL     1       2.939  -4.819  -3.354  0.00  0.00    -0.491 OA
ATOM     37  C   UNL     1       4.314  -5.209  -3.326  0.00  0.00    +0.277 C 
ENDBRANCH  30  36
ENDBRANCH  25  29
ENDBRANCH   1  25
TORSDOF 8
