REMARK  Name = ZINC39609556
REMARK  11 active torsions:
REMARK  status: ('A' for Active; 'I' for Inactive)
REMARK    1  A    between atoms: C_1  and  C_2
REMARK    2  A    between atoms: C_2  and  O_3
REMARK    3  A    between atoms: O_3  and  C_4
REMARK    4  A    between atoms: C_8  and  C_10
REMARK    5  A    between atoms: C_10  and  C_11
REMARK    6  A    between atoms: C_11  and  N_12
REMARK    7  A    between atoms: C_13  and  C_15
REMARK    8  A    between atoms: C_26  and  C_28
REMARK    9  A    between atoms: C_29  and  C_39
REMARK   10  A    between atoms: C_32  and  C_33
REMARK   11  A    between atoms: C_35  and  C_38
REMARK                            x       y       z     vdW  Elec       q    Type
REMARK                         _______ _______ _______ _____ _____    ______ ____
ROOT
ATOM      1  C   UNL     1      -8.120  -6.024   2.628  0.00  0.00    +0.100 C 
ATOM      2  C   UNL     1      -9.148  -5.002   2.094  0.00  0.00    +0.121 C 
ATOM      3  N   UNL     1     -10.357  -5.219   2.923  0.00  0.00    -0.296 N 
ATOM      4  C   UNL     1      -9.830  -5.460   4.287  0.00  0.00    +0.115 C 
ATOM      5  C   UNL     1      -8.570  -6.322   4.068  0.00  0.00    -0.004 C 
ATOM      6  C   UNL     1      -8.910  -7.801   4.220  0.00  0.00    -0.010 C 
ATOM      7  C   UNL     1      -9.301  -8.084   5.673  0.00  0.00    -0.082 C 
ATOM      8  N   UNL     1      -8.188  -7.723   6.560  0.00  0.00    +0.379 N 
ATOM      9  C   UNL     1      -7.928  -6.281   6.477  0.00  0.00    -0.082 C 
ATOM     10  C   UNL     1      -7.480  -5.922   5.057  0.00  0.00    -0.010 C 
ATOM     11  C   UNL     1     -11.645  -5.201   2.526  0.00  0.00    +0.252 C 
ATOM     12  O   UNL     1     -12.533  -5.398   3.333  0.00  0.00    -0.270 OA
ATOM     13  H   UNL     1      -8.424  -7.967   7.510  0.00  0.00    -0.086 HD
ATOM     14  H   UNL     1      -7.361  -8.229   6.282  0.00  0.00    -0.086 HD
ENDROOT
BRANCH  11  15
ATOM     15  C   UNL     1     -11.977  -4.942   1.115  0.00  0.00    +0.108 A 
ATOM     16  C   UNL     1     -12.121  -5.913   0.094  0.00  0.00    +0.093 A 
ATOM     17  N   UNL     1     -12.416  -5.298  -1.012  0.00  0.00    -0.082 NA
ATOM     18  O   UNL     1     -12.476  -3.907  -0.761  0.00  0.00    -0.352 OA
ATOM     19  C   UNL     1     -12.213  -3.701   0.539  0.00  0.00    +0.201 A 
ATOM     20  C   UNL     1     -11.961  -7.402   0.261  0.00  0.00    +0.070 C 
BRANCH  19  21
ATOM     21  C   UNL     1     -12.178  -2.394   1.230  0.00  0.00    +0.152 A 
ATOM     22  C   UNL     1     -12.425  -1.130   0.639  0.00  0.00    +0.079 A 
ATOM     23  C   UNL     1     -12.297  -0.192   1.593  0.00  0.00    +0.135 A 
ATOM     24  O   UNL     1     -11.985  -0.804   2.746  0.00  0.00    -0.359 OA
ATOM     25  N   UNL     1     -11.918  -2.197   2.502  0.00  0.00    -0.075 NA
ATOM     26  C   UNL     1     -12.475   1.292   1.402  0.00  0.00    +0.089 C 
ENDBRANCH  19  21
ENDBRANCH  11  15
BRANCH   1  28
ATOM     27  N   UNL     1      -5.658  -6.224   2.484  0.00  0.00    -0.315 N 
ATOM     28  C   UNL     1      -6.736  -5.427   2.624  0.00  0.00    +0.218 C 
ATOM     29  O   UNL     1      -6.592  -4.229   2.748  0.00  0.00    -0.275 OA
ATOM     30  H   UNL     1      -5.774  -7.183   2.386  0.00  0.00    +0.149 HD
BRANCH  27  31
ATOM     31  C   UNL     1      -4.313  -5.644   2.481  0.00  0.00    +0.109 C 
BRANCH  31  32
ATOM     32  C   UNL     1      -3.278  -6.758   2.308  0.00  0.00    +0.054 C 
BRANCH  32  37
ATOM     33  C   UNL     1      -0.046  -5.209   1.112  0.00  0.00    +0.121 A 
ATOM     34  C   UNL     1       0.648  -5.065   2.305  0.00  0.00    +0.045 A 
ATOM     35  C   UNL     1       0.069  -5.469   3.492  0.00  0.00    +0.004 A 
ATOM     36  C   UNL     1      -1.201  -6.016   3.492  0.00  0.00    +0.004 A 
ATOM     37  C   UNL     1      -1.894  -6.161   2.305  0.00  0.00    -0.042 A 
ATOM     38  C   UNL     1      -1.322  -5.753   1.115  0.00  0.00    +0.049 A 
BRANCH  33  39
ATOM     39  O   UNL     1       0.522  -4.812  -0.057  0.00  0.00    -0.492 OA
BRANCH  39  41
ATOM     40  C   UNL     1       2.307  -3.874  -1.390  0.00  0.00    +0.048 C 
ATOM     41  C   UNL     1       1.838  -4.260   0.015  0.00  0.00    +0.225 C 
ENDBRANCH  39  41
ENDBRANCH  33  39
ENDBRANCH  32  37
ENDBRANCH  31  32
ENDBRANCH  27  31
ENDBRANCH   1  28
TORSDOF 8
