REMARK  Name = ZINC39695646
REMARK  10 active torsions:
REMARK  status: ('A' for Active; 'I' for Inactive)
REMARK    1  A    between atoms: C_1  and  C_2
REMARK    2  A    between atoms: C_2  and  N_3
REMARK    3  A    between atoms: C_7  and  C_9
REMARK    4  A    between atoms: C_9  and  N_10
REMARK    5  A    between atoms: C_11  and  C_13
REMARK    6  A    between atoms: C_24  and  C_26
REMARK    7  A    between atoms: C_26  and  C_27
REMARK    8  A    between atoms: C_27  and  C_28
REMARK    9  A    between atoms: C_31  and  O_34
REMARK   10  A    between atoms: O_34  and  C_35
REMARK                            x       y       z     vdW  Elec       q    Type
REMARK                         _______ _______ _______ _____ _____    ______ ____
ROOT
ATOM      1  C   UNL     1      -3.506  -1.252  -3.864  0.00  0.00    +0.100 C 
ATOM      2  C   UNL     1      -4.472  -1.803  -2.792  0.00  0.00    +0.121 C 
ATOM      3  N   UNL     1      -5.790  -1.855  -3.466  0.00  0.00    -0.300 N 
ATOM      4  C   UNL     1      -5.483  -2.316  -4.841  0.00  0.00    +0.115 C 
ATOM      5  C   UNL     1      -4.173  -1.591  -5.208  0.00  0.00    -0.004 C 
ATOM      6  C   UNL     1      -4.476  -0.314  -5.984  0.00  0.00    -0.010 C 
ATOM      7  C   UNL     1      -5.087  -0.679  -7.340  0.00  0.00    -0.082 C 
ATOM      8  N   UNL     1      -4.148  -1.521  -8.091  0.00  0.00    +0.379 N 
ATOM      9  C   UNL     1      -3.933  -2.788  -7.382  0.00  0.00    -0.082 C 
ATOM     10  C   UNL     1      -3.274  -2.512  -6.028  0.00  0.00    -0.010 C 
ATOM     11  C   UNL     1      -6.996  -1.551  -2.946  0.00  0.00    +0.216 C 
ATOM     12  O   UNL     1      -7.993  -1.645  -3.631  0.00  0.00    -0.276 OA
ATOM     13  H   UNL     1      -4.526  -1.710  -9.008  0.00  0.00    -0.086 HD
ATOM     14  H   UNL     1      -3.267  -1.037  -8.187  0.00  0.00    -0.086 HD
ENDROOT
BRANCH   1  16
ATOM     15  N   UNL     1      -1.048  -1.277  -4.141  0.00  0.00    -0.317 N 
ATOM     16  C   UNL     1      -2.164  -1.930  -3.759  0.00  0.00    +0.218 C 
ATOM     17  O   UNL     1      -2.088  -3.062  -3.331  0.00  0.00    -0.275 OA
ATOM     18  H   UNL     1      -1.109  -0.372  -4.484  0.00  0.00    +0.149 HD
BRANCH  15  19
ATOM     19  C   UNL     1       0.257  -1.936  -4.040  0.00  0.00    +0.089 C 
BRANCH  19  24
ATOM     20  N   UNL     1       1.032  -0.525  -5.899  0.00  0.00    +0.382 N 
ATOM     21  C   UNL     1       2.112  -0.970  -6.807  0.00  0.00    -0.078 C 
ATOM     22  C   UNL     1       3.348  -1.155  -5.891  0.00  0.00    -0.020 C 
ATOM     23  C   UNL     1       2.700  -1.726  -4.602  0.00  0.00    -0.016 C 
ATOM     24  C   UNL     1       1.348  -0.985  -4.534  0.00  0.00    -0.051 C 
ATOM     25  H   UNL     1       0.155  -0.925  -6.197  0.00  0.00    -0.081 HD
BRANCH  20  27
ATOM     26  C   UNL     1       0.492   1.405  -7.306  0.00  0.00    -0.017 C 
ATOM     27  C   UNL     1       0.942   0.941  -5.919  0.00  0.00    -0.082 C 
ENDBRANCH  20  27
ENDBRANCH  19  24
ENDBRANCH  15  19
ENDBRANCH   1  16
BRANCH  11  28
ATOM     28  C   UNL     1      -7.106  -1.095  -1.514  0.00  0.00    +0.100 C 
BRANCH  28  29
ATOM     29  C   UNL     1      -8.573  -0.817  -1.179  0.00  0.00    +0.044 C 
BRANCH  29  30
ATOM     30  C   UNL     1      -8.684  -0.361   0.253  0.00  0.00    -0.047 A 
ATOM     31  C   UNL     1      -8.863  -1.290   1.261  0.00  0.00    +0.007 A 
ATOM     32  C   UNL     1      -8.965  -0.875   2.575  0.00  0.00    +0.046 A 
ATOM     33  C   UNL     1      -8.886   0.476   2.882  0.00  0.00    +0.120 A 
ATOM     34  C   UNL     1      -8.705   1.406   1.869  0.00  0.00    +0.046 A 
ATOM     35  C   UNL     1      -8.599   0.985   0.557  0.00  0.00    +0.007 A 
BRANCH  33  36
ATOM     36  O   UNL     1      -8.987   0.887   4.173  0.00  0.00    -0.495 OA
ATOM     37  C   UNL     1      -8.897   2.293   4.416  0.00  0.00    +0.277 C 
ENDBRANCH  33  36
ENDBRANCH  29  30
ENDBRANCH  28  29
ENDBRANCH  11  28
TORSDOF 8
