REMARK  Name = ZINC39631259
REMARK  12 active torsions:
REMARK  status: ('A' for Active; 'I' for Inactive)
REMARK    1  A    between atoms: C_1  and  C_2
REMARK    2  A    between atoms: C_2  and  C_4
REMARK    3  A    between atoms: C_2  and  N_11
REMARK    4  A    between atoms: C_4  and  C_5
REMARK    5  A    between atoms: C_5  and  C_6
REMARK    6  A    between atoms: C_6  and  C_7
REMARK    7  A    between atoms: C_7  and  C_8
REMARK    8  A    between atoms: C_7  and  C_9
REMARK    9  A    between atoms: C_7  and  O_10
REMARK   10  A    between atoms: C_12  and  C_14
REMARK   11  A    between atoms: C_25  and  C_27
REMARK   12  A    between atoms: C_33  and  C_35
REMARK                            x       y       z     vdW  Elec       q    Type
REMARK                         _______ _______ _______ _____ _____    ______ ____
ROOT
ATOM      1  C   UNL     1       2.783  -1.099   2.395  0.00  0.00    +0.100 C 
ATOM      2  C   UNL     1       2.678  -0.070   3.542  0.00  0.00    +0.121 C 
ATOM      3  N   UNL     1       3.999  -0.120   4.212  0.00  0.00    -0.299 N 
ATOM      4  C   UNL     1       4.971  -0.257   3.101  0.00  0.00    +0.115 C 
ATOM      5  C   UNL     1       4.289  -1.219   2.107  0.00  0.00    -0.004 C 
ATOM      6  C   UNL     1       4.589  -0.794   0.673  0.00  0.00    -0.010 C 
ATOM      7  C   UNL     1       6.083  -0.977   0.393  0.00  0.00    -0.082 C 
ATOM      8  N   UNL     1       6.452  -2.383   0.596  0.00  0.00    +0.379 N 
ATOM      9  C   UNL     1       6.248  -2.757   2.001  0.00  0.00    -0.082 C 
ATOM     10  C   UNL     1       4.761  -2.649   2.349  0.00  0.00    -0.010 C 
ATOM     11  C   UNL     1       4.258  -0.057   5.533  0.00  0.00    +0.236 C 
ATOM     12  O   UNL     1       5.402  -0.111   5.930  0.00  0.00    -0.274 OA
ATOM     13  H   UNL     1       5.879  -2.968   0.007  0.00  0.00    -0.086 HD
ATOM     14  H   UNL     1       7.423  -2.513   0.352  0.00  0.00    -0.086 HD
ENDROOT
BRANCH  11  15
ATOM     15  C   UNL     1       3.125   0.083   6.517  0.00  0.00    +0.162 C 
ATOM     16  C   UNL     1       2.669   1.555   6.588  0.00  0.00    +0.033 C 
ATOM     17  C   UNL     1       2.364   1.753   8.096  0.00  0.00    +0.021 C 
ATOM     18  C   UNL     1       3.455   0.870   8.752  0.00  0.00    +0.109 C 
ATOM     19  N   UNL     1       3.580  -0.301   7.862  0.00  0.00    -0.283 N 
ATOM     20  C   UNL     1       4.035  -1.519   8.219  0.00  0.00    +0.320 C 
ATOM     21  O   UNL     1       4.094  -2.409   7.397  0.00  0.00    -0.266 OA
BRANCH  20  22
ATOM     22  C   UNL     1       4.471  -1.774   9.639  0.00  0.00    +0.470 C 
ATOM     23  F   UNL     1       4.900  -3.099   9.764  0.00  0.00    -0.162 F 
ATOM     24  F   UNL     1       5.522  -0.910   9.966  0.00  0.00    -0.162 F 
ATOM     25  F   UNL     1       3.396  -1.548  10.504  0.00  0.00    -0.162 F 
ENDBRANCH  20  22
ENDBRANCH  11  15
BRANCH   1  27
ATOM     26  N   UNL     1       1.507  -1.478   0.310  0.00  0.00    -0.312 N 
ATOM     27  C   UNL     1       2.054  -0.600   1.174  0.00  0.00    +0.218 C 
ATOM     28  O   UNL     1       1.960   0.592   0.969  0.00  0.00    -0.275 OA
ATOM     29  H   UNL     1       1.582  -2.431   0.473  0.00  0.00    +0.149 HD
BRANCH  26  31
ATOM     30  C   UNL     1      -0.653  -0.673  -0.510  0.00  0.00    +0.028 C 
ATOM     31  C   UNL     1       0.798  -0.992  -0.877  0.00  0.00    +0.070 C 
BRANCH  31  32
ATOM     32  C   UNL     1       0.825  -2.070  -1.963  0.00  0.00    +0.022 C 
BRANCH  32  33
ATOM     33  C   UNL     1       2.267  -2.300  -2.419  0.00  0.00    +0.005 C 
BRANCH  33  34
ATOM     34  C   UNL     1       2.294  -3.377  -3.505  0.00  0.00    +0.034 C 
BRANCH  34  35
ATOM     35  C   UNL     1       3.736  -3.607  -3.960  0.00  0.00    +0.061 C 
ATOM     36  C   UNL     1       3.751  -4.592  -5.131  0.00  0.00    +0.041 C 
ATOM     37  C   UNL     1       4.348  -2.277  -4.405  0.00  0.00    +0.041 C 
BRANCH  35  38
ATOM     38  O   UNL     1       4.498  -4.143  -2.877  0.00  0.00    -0.389 OA
ATOM     39  H   UNL     1       4.166  -4.988  -2.543  0.00  0.00    +0.210 HD
ENDBRANCH  35  38
ENDBRANCH  34  35
ENDBRANCH  33  34
ENDBRANCH  32  33
ENDBRANCH  31  32
ENDBRANCH  26  31
ENDBRANCH   1  27
TORSDOF 9
