REMARK  Name = ZINC39561034
REMARK  5 active torsions:
REMARK  status: ('A' for Active; 'I' for Inactive)
REMARK    1  A    between atoms: C_9  and  C_11
REMARK    2  A    between atoms: C_11  and  O_12
REMARK    3  A    between atoms: O_12  and  C_13
REMARK    4  A    between atoms: C_13  and  C_15
REMARK    5  A    between atoms: C_17  and  N_23
REMARK                            x       y       z     vdW  Elec       q    Type
REMARK                         _______ _______ _______ _____ _____    ______ ____
ROOT
ATOM      1  C   UNL     1       1.489  -5.920  -1.426  0.00  0.00    +0.360 C 
ATOM      2  O   UNL     1       1.203  -6.717  -0.554  0.00  0.00    -0.243 OA
ENDROOT
BRANCH   1   3
ATOM      3  C   UNL     1       2.131  -6.389  -2.673  0.00  0.00    +0.169 A 
ATOM      4  C   UNL     1       2.400  -7.744  -2.844  0.00  0.00    +0.095 A 
ATOM      5  C   UNL     1       3.006  -8.169  -4.027  0.00  0.00    +0.067 A 
ATOM      6  C   UNL     1       3.317  -7.213  -4.992  0.00  0.00    +0.100 A 
ATOM      7  C   UNL     1       3.018  -5.881  -4.747  0.00  0.00    +0.150 A 
ATOM      8  N   UNL     1       2.442  -5.512  -3.623  0.00  0.00    -0.226 NA
ATOM      9 CL   UNL     1       3.404  -4.685  -5.945  0.00  0.00    -0.060 Cl
ATOM     10 CL   UNL     1       4.073  -7.684  -6.482  0.00  0.00    -0.078 Cl
ATOM     11 CL   UNL     1       1.988  -8.887  -1.604  0.00  0.00    -0.079 Cl
BRANCH   5  12
ATOM     12  N   UNL     1       3.292  -9.516  -4.238  0.00  0.00    -0.356 N 
ATOM     13  H   UNL     1       3.071 -10.172  -3.559  0.00  0.00    +0.142 HD
ATOM     14  H   UNL     1       3.714  -9.799  -5.065  0.00  0.00    +0.142 HD
ENDBRANCH   5  12
ENDBRANCH   1   3
BRANCH   1  15
ATOM     15  O   UNL     1       1.221  -4.611  -1.256  0.00  0.00    -0.454 OA
BRANCH  15  16
ATOM     16  C   UNL     1       0.600  -4.230  -0.027  0.00  0.00    +0.288 C 
BRANCH  16  25
ATOM     17  C   UNL     1      -0.017   1.370   0.010  0.00  0.00    +0.104 A 
ATOM     18  C   UNL     1       1.115   2.074   0.003  0.00  0.00    +0.067 A 
ATOM     19  S   UNL     1       2.349   0.782  -0.016  0.00  0.00    -0.058 S 
ATOM     20  C   UNL     1       1.233  -0.605  -0.013  0.00  0.00    +0.180 A 
ATOM     21  N   UNL     1       0.002  -0.004   0.002  0.00  0.00    -0.262 N 
ATOM     22  C   UNL     1      -1.082  -0.836   0.007  0.00  0.00    +0.259 A 
ATOM     23  O   UNL     1      -2.210  -0.370   0.020  0.00  0.00    -0.267 OA
ATOM     24  C   UNL     1      -0.897  -2.219  -0.002  0.00  0.00    +0.097 A 
ATOM     25  C   UNL     1       0.379  -2.739  -0.017  0.00  0.00    +0.087 A 
ATOM     26  N   UNL     1       1.413  -1.902  -0.022  0.00  0.00    -0.224 NA
ENDBRANCH  16  25
ENDBRANCH  15  16
ENDBRANCH   1  15
TORSDOF 5
