REMARK  Name = ZINC63985866
REMARK  9 active torsions:
REMARK  status: ('A' for Active; 'I' for Inactive)
REMARK    1  A    between atoms: C_1  and  N_2
REMARK    2  A    between atoms: C_5  and  C_7
REMARK    3  A    between atoms: N_9  and  C_10
REMARK    4  A    between atoms: N_9  and  C_11
REMARK    5  A    between atoms: C_11  and  C_12
REMARK    6  A    between atoms: C_19  and  N_23
REMARK    7  A    between atoms: N_23  and  C_24
REMARK    8  A    between atoms: C_24  and  C_25
REMARK    9  A    between atoms: C_25  and  C_26
REMARK                            x       y       z     vdW  Elec       q    Type
REMARK                         _______ _______ _______ _____ _____    ______ ____
ROOT
ATOM      1  C   UNL     1      -1.040   1.396   0.155  0.00  0.00    +0.172 C 
ATOM      2  N   UNL     1      -0.862  -0.058   0.123  0.00  0.00    -0.270 N 
ATOM      3  C   UNL     1      -0.975  -0.823  -0.975  0.00  0.00    +0.043 A 
ATOM      4  C   UNL     1      -0.738  -2.103  -0.598  0.00  0.00    +0.004 A 
ATOM      5  C   UNL     1      -0.481  -2.058   0.783  0.00  0.00    +0.151 A 
ATOM      6  N   UNL     1      -0.568  -0.788   1.142  0.00  0.00    -0.166 NA
ATOM      7  C   UNL     1      -0.760  -3.286  -1.527  0.00  0.00    +0.023 C 
ATOM      8  C   UNL     1      -0.682  -2.767  -2.969  0.00  0.00    -0.067 C 
ATOM      9  C   UNL     1      -1.721  -1.660  -3.171  0.00  0.00    -0.009 C 
ATOM     10  C   UNL     1      -1.302  -0.410  -2.387  0.00  0.00    +0.054 C 
ENDROOT
BRANCH   5  11
ATOM     11  C   UNL     1      -0.168  -3.204   1.660  0.00  0.00    +0.267 C 
ATOM     12  O   UNL     1      -0.204  -4.336   1.218  0.00  0.00    -0.268 OA
ATOM     13  N   UNL     1       0.157  -2.995   2.951  0.00  0.00    -0.295 N 
ATOM     14  C   UNL     1       0.141  -1.637   3.501  0.00  0.00    +0.132 C 
BRANCH  13  15
ATOM     15  C   UNL     1       0.528  -4.126   3.806  0.00  0.00    +0.142 C 
BRANCH  15  16
ATOM     16  C   UNL     1       2.016  -4.348   3.729  0.00  0.00    -0.030 A 
ATOM     17  C   UNL     1       2.541  -5.193   2.768  0.00  0.00    +0.005 A 
ATOM     18  C   UNL     1       3.906  -5.396   2.698  0.00  0.00    +0.000 A 
ATOM     19  C   UNL     1       4.747  -4.754   3.587  0.00  0.00    +0.000 A 
ATOM     20  C   UNL     1       4.223  -3.908   4.546  0.00  0.00    +0.000 A 
ATOM     21  C   UNL     1       2.858  -3.701   4.614  0.00  0.00    +0.005 A 
ENDBRANCH  15  16
ENDBRANCH  13  15
ENDBRANCH   5  11
BRANCH   8  22
ATOM     22  N   UNL     1      -0.954  -3.869  -3.901  0.00  0.00    +0.381 N 
ATOM     23  H   UNL     1      -0.321  -4.632  -3.713  0.00  0.00    -0.086 HD
ATOM     24  H   UNL     1      -1.905  -4.184  -3.781  0.00  0.00    -0.086 HD
BRANCH  22  25
ATOM     25  C   UNL     1      -0.763  -3.402  -5.281  0.00  0.00    -0.078 C 
BRANCH  25  26
ATOM     26  C   UNL     1      -1.046  -4.550  -6.252  0.00  0.00    +0.014 C 
BRANCH  26  27
ATOM     27  C   UNL     1      -0.850  -4.071  -7.667  0.00  0.00    -0.043 C 
ATOM     28  C   UNL     1       0.266  -4.196  -8.420  0.00  0.00    -0.001 A 
ATOM     29  C   UNL     1       1.582  -4.791  -8.157  0.00  0.00    +0.010 A 
ATOM     30  C   UNL     1       2.521  -4.762  -9.130  0.00  0.00    +0.001 A 
ATOM     31  C   UNL     1       2.270  -4.180 -10.380  0.00  0.00    +0.002 A 
ATOM     32  C   UNL     1       1.086  -3.614 -10.696  0.00  0.00    +0.026 A 
ATOM     33  C   UNL     1       0.026  -3.587  -9.748  0.00  0.00    +0.043 A 
ATOM     34  N   UNL     1      -1.192  -3.106  -9.814  0.00  0.00    -0.380 N 
ATOM     35  C   UNL     1      -1.864  -3.360  -8.535  0.00  0.00    +0.144 C 
ATOM     36  H   UNL     1      -1.583  -2.660 -10.581  0.00  0.00    +0.160 HD
ENDBRANCH  26  27
ENDBRANCH  25  26
ENDBRANCH  22  25
ENDBRANCH   8  22
TORSDOF 7
