REMARK  Name = ZINC38904353
REMARK  9 active torsions:
REMARK  status: ('A' for Active; 'I' for Inactive)
REMARK    1  A    between atoms: C_4  and  C_7
REMARK    2  A    between atoms: C_7  and  S_8
REMARK    3  A    between atoms: S_8  and  C_9
REMARK    4  A    between atoms: C_9  and  C_10
REMARK    5  A    between atoms: C_10  and  N_11
REMARK    6  A    between atoms: C_12  and  C_14
REMARK    7  A    between atoms: N_19  and  C_21
REMARK    8  A    between atoms: C_21  and  C_22
REMARK    9  A    between atoms: C_24  and  C_27
REMARK                            x       y       z     vdW  Elec       q    Type
REMARK                         _______ _______ _______ _____ _____    ______ ____
ROOT
ATOM      1  C   UNL     1       9.681  -4.043   3.622  0.00  0.00    +0.058 C 
ATOM      2  C   UNL     1       9.447  -5.346   2.853  0.00  0.00    +0.009 C 
ATOM      3  C   UNL     1      10.766  -6.119   2.763  0.00  0.00    -0.018 C 
ATOM      4  C   UNL     1      11.303  -6.367   4.174  0.00  0.00    -0.078 C 
ATOM      5  N   UNL     1      11.531  -5.083   4.848  0.00  0.00    +0.386 N 
ATOM      6  C   UNL     1      10.259  -4.368   5.002  0.00  0.00    -0.065 C 
ATOM      7  H   UNL     1      12.165  -4.524   4.297  0.00  0.00    -0.081 HD
ENDROOT
BRANCH   1   9
ATOM      8  N   UNL     1       7.680  -2.925   2.695  0.00  0.00    -0.314 N 
ATOM      9  C   UNL     1       8.374  -3.312   3.783  0.00  0.00    +0.214 C 
ATOM     10  O   UNL     1       7.946  -3.071   4.893  0.00  0.00    -0.276 OA
ATOM     11  H   UNL     1       8.022  -3.117   1.808  0.00  0.00    +0.149 HD
BRANCH   8  12
ATOM     12  C   UNL     1       6.408  -2.213   2.851  0.00  0.00    +0.115 C 
BRANCH  12  13
ATOM     13  C   UNL     1       5.831  -1.891   1.472  0.00  0.00    +0.088 C 
BRANCH  13  14
ATOM     14  S   UNL     1       4.257  -1.011   1.666  0.00  0.00    -0.155 S 
BRANCH  14  15
ATOM     15  C   UNL     1       3.711  -0.707  -0.038  0.00  0.00    +0.104 C 
BRANCH  15  19
ATOM     16  C   UNL     1      -0.017   1.378   0.010  0.00  0.00    +0.000 A 
ATOM     17  C   UNL     1       1.171   2.086   0.002  0.00  0.00    +0.000 A 
ATOM     18  C   UNL     1       2.377   1.411  -0.013  0.00  0.00    +0.004 A 
ATOM     19  C   UNL     1       2.396   0.029  -0.020  0.00  0.00    -0.038 A 
ATOM     20  C   UNL     1       1.208  -0.679  -0.012  0.00  0.00    +0.004 A 
ATOM     21  C   UNL     1       0.002  -0.004   0.002  0.00  0.00    +0.000 A 
ENDBRANCH  15  19
ENDBRANCH  14  15
ENDBRANCH  13  14
ENDBRANCH  12  13
ENDBRANCH   8  12
ENDBRANCH   1   9
BRANCH   5  22
ATOM     22  C   UNL     1      12.119  -5.325   6.172  0.00  0.00    +0.022 C 
BRANCH  22  23
ATOM     23  C   UNL     1      13.485  -5.940   6.011  0.00  0.00    +0.211 A 
ATOM     24  N   UNL     1      14.608  -5.286   5.919  0.00  0.00    -0.193 NA
ATOM     25  C   UNL     1      15.632  -6.147   5.785  0.00  0.00    +0.202 A 
ATOM     26  N   UNL     1      15.157  -7.368   5.792  0.00  0.00    -0.056 NA
ATOM     27  O   UNL     1      13.750  -7.251   5.944  0.00  0.00    -0.340 OA
BRANCH  25  28
ATOM     28  C   UNL     1      17.063  -5.776   5.651  0.00  0.00    +0.023 A 
ATOM     29  C   UNL     1      17.442  -4.435   5.663  0.00  0.00    +0.012 A 
ATOM     30  C   UNL     1      18.773  -4.095   5.538  0.00  0.00    +0.002 A 
ATOM     31  C   UNL     1      19.732  -5.082   5.401  0.00  0.00    +0.015 A 
ATOM     32  C   UNL     1      19.362  -6.415   5.388  0.00  0.00    +0.019 A 
ATOM     33  C   UNL     1      18.033  -6.767   5.518  0.00  0.00    +0.027 A 
ATOM     34 BR   UNL     1      20.680  -7.759   5.198  0.00  0.00    -0.050 Br
ENDBRANCH  25  28
ENDBRANCH  22  23
ENDBRANCH   5  22
TORSDOF 9
