REMARK  Name = ZINC00709628
REMARK  7 active torsions:
REMARK  status: ('A' for Active; 'I' for Inactive)
REMARK    1  A    between atoms: C_4  and  C_7
REMARK    2  A    between atoms: C_14  and  N_34
REMARK    3  A    between atoms: C_15  and  C_32
REMARK    4  A    between atoms: C_16  and  C_18
REMARK    5  A    between atoms: C_22  and  O_24
REMARK    6  A    between atoms: O_24  and  C_25
REMARK    7  A    between atoms: C_25  and  C_27
REMARK                            x       y       z     vdW  Elec       q    Type
REMARK                         _______ _______ _______ _____ _____    ______ ____
ROOT
ATOM      1  C   UNL     1       3.746  -0.401   0.018  0.00  0.00    +0.100 A 
ATOM      2  C   UNL     1       3.985  -1.668   0.557  0.00  0.00    +0.054 A 
ATOM      3  C   UNL     1       5.279  -2.006   0.285  0.00  0.00    +0.223 A 
ATOM      4  N   UNL     1       5.835  -0.985  -0.400  0.00  0.00    -0.246 N 
ATOM      5  H   UNL     1       6.748  -0.947  -0.726  0.00  0.00    +0.192 HD
ATOM      6  N   UNL     1       4.858   0.009  -0.563  0.00  0.00    -0.171 NA
ATOM      7  O   UNL     1       5.825  -3.186   0.674  0.00  0.00    -0.423 OA
ATOM      8  C   UNL     1       4.987  -4.151   1.103  0.00  0.00    +0.200 C 
ATOM      9  C   UNL     1       3.689  -3.935   1.416  0.00  0.00    +0.098 C 
ATOM     10  C   UNL     1       3.050  -2.573   1.316  0.00  0.00    +0.102 C 
ENDROOT
BRANCH   1  14
ATOM     11  C   UNL     1       0.080   1.746   0.199  0.00  0.00    +0.000 A 
ATOM     12  C   UNL     1       1.282   2.429   0.256  0.00  0.00    +0.001 A 
ATOM     13  C   UNL     1       2.475   1.737   0.198  0.00  0.00    +0.010 A 
ATOM     14  C   UNL     1       2.467   0.349   0.081  0.00  0.00    +0.003 A 
ATOM     15  C   UNL     1       1.254  -0.334   0.024  0.00  0.00    +0.010 A 
ATOM     16  C   UNL     1       0.067   0.368   0.083  0.00  0.00    +0.001 A 
ENDBRANCH   1  14
BRANCH  10  17
ATOM     17  C   UNL     1       2.816  -2.018   2.698  0.00  0.00    -0.031 A 
ATOM     18  C   UNL     1       3.882  -1.839   3.560  0.00  0.00    +0.005 A 
ATOM     19  C   UNL     1       3.671  -1.330   4.828  0.00  0.00    +0.004 A 
ATOM     20  C   UNL     1       2.393  -1.000   5.237  0.00  0.00    +0.046 A 
ATOM     21  C   UNL     1       1.322  -1.179   4.374  0.00  0.00    +0.132 A 
ATOM     22  C   UNL     1       1.537  -1.685   3.100  0.00  0.00    +0.051 A 
BRANCH  21  23
ATOM     23  O   UNL     1       0.064  -0.854   4.774  0.00  0.00    -0.420 OA
BRANCH  23  24
ATOM     24  C   UNL     1      -0.815  -1.858   4.978  0.00  0.00    +0.380 C 
ATOM     25  O   UNL     1      -0.444  -3.014   4.905  0.00  0.00    -0.241 OA
BRANCH  24  26
ATOM     26  C   UNL     1      -2.214  -1.554   5.286  0.00  0.00    +0.212 A 
ATOM     27  C   UNL     1      -3.201  -2.470   5.519  0.00  0.00    +0.056 A 
ATOM     28  C   UNL     1      -4.374  -1.742   5.771  0.00  0.00    +0.042 A 
ATOM     29  C   UNL     1      -4.056  -0.431   5.683  0.00  0.00    +0.196 A 
ATOM     30  O   UNL     1      -2.753  -0.322   5.396  0.00  0.00    -0.456 OA
ENDBRANCH  24  26
ENDBRANCH  23  24
ENDBRANCH  21  23
ENDBRANCH  10  17
BRANCH   8  31
ATOM     31  N   UNL     1       5.479  -5.426   1.231  0.00  0.00    -0.328 N 
ATOM     32  H   UNL     1       6.407  -5.611   1.014  0.00  0.00    +0.145 HD
ATOM     33  H   UNL     1       4.901  -6.141   1.537  0.00  0.00    +0.145 HD
ENDBRANCH   8  31
BRANCH   9  34
ATOM     34  C   UNL     1       2.894  -5.041   1.857  0.00  0.00    +0.101 C 
ATOM     35  N   UNL     1       2.262  -5.918   2.207  0.00  0.00    -0.191 NA
ENDBRANCH   9  34
TORSDOF 7
