REMARK  Name = ZINC01162599
REMARK  13 active torsions:
REMARK  status: ('A' for Active; 'I' for Inactive)
REMARK    1  A    between atoms: C_1  and  C_2
REMARK    2  A    between atoms: C_2  and  O_3
REMARK    3  A    between atoms: O_3  and  C_4
REMARK    4  A    between atoms: C_6  and  C_21
REMARK    5  A    between atoms: C_9  and  O_10
REMARK    6  A    between atoms: O_10  and  C_11
REMARK    7  A    between atoms: C_11  and  C_13
REMARK    8  A    between atoms: C_24  and  C_35
REMARK    9  A    between atoms: C_30  and  N_34
REMARK   10  A    between atoms: C_31  and  C_32
REMARK   11  A    between atoms: C_35  and  C_36
REMARK   12  A    between atoms: C_35  and  C_37
REMARK   13  A    between atoms: C_35  and  C_38
REMARK                            x       y       z     vdW  Elec       q    Type
REMARK                         _______ _______ _______ _____ _____    ______ ____
ROOT
ATOM      1  C   UNL     1      -3.361  -3.723  -0.761  0.00  0.00    +0.163 A 
ATOM      2  C   UNL     1      -2.037  -4.003  -0.464  0.00  0.00    +0.054 A 
ATOM      3  C   UNL     1      -1.559  -5.294  -0.588  0.00  0.00    -0.031 A 
ATOM      4  C   UNL     1      -2.399  -6.308  -1.009  0.00  0.00    +0.008 A 
ATOM      5  C   UNL     1      -3.721  -6.036  -1.307  0.00  0.00    +0.050 A 
ATOM      6  C   UNL     1      -4.208  -4.745  -1.179  0.00  0.00    +0.173 A 
ENDROOT
BRANCH   3   7
ATOM      7  C   UNL     1      -0.118  -5.596  -0.264  0.00  0.00    +0.101 C 
ATOM      8  C   UNL     1       0.470  -6.477  -1.336  0.00  0.00    +0.050 A 
ATOM      9  C   UNL     1       0.820  -6.158  -2.641  0.00  0.00    +0.076 A 
ATOM     10  N   UNL     1       1.293  -7.241  -3.212  0.00  0.00    -0.175 NA
ATOM     11  N   UNL     1       1.256  -8.287  -2.277  0.00  0.00    -0.246 N 
ATOM     12  H   UNL     1       1.546  -9.200  -2.430  0.00  0.00    +0.192 HD
ATOM     13  C   UNL     1       0.749  -7.800  -1.133  0.00  0.00    +0.222 A 
ATOM     14  O   UNL     1       0.523  -8.423   0.050  0.00  0.00    -0.423 OA
ATOM     15  C   UNL     1       0.265  -7.650   1.124  0.00  0.00    +0.200 C 
ATOM     16  C   UNL     1      -0.036  -6.333   1.050  0.00  0.00    +0.098 C 
BRANCH   9  17
ATOM     17  C   UNL     1       0.682  -4.805  -3.289  0.00  0.00    +0.007 C 
ATOM     18  C   UNL     1       1.360  -3.749  -2.414  0.00  0.00    +0.017 C 
ATOM     19  C   UNL     1       1.346  -4.829  -4.667  0.00  0.00    +0.017 C 
ATOM     20  C   UNL     1      -0.802  -4.463  -3.444  0.00  0.00    +0.017 C 
ENDBRANCH   9  17
BRANCH  15  21
ATOM     21  N   UNL     1       0.311  -8.233   2.366  0.00  0.00    -0.328 N 
ATOM     22  H   UNL     1       0.524  -9.175   2.452  0.00  0.00    +0.145 HD
ATOM     23  H   UNL     1       0.131  -7.702   3.158  0.00  0.00    +0.145 HD
ENDBRANCH  15  21
BRANCH  16  24
ATOM     24  C   UNL     1      -0.286  -5.613   2.262  0.00  0.00    +0.101 C 
ATOM     25  N   UNL     1      -0.484  -5.041   3.223  0.00  0.00    -0.191 NA
ENDBRANCH  16  24
ENDBRANCH   3   7
BRANCH   1  26
ATOM     26  O   UNL     1      -3.833  -2.453  -0.639  0.00  0.00    -0.489 OA
BRANCH  26  28
ATOM     27  C   UNL     1      -3.614  -0.101  -0.128  0.00  0.00    +0.048 C 
ATOM     28  C   UNL     1      -2.906  -1.456  -0.205  0.00  0.00    +0.226 C 
ENDBRANCH  26  28
ENDBRANCH   1  26
BRANCH   6  29
ATOM     29  O   UNL     1      -5.510  -4.476  -1.467  0.00  0.00    -0.418 OA
BRANCH  29  30
ATOM     30  C   UNL     1      -5.791  -3.916  -2.660  0.00  0.00    +0.350 C 
ATOM     31  O   UNL     1      -4.908  -3.753  -3.478  0.00  0.00    -0.244 OA
BRANCH  30  32
ATOM     32  C   UNL     1      -7.171  -3.503  -2.973  0.00  0.00    +0.129 A 
ATOM     33  C   UNL     1      -7.604  -2.208  -2.666  0.00  0.00    +0.140 A 
ATOM     34  C   UNL     1      -8.900  -1.829  -2.963  0.00  0.00    +0.039 A 
ATOM     35  C   UNL     1      -9.767  -2.725  -3.561  0.00  0.00    +0.006 A 
ATOM     36  C   UNL     1      -9.348  -4.007  -3.867  0.00  0.00    +0.039 A 
ATOM     37  C   UNL     1      -8.054  -4.401  -3.583  0.00  0.00    +0.140 A 
ATOM     38  F   UNL     1      -7.644  -5.652  -3.889  0.00  0.00    -0.205 F 
ATOM     39  F   UNL     1      -6.759  -1.331  -2.082  0.00  0.00    -0.205 F 
ENDBRANCH  30  32
ENDBRANCH  29  30
ENDBRANCH   6  29
TORSDOF 9
