REMARK  Name = ZINC36597465
REMARK  19 active torsions:
REMARK  status: ('A' for Active; 'I' for Inactive)
REMARK    1  A    between atoms: C_1  and  C_2
REMARK    2  A    between atoms: C_5  and  C_7
REMARK    3  A    between atoms: C_7  and  N_8
REMARK    4  A    between atoms: N_8  and  C_9
REMARK    5  A    between atoms: C_9  and  C_11
REMARK    6  A    between atoms: C_9  and  C_19
REMARK    7  A    between atoms: C_15  and  O_17
REMARK    8  A    between atoms: O_17  and  C_18
REMARK    9  A    between atoms: N_21  and  C_22
REMARK   10  A    between atoms: C_22  and  C_23
REMARK   11  A    between atoms: C_22  and  C_24
REMARK   12  A    between atoms: C_22  and  C_25
REMARK   13  A    between atoms: C_25  and  C_26
REMARK   14  A    between atoms: C_26  and  C_27
REMARK   15  A    between atoms: C_26  and  C_28
REMARK   16  A    between atoms: C_26  and  C_29
REMARK   17  A    between atoms: C_30  and  C_32
REMARK   18  A    between atoms: C_33  and  O_39
REMARK   19  A    between atoms: C_37  and  O_38
REMARK                            x       y       z     vdW  Elec       q    Type
REMARK                         _______ _______ _______ _____ _____    ______ ____
ROOT
ATOM      1  C   UNL     1       6.044  -2.642  -1.384  0.00  0.00    +0.193 C 
ENDROOT
BRANCH   1   2
ATOM      2  C   UNL     1       4.760  -2.857  -2.143  0.00  0.00    -0.015 A 
ATOM      3  C   UNL     1       4.356  -4.139  -2.468  0.00  0.00    +0.006 A 
ATOM      4  C   UNL     1       3.178  -4.339  -3.164  0.00  0.00    +0.004 A 
ATOM      5  C   UNL     1       2.402  -3.259  -3.537  0.00  0.00    +0.045 A 
ATOM      6  C   UNL     1       2.806  -1.972  -3.212  0.00  0.00    +0.120 A 
ATOM      7  C   UNL     1       3.985  -1.774  -2.508  0.00  0.00    +0.051 A 
BRANCH   6   8
ATOM      8  O   UNL     1       2.044  -0.907  -3.578  0.00  0.00    -0.495 OA
ATOM      9  C   UNL     1       0.841  -1.186  -4.296  0.00  0.00    +0.277 C 
ENDBRANCH   6   8
ENDBRANCH   1   2
BRANCH   1  10
ATOM     10  C   UNL     1       6.996  -3.773  -1.677  0.00  0.00    +0.239 C 
ATOM     11  O   UNL     1       7.399  -4.476  -0.775  0.00  0.00    -0.273 OA
ATOM     12  N   UNL     1       7.400  -4.003  -2.943  0.00  0.00    -0.308 N 
ATOM     13  H   UNL     1       7.078  -3.440  -3.664  0.00  0.00    +0.149 HD
BRANCH  12  14
ATOM     14  C   UNL     1       8.326  -5.102  -3.228  0.00  0.00    +0.030 C 
ATOM     15  C   UNL     1       9.440  -5.116  -2.179  0.00  0.00    +0.031 C 
ATOM     16  C   UNL     1       7.568  -6.431  -3.185  0.00  0.00    +0.031 C 
BRANCH  14  17
ATOM     17  C   UNL     1       8.936  -4.908  -4.617  0.00  0.00    +0.031 C 
BRANCH  17  18
ATOM     18  C   UNL     1       7.829  -4.570  -5.618  0.00  0.00    -0.036 C 
ATOM     19  C   UNL     1       7.307  -3.158  -5.344  0.00  0.00    +0.010 C 
ATOM     20  C   UNL     1       8.388  -4.640  -7.040  0.00  0.00    +0.010 C 
ATOM     21  C   UNL     1       6.684  -5.574  -5.470  0.00  0.00    +0.010 C 
ENDBRANCH  17  18
ENDBRANCH  14  17
ENDBRANCH  12  14
ENDBRANCH   1  10
BRANCH   1  22
ATOM     22  N   UNL     1       5.761  -2.602   0.053  0.00  0.00    -0.274 N 
ATOM     23  C   UNL     1       5.298  -3.702   0.679  0.00  0.00    +0.255 C 
ATOM     24  O   UNL     1       5.208  -4.753   0.075  0.00  0.00    -0.270 OA
BRANCH  23  25
ATOM     25  C   UNL     1       4.900  -3.630   2.095  0.00  0.00    +0.119 A 
ATOM     26  C   UNL     1       3.578  -3.314   2.442  0.00  0.00    +0.133 A 
ATOM     27  C   UNL     1       3.215  -3.249   3.777  0.00  0.00    +0.046 A 
ATOM     28  C   UNL     1       4.149  -3.495   4.766  0.00  0.00    +0.007 A 
ATOM     29  C   UNL     1       5.455  -3.807   4.435  0.00  0.00    +0.046 A 
ATOM     30  C   UNL     1       5.839  -3.882   3.106  0.00  0.00    +0.133 A 
BRANCH  30  31
ATOM     31  O   UNL     1       7.119  -4.194   2.784  0.00  0.00    -0.506 OA
ATOM     32  H   UNL     1       7.703  -3.428   2.707  0.00  0.00    +0.292 HD
ENDBRANCH  30  31
BRANCH  26  33
ATOM     33  O   UNL     1       2.659  -3.072   1.474  0.00  0.00    -0.506 OA
ATOM     34  H   UNL     1       2.184  -3.860   1.177  0.00  0.00    +0.292 HD
ENDBRANCH  26  33
ENDBRANCH  23  25
BRANCH  22  35
ATOM     35  C   UNL     1       5.982  -1.367   0.809  0.00  0.00    +0.183 C 
BRANCH  35  40
ATOM     36  C   UNL     1       2.509   2.007  -0.603  0.00  0.00    +0.086 C 
ATOM     37  C   UNL     1       3.215   0.930   0.180  0.00  0.00    +0.102 A 
ATOM     38  C   UNL     1       2.756   0.345   1.301  0.00  0.00    +0.045 A 
ATOM     39  C   UNL     1       3.730  -0.601   1.697  0.00  0.00    +0.046 A 
ATOM     40  C   UNL     1       4.725  -0.537   0.794  0.00  0.00    +0.122 A 
ATOM     41  O   UNL     1       4.404   0.388  -0.126  0.00  0.00    -0.463 OA
ENDBRANCH  35  40
ENDBRANCH  22  35
ENDBRANCH   1  22
TORSDOF 12
