REMARK  Name = ZINC01425289
REMARK  15 active torsions:
REMARK  status: ('A' for Active; 'I' for Inactive)
REMARK    1  A    between atoms: C_1  and  C_2
REMARK    2  A    between atoms: C_2  and  O_3
REMARK    3  A    between atoms: O_3  and  C_4
REMARK    4  A    between atoms: C_7  and  O_36
REMARK    5  A    between atoms: C_8  and  C_10
REMARK    6  A    between atoms: C_12  and  C_31
REMARK    7  A    between atoms: C_13  and  C_18
REMARK    8  A    between atoms: C_18  and  S_19
REMARK    9  A    between atoms: S_19  and  C_20
REMARK   10  A    between atoms: C_25  and  C_30
REMARK   11  A    between atoms: C_31  and  O_33
REMARK   12  A    between atoms: O_33  and  C_34
REMARK   13  A    between atoms: C_34  and  C_35
REMARK   14  A    between atoms: O_36  and  C_37
REMARK   15  A    between atoms: C_37  and  C_38
REMARK                            x       y       z     vdW  Elec       q    Type
REMARK                         _______ _______ _______ _____ _____    ______ ____
ROOT
ATOM      1  C   UNL     1      -4.371  -4.358  -0.022  0.00  0.00    +0.147 C 
ATOM      2  C   UNL     1      -4.819  -4.717   1.380  0.00  0.00    +0.079 C 
ATOM      3  C   UNL     1      -5.934  -4.123   1.855  0.00  0.00    +0.034 C 
ATOM      4  N   UNL     1      -6.635  -3.229   1.097  0.00  0.00    -0.272 N 
ATOM      5  C   UNL     1      -6.285  -2.876  -0.146  0.00  0.00    +0.304 C 
ATOM      6  O   UNL     1      -6.972  -2.071  -0.744  0.00  0.00    -0.252 OA
ATOM      7  N   UNL     1      -5.196  -3.383  -0.756  0.00  0.00    -0.288 N 
ATOM      8  H   UNL     1      -7.430  -2.828   1.480  0.00  0.00    +0.156 HD
ATOM      9  H   UNL     1      -4.961  -3.112  -1.657  0.00  0.00    +0.151 HD
ENDROOT
BRANCH   1  14
ATOM     10  C   UNL     1      -1.471  -1.940   0.118  0.00  0.00    +0.121 A 
ATOM     11  C   UNL     1      -0.392  -2.806   0.221  0.00  0.00    +0.049 A 
ATOM     12  C   UNL     1      -0.602  -4.171   0.244  0.00  0.00    +0.049 A 
ATOM     13  C   UNL     1      -1.892  -4.676   0.165  0.00  0.00    +0.126 A 
ATOM     14  C   UNL     1      -2.970  -3.810   0.063  0.00  0.00    +0.023 A 
ATOM     15  C   UNL     1      -2.760  -2.444   0.045  0.00  0.00    +0.055 A 
BRANCH  10  16
ATOM     16  O   UNL     1      -1.264  -0.596   0.095  0.00  0.00    -0.492 OA
BRANCH  16  18
ATOM     17  C   UNL     1       0.124   1.382   0.134  0.00  0.00    +0.048 C 
ATOM     18  C   UNL     1       0.091  -0.147   0.174  0.00  0.00    +0.225 C 
ENDBRANCH  16  18
ENDBRANCH  10  16
BRANCH  13  19
ATOM     19  O   UNL     1      -2.099  -6.019   0.188  0.00  0.00    -0.492 OA
BRANCH  19  20
ATOM     20  C   UNL     1      -0.939  -6.855   0.169  0.00  0.00    +0.225 C 
ATOM     21  C   UNL     1      -1.368  -8.320   0.075  0.00  0.00    +0.048 C 
ENDBRANCH  19  20
ENDBRANCH  13  19
ENDBRANCH   1  14
BRANCH   2  22
ATOM     22  C   UNL     1      -4.093  -5.644   2.165  0.00  0.00    +0.339 C 
ATOM     23  O   UNL     1      -4.158  -6.833   1.918  0.00  0.00    -0.245 OA
BRANCH  22  24
ATOM     24  O   UNL     1      -3.327  -5.208   3.187  0.00  0.00    -0.462 OA
BRANCH  24  25
ATOM     25  C   UNL     1      -2.535  -6.184   3.866  0.00  0.00    +0.229 C 
ATOM     26  C   UNL     1      -1.835  -5.532   5.060  0.00  0.00    +0.048 C 
ENDBRANCH  24  25
ENDBRANCH  22  24
ENDBRANCH   2  22
BRANCH   3  27
ATOM     27  C   UNL     1      -6.415  -4.452   3.245  0.00  0.00    +0.128 C 
BRANCH  27  28
ATOM     28  S   UNL     1      -6.043  -3.069   4.357  0.00  0.00    -0.082 S 
BRANCH  28  29
ATOM     29  C   UNL     1      -6.657  -3.601   5.921  0.00  0.00    +0.168 A 
ATOM     30  N   UNL     1      -6.602  -2.872   7.075  0.00  0.00    -0.333 N 
ATOM     31  H   UNL     1      -6.224  -1.985   7.178  0.00  0.00    +0.168 HD
ATOM     32  C   UNL     1      -7.187  -3.637   8.072  0.00  0.00    +0.067 A 
ATOM     33  C   UNL     1      -7.419  -3.439   9.424  0.00  0.00    +0.031 A 
ATOM     34  C   UNL     1      -8.042  -4.422  10.165  0.00  0.00    -0.048 A 
ATOM     35  C   UNL     1      -8.438  -5.609   9.566  0.00  0.00    +0.005 A 
ATOM     36  C   UNL     1      -8.215  -5.823   8.225  0.00  0.00    +0.030 A 
ATOM     37  C   UNL     1      -7.586  -4.837   7.460  0.00  0.00    +0.090 A 
ATOM     38  N   UNL     1      -7.240  -4.752   6.149  0.00  0.00    -0.222 NA
ATOM     39  C   UNL     1      -8.293  -4.205  11.635  0.00  0.00    +0.044 C 
ENDBRANCH  28  29
ENDBRANCH  27  28
ENDBRANCH   3  27
TORSDOF 11
