REMARK  Name = ZINC04786931
REMARK  8 active torsions:
REMARK  status: ('A' for Active; 'I' for Inactive)
REMARK    1  A    between atoms: C_1  and  C_2
REMARK    2  A    between atoms: C_2  and  O_3
REMARK    3  A    between atoms: O_3  and  C_4
REMARK    4  A    between atoms: C_7  and  C_9
REMARK    5  A    between atoms: C_9  and  S_10
REMARK    6  A    between atoms: S_10  and  C_11
REMARK    7  A    between atoms: C_14  and  C_17
REMARK    8  A    between atoms: N_15  and  N_16
REMARK                            x       y       z     vdW  Elec       q    Type
REMARK                         _______ _______ _______ _____ _____    ______ ____
ROOT
ATOM      1  C   UNL     1      -0.128  -0.826  -1.082  0.00  0.00    +0.209 A 
ATOM      2  N   UNL     1       0.001  -2.061  -0.650  0.00  0.00    -0.121 NA
ATOM      3  N   UNL     1       0.143  -2.069   0.627  0.00  0.00    -0.127 NA
ATOM      4  C   UNL     1       0.119  -0.840   1.089  0.00  0.00    +0.183 A 
ATOM      5  N   UNL     1      -0.051  -0.006   0.007  0.00  0.00    -0.224 N 
ENDROOT
BRANCH   4   6
ATOM      6  C   UNL     1       0.250  -0.429   2.503  0.00  0.00    +0.035 A 
ATOM      7  C   UNL     1      -0.639   0.497   3.049  0.00  0.00    +0.013 A 
ATOM      8  C   UNL     1      -0.512   0.876   4.369  0.00  0.00    +0.001 A 
ATOM      9  C   UNL     1       0.495   0.339   5.152  0.00  0.00    +0.001 A 
ATOM     10  C   UNL     1       1.381  -0.579   4.618  0.00  0.00    +0.016 A 
ATOM     11  C   UNL     1       1.261  -0.971   3.300  0.00  0.00    +0.029 A 
ATOM     12 BR   UNL     1       2.467  -2.233   2.572  0.00  0.00    -0.050 Br
ENDBRANCH   4   6
BRANCH   5  13
ATOM     13  N   UNL     1      -0.133   1.357   0.022  0.00  0.00    -0.295 N 
ATOM     14  H   UNL     1       0.767   1.775  -0.163  0.00  0.00    +0.163 HD
ATOM     15  H   UNL     1      -0.825   1.685  -0.635  0.00  0.00    +0.163 HD
ENDBRANCH   5  13
BRANCH   1  16
ATOM     16  S   UNL     1      -0.353  -0.323  -2.755  0.00  0.00    -0.075 S 
BRANCH  16  17
ATOM     17  C   UNL     1      -0.349  -1.938  -3.573  0.00  0.00    +0.173 C 
BRANCH  17  21
ATOM     18  C   UNL     1      -0.727  -2.655  -7.200  0.00  0.00    +0.407 C 
ATOM     19  O   UNL     1      -0.849  -1.537  -7.660  0.00  0.00    -0.226 OA
ATOM     20  N   UNL     1      -0.563  -2.822  -5.873  0.00  0.00    -0.221 N 
ATOM     21  C   UNL     1      -0.533  -1.750  -5.057  0.00  0.00    +0.232 C 
ATOM     22  O   UNL     1      -0.655  -0.635  -5.516  0.00  0.00    -0.274 OA
ATOM     23  H   UNL     1      -0.466  -3.715  -5.505  0.00  0.00    +0.161 HD
BRANCH  18  24
ATOM     24  O   UNL     1      -0.757  -3.725  -8.015  0.00  0.00    -0.450 OA
BRANCH  24  26
ATOM     25  C   UNL     1      -0.945  -4.797 -10.194  0.00  0.00    +0.048 C 
ATOM     26  C   UNL     1      -0.937  -3.469  -9.433  0.00  0.00    +0.230 C 
ENDBRANCH  24  26
ENDBRANCH  18  24
ENDBRANCH  17  21
ENDBRANCH  16  17
ENDBRANCH   1  16
TORSDOF 7
